@<TRIPOS>MOLECULE
tmp/3pouA03.pdb
 123 121 0 0 0
SMALL
GASTEIGER

@<TRIPOS>ATOM
      1  N         18.7640  -32.2060   11.7500 N.3   185  PHE185     -0.1241
      2  CA        19.3110  -32.6170   13.0310 C.3   185  PHE185      0.1605
      3  C         19.9930  -31.3700   13.5840 C.2   185  PHE185      0.2264
      4  O         20.7040  -30.6820   12.8570 O.2   185  PHE185     -0.2867
      5  CB        20.3620  -33.7370   12.8490 C.3   185  PHE185      0.0534
      6  CG        19.7860  -35.1330   12.7740 C.ar  185  PHE185     -0.0203
      7  CD1       19.1830  -35.7020   13.8910 C.ar  185  PHE185     -0.0042
      8  CD2       19.8800  -35.9000   11.5910 C.ar  185  PHE185     -0.0042
      9  CE1       18.6560  -36.9940   13.8470 C.ar  185  PHE185     -0.0003
     10  CE2       19.3560  -37.1880   11.5290 C.ar  185  PHE185     -0.0003
     11  CZ        18.7410  -37.7340   12.6680 C.ar  185  PHE185     -0.0000
     12  N         19.2260  -31.4800   21.7680 N.3   218  LEU218     -0.1231
     13  CA        19.5390  -32.2400   20.5840 C.3   218  LEU218      0.1693
     14  C         18.1950  -32.3810   19.9440 C.2   218  LEU218      0.2592
     15  O         17.2540  -32.7110   20.6460 O.2   218  LEU218     -0.2718
     16  CB        20.0550  -33.6190   21.0100 C.3   218  LEU218      0.0284
     17  CG        20.7360  -34.6110   20.0610 C.3   218  LEU218      0.0019
     18  CD1       21.0230  -35.8970   20.8320 C.3   218  LEU218      0.0001
     19  CD2       19.9120  -34.9610   18.7920 C.3   218  LEU218      0.0001
     20  N         18.0580  -32.1160   18.6460 N.am  219  LYS219     -0.1966
     21  CA        16.7190  -32.2070   18.0100 C.3   219  LYS219      0.1728
     22  C         16.6330  -32.7690   16.5740 C.2   219  LYS219      0.2616
     23  O         17.5790  -32.6440   15.7670 O.2   219  LYS219     -0.2715
     24  CB        16.0160  -30.8490   18.0530 C.3   219  LYS219      0.0311
     25  CG        16.7690  -29.7890   17.2760 C.3   219  LYS219      0.0038
     26  CD        15.9480  -28.5740   17.0120 C.3   219  LYS219      0.0206
     27  CE        16.7510  -27.6190   16.2100 C.3   219  LYS219      0.1093
     28  NZ        15.8510  -26.7550   15.4690 N.3   219  LYS219     -0.1314
     29  N         15.4830  -33.3840   16.2760 N.am  220  TYR220     -0.1974
     30  CA        15.0860  -33.7140   14.9060 C.3   220  TYR220      0.1639
     31  C         13.9100  -32.8430   14.4770 C.2   220  TYR220      0.2290
     32  O         12.9290  -32.7340   15.2110 O.2   220  TYR220     -0.2864
     33  CB        14.7580  -35.2080   14.6980 C.3   220  TYR220      0.0560
     34  CG        14.5970  -35.4500   13.2250 C.ar  220  TYR220     -0.0198
     35  CD1       15.6700  -35.2500   12.3530 C.ar  220  TYR220     -0.0009
     36  CD2       13.3650  -35.7610   12.6820 C.ar  220  TYR220     -0.0009
     37  CE1       15.5230  -35.3840   10.9910 C.ar  220  TYR220      0.0417
     38  CE2       13.2040  -35.9080   11.3230 C.ar  220  TYR220      0.0417
     39  CZ        14.2790  -35.7110   10.4770 C.ar  220  TYR220      0.1957
     40  OH        14.1100  -35.8630    9.1140 O.3   220  TYR220     -0.2866
     41  N         11.0650  -33.7050   17.1730 N.3   227  LEU227     -0.1231
     42  CA        11.5770  -34.3800   18.3830 C.3   227  LEU227      0.1693
     43  C         12.7370  -33.5810   19.0020 C.2   227  LEU227      0.2592
     44  O         13.5980  -33.1130   18.2770 O.2   227  LEU227     -0.2718
     45  CB        12.0340  -35.8040   18.0650 C.3   227  LEU227      0.0284
     46  CG        11.1670  -36.7120   17.1790 C.3   227  LEU227      0.0019
     47  CD1       12.0510  -37.7570   16.4130 C.3   227  LEU227      0.0001
     48  CD2       10.0340  -37.3780   17.9720 C.3   227  LEU227      0.0001
     49  N         12.7600  -33.4360   20.3290 N.am  228  ALA228     -0.1966
     50  CA        13.8270  -32.7040   20.9790 C.3   228  ALA228      0.1728
     51  C         13.9450  -33.0450   22.4530 C.2   228  ALA228      0.2616
     52  O         12.9470  -33.3450   23.1230 O.2   228  ALA228     -0.2715
     53  CB        13.6160  -31.2350   20.8070 C.3   228  ALA228      0.0334
     54  N         15.1740  -32.9890   22.9530 N.am  229  ALA229     -0.1977
     55  CA        15.4580  -33.3050   24.3300 C.3   229  ALA229      0.1597
     56  C         16.2520  -32.1480   24.9170 C.2   229  ALA229      0.2287
     57  O         16.9510  -31.4530   24.1820 O.2   229  ALA229     -0.2864
     58  CB        16.2320  -34.6010   24.4180 C.3   229  ALA229      0.0319
     59  N         11.6480  -33.5350   27.4350 N.3   259  LEU259     -0.1231
     60  CA        11.4890  -34.3600   26.2410 C.3   259  LEU259      0.1693
     61  C         10.2040  -33.9590   25.5180 C.2   259  LEU259      0.2592
     62  O          9.1560  -33.8030   26.1440 O.2   259  LEU259     -0.2718
     63  CB        11.4590  -35.8640   26.6090 C.3   259  LEU259      0.0284
     64  CG        12.7160  -36.4070   27.3160 C.3   259  LEU259      0.0019
     65  CD1       12.3900  -37.5940   28.2570 C.3   259  LEU259      0.0001
     66  CD2       13.8250  -36.7590   26.3210 C.3   259  LEU259      0.0001
     67  N         10.2770  -33.8300   24.1930 N.am  260  VAL260     -0.1966
     68  CA         9.1570  -33.3370   23.3550 C.3   260  VAL260      0.1727
     69  C          8.9920  -34.1940   22.0920 C.2   260  VAL260      0.2616
     70  O          9.9880  -34.4970   21.4060 O.2   260  VAL260     -0.2715
     71  CB         9.4050  -31.8180   22.9970 C.3   260  VAL260      0.0290
     72  CG1        8.6340  -31.3360   21.7870 C.3   260  VAL260      0.0023
     73  CG2        9.0660  -30.9870   24.1620 C.3   260  VAL260      0.0023
     74  N          7.7560  -34.5790   21.7710 N.am  261  ALA261     -0.1977
     75  CA         7.4820  -35.2290   20.4630 C.3   261  ALA261      0.1597
     76  C          6.2200  -34.6600   19.8310 C.2   261  ALA261      0.2287
     77  O          5.2210  -34.4690   20.5190 O.2   261  ALA261     -0.2864
     78  CB         7.3980  -36.7570   20.6030 C.3   261  ALA261      0.0319
     79  N          3.0980  -34.7900   22.5650 N.3   273  ILE273     -0.1231
     80  CA         3.2910  -35.4640   23.8460 C.3   273  ILE273      0.1692
     81  C          4.6430  -35.0220   24.3510 C.2   273  ILE273      0.2592
     82  O          5.5540  -34.8190   23.5610 O.2   273  ILE273     -0.2718
     83  CB         3.1800  -37.0200   23.7550 C.3   273  ILE273      0.0266
     84  CG1        4.3900  -37.6300   23.0250 C.3   273  ILE273      0.0019
     85  CG2        1.8550  -37.4030   23.0670 C.3   273  ILE273      0.0020
     86  CD1        4.3930  -39.1340   22.9840 C.3   273  ILE273      0.0001
     87  N          4.7760  -34.8250   25.6480 N.am  274  ALA274     -0.1966
     88  CA         6.0210  -34.3110   26.1550 C.3   274  ALA274      0.1728
     89  C          6.1210  -34.6760   27.6030 C.2   274  ALA274      0.2616
     90  O          5.0910  -34.8410   28.2470 O.2   274  ALA274     -0.2715
     91  CB         6.0580  -32.8090   26.0090 C.3   274  ALA274      0.0334
     92  N          7.3440  -34.7890   28.1150 N.am  275  TYR275     -0.1974
     93  CA         7.5730  -35.0810   29.5100 C.3   275  TYR275      0.1639
     94  C          8.6270  -34.1200   30.0710 C.2   275  TYR275      0.2290
     95  O          9.6310  -33.8480   29.4030 O.2   275  TYR275     -0.2864
     96  CB         8.0040  -36.5330   29.6690 C.3   275  TYR275      0.0560
     97  CG         8.7930  -36.8110   30.9320 C.ar  275  TYR275     -0.0198
     98  CD1        8.1450  -37.2080   32.1080 C.ar  275  TYR275     -0.0009
     99  CD2       10.1920  -36.6740   30.9590 C.ar  275  TYR275     -0.0009
    100  CE1        8.8590  -37.4700   33.2740 C.ar  275  TYR275      0.0417
    101  CE2       10.9120  -36.9360   32.1110 C.ar  275  TYR275      0.0417
    102  CZ        10.2310  -37.3370   33.2630 C.ar  275  TYR275      0.1957
    103  OH        10.9340  -37.6050   34.4080 O.3   275  TYR275     -0.2866
    104  N          3.7470  -35.2790   32.6120 N.3   295  PHE295     -0.1227
    105  CA         3.6730  -35.6940   31.2390 C.3   295  PHE295      0.1736
    106  C          2.6210  -34.8190   30.6140 C.2   295  PHE295      0.2595
    107  O          1.7020  -34.3640   31.2900 O.2   295  PHE295     -0.2718
    108  CB         3.2050  -37.1500   31.1130 C.3   295  PHE295      0.0547
    109  CG         4.1330  -38.1450   31.7080 C.ar  295  PHE295     -0.0202
    110  CD1        3.9720  -38.5540   33.0260 C.ar  295  PHE295     -0.0042
    111  CD2        5.1620  -38.6810   30.9530 C.ar  295  PHE295     -0.0042
    112  CE1        4.8380  -39.4820   33.5900 C.ar  295  PHE295     -0.0003
    113  CE2        6.0320  -39.6000   31.4960 C.ar  295  PHE295     -0.0003
    114  CZ         5.8770  -40.0110   32.8240 C.ar  295  PHE295     -0.0000
    115  N          2.7330  -34.5930   29.3170 N.am  296  GLU296     -0.1979
    116  CA         1.7940  -33.7180   28.6340 C.3   296  GLU296      0.1602
    117  C          1.2390  -34.4280   27.4120 C.2   296  GLU296      0.2287
    118  O          1.9330  -35.2260   26.7630 O.2   296  GLU296     -0.2864
    119  CB         2.4780  -32.3990   28.2460 C.3   296  GLU296      0.0415
    120  CG         1.6450  -31.4670   27.3380 C.3   296  GLU296      0.1163
    121  CD         1.8710  -31.6300   25.7930 C.2   296  GLU296      0.3649
    122  OE1        2.7550  -32.4070   25.3180 O.co2 296  GLU296     -0.2457
    123  OE2        1.1270  -30.9490   25.0470 O.co2 296  GLU296     -0.2457
@<TRIPOS>BOND
     1    40    39    1
     2    39    37   ar
     3    39    38   ar
     4    37    35   ar
     5    38    36   ar
     6    10     8   ar
     7    10    11   ar
     8     8     6   ar
     9     1     2    1
    10    35    34   ar
    11    11     9   ar
    12    36    34   ar
    13     6     5    1
    14     6     7   ar
    15     5     2    1
    16     4     3    2
    17     2     3    1
    18    34    33    1
    19     9     7   ar
    20    31    30    1
    21    31    32    2
    22    33    30    1
    23    30    29    1
    24    28    27    1
    25    23    22    2
    26    27    26    1
    27    29    22   am
    28    47    46    1
    29    22    21    1
    30    26    25    1
    31    41    42    1
    32    46    48    1
    33    46    45    1
    34    25    24    1
    35    21    24    1
    36    21    20    1
    37    45    42    1
    38    44    43    2
    39    42    43    1
    40    20    14   am
    41    19    17    1
    42    43    49   am
    43    76    75    1
    44    76    77    2
    45    14    13    1
    46    14    15    2
    47    17    18    1
    48    17    16    1
    49    49    50    1
    50    75    78    1
    51    75    74    1
    52    13    16    1
    53    13    12    1
    54    53    50    1
    55    50    51    1
    56    70    69    2
    57    74    69   am
    58    72    71    1
    59    69    68    1
    60    51    54   am
    61    51    52    2
    62    79    80    1
    63    54    55    1
    64    86    84    1
    65    71    68    1
    66    71    73    1
    67    84    83    1
    68    85    83    1
    69    68    67    1
    70    82    81    2
    71    83    80    1
    72    80    81    1
    73    57    56    2
    74    67    61   am
    75    55    58    1
    76    55    56    1
    77    81    87   am
    78   123   121   ar
    79   122   121   ar
    80    61    62    2
    81    61    60    1
    82    87    88    1
    83   121   120    1
    84    91    88    1
    85    88    89    1
    86    60    63    1
    87    60    59    1
    88    66    64    1
    89    63    64    1
    90   118   117    2
    91    64    65    1
    92   120   119    1
    93   117   116    1
    94    89    92   am
    95    89    90    2
    96    92    93    1
    97   119   116    1
    98   116   115    1
    99   115   106   am
   100    95    94    2
   101    93    96    1
   102    93    94    1
   103    96    97    1
   104   106   105    1
   105   106   107    2
   106    97    99   ar
   107    97    98   ar
   108   111   113   ar
   109   111   109   ar
   110    99   101   ar
   111   108   105    1
   112   108   109    1
   113   105   104    1
   114   113   114   ar
   115   109   110   ar
   116    98   100   ar
   117   101   102   ar
   118   114   112   ar
   119   110   112   ar
   120   102   100   ar
   121   102   103    1
