@<TRIPOS>MOLECULE
tmp/3poxC06.pdb
 118 115 0 0 0
SMALL
GASTEIGER

@<TRIPOS>ATOM
      1  N        -31.2630  -45.1490  -23.6250 N.3    19  GLY19      -0.1210
      2  CA       -30.8770  -45.0490  -22.2330 C.3    19  GLY19       0.1956
      3  C        -30.4000  -46.4380  -21.8570 C.2    19  GLY19       0.2612
      4  O        -31.1310  -47.4100  -22.0350 O.2    19  GLY19      -0.2717
      5  N        -29.1970  -46.5310  -21.3060 N.am   20  LEU20      -0.1965
      6  CA       -28.5620  -47.8140  -21.1130 C.3    20  LEU20       0.1728
      7  C        -27.6680  -47.7610  -19.8830 C.2    20  LEU20       0.2616
      8  O        -26.8830  -46.8230  -19.7240 O.2    20  LEU20      -0.2715
      9  CB       -27.7180  -48.1410  -22.3620 C.3    20  LEU20       0.0311
     10  CG       -26.9780  -49.4630  -22.4990 C.3    20  LEU20       0.0022
     11  CD1      -27.9430  -50.6550  -22.4090 C.3    20  LEU20       0.0001
     12  CD2      -26.2210  -49.4820  -23.8180 C.3    20  LEU20       0.0001
     13  N        -27.7670  -48.7810  -19.0260 N.am   21  HIS21      -0.1973
     14  CA       -26.8980  -48.8600  -17.8560 C.3    21  HIS21       0.1656
     15  C        -26.3490  -50.2800  -17.6650 C.2    21  HIS21       0.2291
     16  O        -27.0750  -51.2480  -17.8410 O.2    21  HIS21      -0.2864
     17  CB       -27.6690  -48.4130  -16.5990 C.3    21  HIS21       0.0771
     18  CG       -26.7870  -48.1470  -15.4130 C.ar   21  HIS21       0.0820
     19  ND1      -26.3580  -46.8840  -15.0830 N.ar   21  HIS21      -0.2267
     20  CD2      -26.2340  -48.9940  -14.5140 C.ar   21  HIS21       0.1154
     21  CE1      -25.5860  -46.9580  -14.0090 C.ar   21  HIS21       0.1986
     22  NE2      -25.4880  -48.2140  -13.6470 N.ar   21  HIS21      -0.2212
     23  N        -24.3990  -53.0190  -15.0240 N.3    23  PHE23      -0.1241
     24  CA       -24.0830  -53.3540  -13.6310 C.3    23  PHE23       0.1605
     25  C        -23.0810  -54.4980  -13.5910 C.2    23  PHE23       0.2264
     26  O        -23.3290  -55.5430  -14.1810 O.2    23  PHE23      -0.2867
     27  CB       -25.3500  -53.7650  -12.8750 C.3    23  PHE23       0.0534
     28  CG       -26.3990  -52.6930  -12.8310 C.ar   23  PHE23      -0.0203
     29  CD1      -27.3410  -52.5890  -13.8360 C.ar   23  PHE23      -0.0042
     30  CD2      -26.4410  -51.7870  -11.7860 C.ar   23  PHE23      -0.0042
     31  CE1      -28.3040  -51.5990  -13.8030 C.ar   23  PHE23      -0.0003
     32  CE2      -27.4110  -50.7950  -11.7450 C.ar   23  PHE23      -0.0003
     33  CZ       -28.3390  -50.7030  -12.7540 C.ar   23  PHE23      -0.0000
     34  N        -19.0320  -51.1770  -15.9370 N.3    35  ASN35      -0.1240
     35  CA       -20.2360  -50.7650  -15.2200 C.3    35  ASN35       0.1653
     36  C        -20.4530  -49.2580  -15.2990 C.2    35  ASN35       0.2266
     37  O        -19.5170  -48.5010  -15.5710 O.2    35  ASN35      -0.2867
     38  CB       -20.1900  -51.2090  -13.7590 C.3    35  ASN35       0.1155
     39  CG       -19.5590  -50.1730  -12.8680 C.2    35  ASN35       0.2627
     40  OD1      -18.4830  -49.6650  -13.1600 O.2    35  ASN35      -0.2716
     41  ND2      -20.2440  -49.8220  -11.7960 N.am   35  ASN35      -0.0877
     42  N        -42.6320  -59.9960  -26.1770 N.3   269  LEU269     -0.1245
     43  CA       -41.4740  -60.4780  -25.4250 C.3   269  LEU269      0.1561
     44  C        -40.6460  -61.4280  -26.2690 C.2   269  LEU269      0.2260
     45  O        -41.1920  -62.3310  -26.9060 O.2   269  LEU269     -0.2867
     46  CB       -41.9230  -61.1930  -24.1400 C.3   269  LEU269      0.0270
     47  CG       -40.7720  -61.7100  -23.2670 C.3   269  LEU269      0.0019
     48  CD1      -39.9850  -60.5060  -22.7530 C.3   269  LEU269      0.0001
     49  CD2      -41.3140  -62.5420  -22.1050 C.3   269  LEU269      0.0001
     50  N        -33.7160  -60.7310  -22.3410 N.3   299  ALA299     -0.1231
     51  CA       -35.0080  -60.6040  -22.9870 C.3   299  ALA299      0.1694
     52  C        -35.1620  -59.1900  -23.5190 C.2   299  ALA299      0.2593
     53  O        -34.6550  -58.2390  -22.9270 O.2   299  ALA299     -0.2718
     54  CB       -36.1320  -60.9620  -22.0060 C.3   299  ALA299      0.0304
     55  N        -35.8250  -59.0670  -24.6600 N.am  300  THR300     -0.1939
     56  CA       -36.2390  -57.7750  -25.1680 C.3   300  THR300      0.2028
     57  C        -37.7580  -57.7400  -25.1840 C.2   300  THR300      0.2642
     58  O        -38.4150  -58.7020  -25.6080 O.2   300  THR300     -0.2714
     59  CB       -35.7300  -57.5210  -26.5930 C.3   300  THR300      0.1808
     60  OG1      -34.3000  -57.6510  -26.6320 O.3   300  THR300     -0.2208
     61  CG2      -36.1650  -56.1470  -27.0930 C.3   300  THR300      0.0379
     62  N        -38.3280  -56.6510  -24.6990 N.am  301  TYR301     -0.1973
     63  CA       -39.7490  -56.4570  -24.8910 C.3   301  TYR301      0.1639
     64  C        -39.9590  -55.3530  -25.9020 C.2   301  TYR301      0.2290
     65  O        -39.4720  -54.2240  -25.7190 O.2   301  TYR301     -0.2864
     66  CB       -40.4760  -56.1330  -23.5910 C.3   301  TYR301      0.0560
     67  CG       -41.9490  -55.9380  -23.8690 C.ar  301  TYR301     -0.0198
     68  CD1      -42.4990  -54.6800  -23.9560 C.ar  301  TYR301     -0.0009
     69  CD2      -42.7620  -57.0190  -24.1370 C.ar  301  TYR301     -0.0009
     70  CE1      -43.8380  -54.4970  -24.2520 C.ar  301  TYR301      0.0417
     71  CE2      -44.1130  -56.8600  -24.4250 C.ar  301  TYR301      0.0417
     72  CZ       -44.6380  -55.5940  -24.4740 C.ar  301  TYR301      0.1957
     73  OH       -45.9650  -55.4210  -24.7720 O.3   301  TYR301     -0.2866
     74  N        -37.5510  -52.3100  -24.8000 N.3   309  THR309     -0.1203
     75  CA       -36.7710  -52.3200  -23.5840 C.3   309  THR309      0.1994
     76  C        -36.1520  -53.7070  -23.4320 C.2   309  THR309      0.2618
     77  O        -36.6760  -54.6940  -23.9620 O.2   309  THR309     -0.2717
     78  CB       -37.6460  -51.9130  -22.3830 C.3   309  THR309      0.1784
     79  OG1      -36.8240  -51.7110  -21.2350 O.3   309  THR309     -0.2211
     80  CG2      -38.7120  -52.9690  -22.0840 C.3   309  THR309      0.0376
     81  N        -35.0130  -53.7790  -22.7560 N.am  310  TYR310     -0.1961
     82  CA       -34.3180  -55.0490  -22.6270 C.3   310  TYR310      0.1771
     83  C        -33.4440  -55.1900  -21.3910 C.2   310  TYR310      0.2619
     84  O        -33.0110  -54.1990  -20.7800 O.2   310  TYR310     -0.2715
     85  CB       -33.4820  -55.3480  -23.8830 C.3   310  TYR310      0.0574
     86  CG       -32.3670  -54.3730  -24.1780 C.ar  310  TYR310     -0.0198
     87  CD1      -31.1760  -54.3860  -23.4530 C.ar  310  TYR310     -0.0009
     88  CD2      -32.4870  -53.4710  -25.2230 C.ar  310  TYR310     -0.0009
     89  CE1      -30.1340  -53.4890  -23.7590 C.ar  310  TYR310      0.0417
     90  CE2      -31.4740  -52.5910  -25.5420 C.ar  310  TYR310      0.0417
     91  CZ       -30.3000  -52.5980  -24.8140 C.ar  310  TYR310      0.1957
     92  OH       -29.3240  -51.6980  -25.1620 O.3   310  TYR310     -0.2866
     93  N        -33.2250  -56.4450  -21.0100 N.am  311  VAL311     -0.1977
     94  CA       -32.1910  -56.7850  -20.0360 C.3   311  VAL311      0.1596
     95  C        -31.3170  -57.8760  -20.6650 C.2   311  VAL311      0.2287
     96  O        -31.8170  -58.7390  -21.3740 O.2   311  VAL311     -0.2864
     97  CB       -32.8020  -57.2790  -18.7090 C.3   311  VAL311      0.0276
     98  CG1      -33.7640  -58.4130  -18.9750 C.3   311  VAL311      0.0022
     99  CG2      -31.7020  -57.7160  -17.7390 C.3   311  VAL311      0.0022
    100  N        -29.2460  -53.0110  -18.7590 N.3   334  VAL334     -0.1231
    101  CA       -30.6640  -52.6770  -18.8280 C.3   334  VAL334      0.1692
    102  C        -30.8270  -51.4630  -19.7330 C.2   334  VAL334      0.2593
    103  O        -30.1220  -50.4650  -19.5840 O.2   334  VAL334     -0.2718
    104  CB       -31.2500  -52.4300  -17.4170 C.3   334  VAL334      0.0266
    105  CG1      -32.6700  -51.9060  -17.4960 C.3   334  VAL334      0.0020
    106  CG2      -31.2110  -53.7270  -16.6110 C.3   334  VAL334      0.0020
    107  N        -31.7450  -51.5590  -20.6910 N.am  335  GLY335     -0.1942
    108  CA       -31.8410  -50.5690  -21.7450 C.3   335  GLY335      0.2014
    109  C        -33.2710  -50.1820  -22.0700 C.2   335  GLY335      0.2638
    110  O        -34.1960  -50.9950  -21.9330 O.2   335  GLY335     -0.2714
    111  N        -33.4450  -48.9180  -22.4620 N.am  336  ILE336     -0.1977
    112  CA       -34.7080  -48.4360  -23.0110 C.3   336  ILE336      0.1596
    113  C        -34.3970  -47.7020  -24.3190 C.2   336  ILE336      0.2287
    114  O        -33.4910  -46.8580  -24.3690 O.2   336  ILE336     -0.2864
    115  CB       -35.4720  -47.5430  -22.0060 C.3   336  ILE336      0.0276
    116  CG1      -36.7750  -47.0390  -22.6270 C.3   336  ILE336      0.0022
    117  CG2      -34.5960  -46.3770  -21.5240 C.3   336  ILE336      0.0022
    118  CD1      -37.7500  -46.5090  -21.6090 C.3   336  ILE336      0.0001
@<TRIPOS>BOND
     1    61    59    1
     2    45    44    2
     3    60    59    1
     4    59    56    1
     5    44    43    1
     6    42    43    1
     7    64    65    2
     8    64    63    1
     9    58    57    2
    10    90    88   ar
    11    90    91   ar
    12    43    46    1
    13    88    86   ar
    14    57    56    1
    15    57    62   am
    16    56    55    1
    17    92    91    1
    18    63    62    1
    19    63    66    1
    20    91    89   ar
    21    74    75    1
    22    73    72    1
    23    55    52   am
    24    72    71   ar
    25    72    70   ar
    26    71    69   ar
    27   114   113    2
    28   113   112    1
    29    70    68   ar
    30    86    85    1
    31    86    87   ar
    32    46    47    1
    33    69    67   ar
    34    77    76    2
    35    68    67   ar
    36    85    82    1
    37    67    66    1
    38    12    10    1
    39    89    87   ar
    40     1     2    1
    41    75    76    1
    42    75    78    1
    43    52    51    1
    44    52    53    2
    45    76    81   am
    46    47    48    1
    47    47    49    1
    48   112   111    1
    49   112   115    1
    50    51    50    1
    51    51    54    1
    52    81    82    1
    53   116   115    1
    54   116   118    1
    55    82    83    1
    56    10    11    1
    57    10     9    1
    58   111   109   am
    59    78    80    1
    60    78    79    1
    61     9     6    1
    62     2     3    1
    63   109   110    2
    64   109   108    1
    65     4     3    2
    66   115   117    1
    67     3     5   am
    68   108   107    1
    69    83    93   am
    70    83    84    2
    71    96    95    2
    72     5     6    1
    73     6     7    1
    74    93    94    1
    75   107   102   am
    76    95    94    1
    77    94    97    1
    78     7     8    2
    79     7    13   am
    80   102   103    2
    81   102   101    1
    82    13    14    1
    83    98    97    1
    84   101   100    1
    85   101   104    1
    86    97    99    1
    87    14    15    1
    88    14    17    1
    89    16    15    2
    90   105   104    1
    91   104   106    1
    92    17    18    1
    93    34    35    1
    94    37    36    2
    95    18    19   ar
    96    18    20   ar
    97    36    35    1
    98    35    38    1
    99    19    21   ar
   100    23    24    1
   101    20    22   ar
   102    26    25    2
   103    21    22   ar
   104    29    31   ar
   105    29    28   ar
   106    31    33   ar
   107    38    39    1
   108    24    25    1
   109    24    27    1
   110    40    39    2
   111    27    28    1
   112    39    41   am
   113    28    30   ar
   114    33    32   ar
   115    30    32   ar
