@<TRIPOS>MOLECULE
tmp/3poxA01.pdb
 113 108 0 0 0
SMALL
GASTEIGER

@<TRIPOS>ATOM
      1  N        -44.0080   -6.9240  -26.1040 N.3   265  PHE265     -0.1241
      2  CA       -44.9090   -6.0890  -26.8890 C.3   265  PHE265      0.1605
      3  C        -45.4540   -6.8840  -28.0610 C.2   265  PHE265      0.2264
      4  O        -44.8190   -7.8270  -28.5200 O.2   265  PHE265     -0.2867
      5  CB       -44.1750   -4.8550  -27.4070 C.3   265  PHE265      0.0534
      6  CG       -43.7850   -3.8890  -26.3360 C.ar  265  PHE265     -0.0203
      7  CD1      -44.7090   -2.9920  -25.8270 C.ar  265  PHE265     -0.0042
      8  CD2      -42.4880   -3.8590  -25.8500 C.ar  265  PHE265     -0.0042
      9  CE1      -44.3520   -2.0940  -24.8440 C.ar  265  PHE265     -0.0003
     10  CE2      -42.1220   -2.9660  -24.8640 C.ar  265  PHE265     -0.0003
     11  CZ       -43.0500   -2.0780  -24.3610 C.ar  265  PHE265     -0.0000
     12  N        -41.0290   -6.8500  -29.7640 N.3   269  LEU269     -0.1245
     13  CA       -39.9220   -6.4320  -28.9120 C.3   269  LEU269      0.1561
     14  C        -40.1080   -6.9320  -27.4780 C.2   269  LEU269      0.2260
     15  O        -41.1620   -6.7120  -26.8560 O.2   269  LEU269     -0.2867
     16  CB       -39.7880   -4.9070  -28.9160 C.3   269  LEU269      0.0270
     17  CG       -38.7300   -4.3700  -27.9520 C.3   269  LEU269      0.0019
     18  CD1      -37.3490   -4.8070  -28.4140 C.3   269  LEU269      0.0001
     19  CD2      -38.7910   -2.8590  -27.8400 C.3   269  LEU269      0.0001
     20  N        -38.2010   -6.4740  -24.0790 N.3   271  PRO271     -0.2102
     21  CA       -37.1730   -5.9520  -23.1720 C.3   271  PRO271      0.1504
     22  C        -37.0340   -6.8320  -21.9310 C.2   271  PRO271      0.2576
     23  O        -37.9990   -7.4700  -21.5200 O.2   271  PRO271     -0.2718
     24  CB       -37.7010   -4.5610  -22.8040 C.3   271  PRO271      0.0282
     25  CG       -39.1660   -4.6060  -23.0970 C.3   271  PRO271      0.0208
     26  CD       -39.3220   -5.5350  -24.2570 C.3   271  PRO271      0.0893
     27  N        -35.8340   -6.8780  -21.3580 N.am  272  SER272     -0.1938
     28  CA       -35.5420   -7.7790  -20.2480 C.3   272  SER272      0.2055
     29  C        -34.6600   -7.0860  -19.2050 C.2   272  SER272      0.2642
     30  O        -33.6880   -6.4170  -19.5570 O.2   272  SER272     -0.2714
     31  CB       -34.8430   -9.0470  -20.7780 C.3   272  SER272      0.2130
     32  OG       -34.3320   -9.8500  -19.7210 O.3   272  SER272     -0.2179
     33  N        -35.0100   -7.2380  -17.9280 N.am  273  ILE273     -0.1977
     34  CA       -34.1300   -6.8120  -16.8420 C.3   273  ILE273      0.1596
     35  C        -34.0380   -7.9270  -15.8050 C.2   273  ILE273      0.2287
     36  O        -34.9710   -8.7050  -15.6250 O.2   273  ILE273     -0.2864
     37  CB       -34.6000   -5.5050  -16.1770 C.3   273  ILE273      0.0276
     38  CG1      -35.9930   -5.6750  -15.5740 C.3   273  ILE273      0.0022
     39  CG2      -34.5960   -4.3530  -17.1810 C.3   273  ILE273      0.0022
     40  CD1      -36.4790   -4.4370  -14.8710 C.3   273  ILE273      0.0001
     41  N        -29.5140   -5.8800  -18.4440 N.3   297  VAL297     -0.1231
     42  CA       -30.4640   -5.1820  -19.2820 C.3   297  VAL297      0.1692
     43  C        -30.2650   -5.7380  -20.6890 C.2   297  VAL297      0.2593
     44  O        -29.1320   -5.9120  -21.1450 O.2   297  VAL297     -0.2718
     45  CB       -30.2330   -3.6610  -19.2660 C.3   297  VAL297      0.0266
     46  CG1      -31.3300   -2.9580  -20.0360 C.3   297  VAL297      0.0020
     47  CG2      -30.2050   -3.1520  -17.8450 C.3   297  VAL297      0.0020
     48  N        -31.3640   -6.0530  -21.3600 N.am  298  GLY298     -0.1942
     49  CA       -31.3040   -6.6360  -22.6850 C.3   298  GLY298      0.2014
     50  C        -32.6550   -6.5800  -23.3770 C.2   298  GLY298      0.2638
     51  O        -33.6300   -6.0670  -22.8250 O.2   298  GLY298     -0.2714
     52  N        -32.6950   -7.0840  -24.6050 N.am  299  ALA299     -0.1977
     53  CA       -33.9380   -7.1950  -25.3460 C.3   299  ALA299      0.1597
     54  C        -33.7520   -8.1510  -26.5060 C.2   299  ALA299      0.2287
     55  O        -32.6590   -8.2640  -27.0680 O.2   299  ALA299     -0.2864
     56  CB       -34.3860   -5.8300  -25.8690 C.3   299  ALA299      0.0319
     57  N        -29.7890   -8.2380  -27.9490 N.3   311  VAL311     -0.1245
     58  CA       -28.6590   -7.6440  -27.2640 C.3   311  VAL311      0.1561
     59  C        -28.8290   -7.9630  -25.7750 C.2   311  VAL311      0.2260
     60  O        -29.9370   -7.9170  -25.2550 O.2   311  VAL311     -0.2867
     61  CB       -28.6190   -6.1210  -27.4710 C.3   311  VAL311      0.0252
     62  CG1      -29.9390   -5.4800  -26.9990 C.3   311  VAL311      0.0019
     63  CG2      -27.4570   -5.5390  -26.7200 C.3   311  VAL311      0.0019
     64  N        -26.8920   -6.9620  -22.1430 N.3   313  TYR313     -0.1241
     65  CA       -25.8300   -6.2310  -21.4630 C.3   313  TYR313      0.1605
     66  C        -25.7550   -6.5810  -19.9840 C.2   313  TYR313      0.2264
     67  O        -26.7190   -6.3810  -19.2280 O.2   313  TYR313     -0.2867
     68  CB       -25.9790   -4.7130  -21.6280 C.3   313  TYR313      0.0534
     69  CG       -24.7380   -3.9430  -21.2060 C.ar  313  TYR313     -0.0201
     70  CD1      -24.2940   -3.9610  -19.8890 C.ar  313  TYR313     -0.0009
     71  CD2      -24.0010   -3.2110  -22.1360 C.ar  313  TYR313     -0.0009
     72  CE1      -23.1460   -3.2670  -19.5020 C.ar  313  TYR313      0.0417
     73  CE2      -22.8560   -2.5100  -21.7650 C.ar  313  TYR313      0.0417
     74  CZ       -22.4360   -2.5360  -20.4430 C.ar  313  TYR313      0.1957
     75  OH       -21.2960   -1.8450  -20.0720 O.3   313  TYR313     -0.2866
     76  N        -24.1890   -5.6780  -16.5280 N.3   315  ILE315     -0.1231
     77  CA       -23.5550   -4.6570  -15.7030 C.3   315  ILE315      0.1692
     78  C        -22.9590   -5.3400  -14.4800 C.2   315  ILE315      0.2592
     79  O        -23.6470   -5.5570  -13.4800 O.2   315  ILE315     -0.2718
     80  CB       -24.5850   -3.5820  -15.2600 C.3   315  ILE315      0.0266
     81  CG1      -25.3550   -3.0530  -16.4700 C.3   315  ILE315      0.0019
     82  CG2      -23.8900   -2.4560  -14.5280 C.3   315  ILE315      0.0020
     83  CD1      -26.6590   -2.3880  -16.1280 C.3   315  ILE315      0.0001
     84  N        -21.6780   -5.6790  -14.5780 N.am  316  ASN316     -0.1974
     85  CA       -21.0360   -6.6170  -13.6680 C.3   316  ASN316      0.1688
     86  C        -20.6680   -5.9480  -12.3470 C.2   316  ASN316      0.2292
     87  O        -19.9380   -4.9530  -12.3460 O.2   316  ASN316     -0.2864
     88  CB       -19.7870   -7.2080  -14.3460 C.3   316  ASN316      0.1181
     89  CG       -19.2150   -8.3720  -13.5770 C.2   316  ASN316      0.2629
     90  OD1      -19.6420   -8.6410  -12.4680 O.2   316  ASN316     -0.2716
     91  ND2      -18.2430   -9.0730  -14.1670 N.am  316  ASN316     -0.0877
     92  N        -14.2800   -8.9510  -13.3100 N.3   328  SER328     -0.1202
     93  CA       -15.0650   -7.8330  -12.8160 C.3   328  SER328      0.2020
     94  C        -15.6080   -6.9050  -13.9090 C.2   328  SER328      0.2619
     95  O        -16.4100   -6.0350  -13.6170 O.2   328  SER328     -0.2717
     96  CB       -14.2440   -7.0450  -11.7950 C.3   328  SER328      0.2103
     97  OG       -12.9950   -6.6710  -12.3490 O.3   328  SER328     -0.2182
     98  N        -15.1890   -7.1010  -15.1610 N.am  329  ASP329     -0.1959
     99  CA       -15.6100   -6.2290  -16.2690 C.3   329  ASP329      0.1840
    100  C        -16.9920   -6.5960  -16.8310 C.2   329  ASP329      0.2622
    101  O        -17.4200   -7.7480  -16.7480 O.2   329  ASP329     -0.2715
    102  CB       -14.5730   -6.2580  -17.4130 C.3   329  ASP329      0.1450
    103  CG       -13.2420   -5.5950  -17.0330 C.2   329  ASP329      0.3671
    104  OD1      -13.2530   -4.6290  -16.2380 O.co2 329  ASP329     -0.2456
    105  OD2      -12.1800   -6.0480  -17.5260 O.co2 329  ASP329     -0.2456
    106  N        -17.6720   -5.6160  -17.4150 N.am  330  ASP330     -0.1971
    107  CA       -18.9400   -5.8470  -18.1090 C.3   330  ASP330      0.1709
    108  C        -18.7770   -6.7180  -19.3610 C.2   330  ASP330      0.2293
    109  O        -17.6630   -6.9010  -19.8570 O.2   330  ASP330     -0.2864
    110  CB       -19.5800   -4.5120  -18.5190 C.3   330  ASP330      0.1436
    111  CG       -19.9840   -3.6600  -17.3220 C.2   330  ASP330      0.3671
    112  OD1      -19.8430   -4.1330  -16.1790 O.co2 330  ASP330     -0.2456
    113  OD2      -20.4600   -2.5280  -17.5240 O.co2 330  ASP330     -0.2456
@<TRIPOS>BOND
     1    12    13    1
     2    16    13    1
     3    16    17    1
     4    13    14    1
     5     4     3    2
     6    18    17    1
     7     3     2    1
     8    17    19    1
     9    57    58    1
    10    14    15    2
    11    61    58    1
    12    61    62    1
    13    61    63    1
    14     5     2    1
    15     5     6    1
    16    58    59    1
    17    55    54    2
    18     2     1    1
    19    54    53    1
    20     6     8   ar
    21     6     7   ar
    22    56    53    1
    23     8    10   ar
    24     7     9   ar
    25    59    60    2
    26    53    52    1
    27    10    11   ar
    28     9    11   ar
    29    52    50   am
    30    26    20    1
    31    26    25    1
    32    20    21    1
    33    50    51    2
    34    50    49    1
    35    21    24    1
    36    21    22    1
    37    25    24    1
    38    49    48    1
    39    64    65    1
    40    71    73   ar
    41    71    69   ar
    42    22    23    2
    43    22    27   am
    44    73    74   ar
    45    68    65    1
    46    68    69    1
    47    65    66    1
    48    48    43   am
    49    27    28    1
    50    69    70   ar
    51    44    43    2
    52    31    28    1
    53    31    32    1
    54    43    42    1
    55    74    75    1
    56    74    72   ar
    57    28    29    1
    58    46    45    1
    59    66    67    2
    60    70    72   ar
    61   109   108    2
    62    30    29    2
    63   108   107    1
    64    42    45    1
    65    42    41    1
    66    45    47    1
    67    29    33   am
    68   110   107    1
    69   110   111    1
    70   107   106    1
    71    33    34    1
    72   105   103   ar
    73   113   111   ar
    74   106   100   am
    75   102   103    1
    76   102    99    1
    77   111   112   ar
    78    39    37    1
    79   103   104   ar
    80    34    37    1
    81    34    35    1
    82   100   101    2
    83   100    99    1
    84    76    77    1
    85    81    83    1
    86    81    80    1
    87    99    98    1
    88    37    38    1
    89    35    36    2
    90    77    80    1
    91    77    78    1
    92    38    40    1
    93    80    82    1
    94    98    94   am
    95    84    78   am
    96    84    85    1
    97    78    79    2
    98    88    85    1
    99    88    89    1
   100    91    89   am
   101    94    95    2
   102    94    93    1
   103    85    86    1
   104    89    90    2
   105    92    93    1
   106    93    96    1
   107    97    96    1
   108    86    87    2
