@<TRIPOS>MOLECULE
tmp/3poxF02.pdb
 83 82 0 0 0
SMALL
GASTEIGER

@<TRIPOS>ATOM
      1  N         19.2300  -49.4570   32.1990 N.3   153  PHE153     -0.1227
      2  CA        18.0940  -49.0830   31.3650 C.3   153  PHE153      0.1736
      3  C         18.2950  -49.5200   29.9140 C.2   153  PHE153      0.2595
      4  O         19.4110  -49.8020   29.4950 O.2   153  PHE153     -0.2718
      5  CB        17.7990  -47.5860   31.4610 C.3   153  PHE153      0.0547
      6  CG        18.8080  -46.7070   30.7710 C.ar  153  PHE153     -0.0202
      7  CD1       19.9230  -46.2400   31.4500 C.ar  153  PHE153     -0.0042
      8  CD2       18.6130  -46.3070   29.4580 C.ar  153  PHE153     -0.0042
      9  CE1       20.8290  -45.4110   30.8320 C.ar  153  PHE153     -0.0003
     10  CE2       19.5200  -45.4770   28.8300 C.ar  153  PHE153     -0.0003
     11  CZ        20.6310  -45.0270   29.5180 C.ar  153  PHE153     -0.0000
     12  N         17.2060  -49.5850   29.1600 N.am  154  ALA154     -0.1966
     13  CA        17.2600  -50.0500   27.7840 C.3   154  ALA154      0.1728
     14  C         16.2360  -49.3250   26.9370 C.2   154  ALA154      0.2616
     15  O         15.1880  -48.9010   27.4350 O.2   154  ALA154     -0.2715
     16  CB        17.0240  -51.5500   27.7210 C.3   154  ALA154      0.0334
     17  N         16.5660  -49.1650   25.6590 N.am  155  VAL155     -0.1977
     18  CA        15.6730  -48.5790   24.6730 C.3   155  VAL155      0.1596
     19  C         15.6910  -49.4810   23.4390 C.2   155  VAL155      0.2287
     20  O         16.7520  -49.9300   22.9950 O.2   155  VAL155     -0.2864
     21  CB        16.1130  -47.1500   24.2800 C.3   155  VAL155      0.0276
     22  CG1       15.1470  -46.5450   23.2480 C.3   155  VAL155      0.0022
     23  CG2       16.2050  -46.2690   25.5140 C.3   155  VAL155      0.0022
     24  N         10.9590  -49.2140   26.1470 N.3   176  GLY176     -0.1210
     25  CA        12.0810  -48.9760   27.0320 C.3   176  GLY176      0.1956
     26  C         11.8990  -49.6670   28.3670 C.2   176  GLY176      0.2613
     27  O         10.7980  -50.1150   28.6930 O.2   176  GLY176     -0.2717
     28  N         12.9790  -49.7580   29.1370 N.am  177  SER177     -0.1938
     29  CA        12.9140  -50.3240   30.4770 C.3   177  SER177      0.2055
     30  C         13.9460  -49.6690   31.3940 C.2   177  SER177      0.2642
     31  O         14.9520  -49.1200   30.9330 O.2   177  SER177     -0.2714
     32  CB        13.1500  -51.8400   30.4390 C.3   177  SER177      0.2130
     33  OG        14.5330  -52.1410   30.2590 O.3   177  SER177     -0.2179
     34  N         13.6810  -49.7330   32.6940 N.am  178  ILE178     -0.1977
     35  CA        14.6330  -49.3020   33.7070 C.3   178  ILE178      0.1596
     36  C         14.5150  -50.2270   34.9110 C.2   178  ILE178      0.2287
     37  O         13.4190  -50.6730   35.2680 O.2   178  ILE178     -0.2864
     38  CB        14.3860  -47.8440   34.1480 C.3   178  ILE178      0.0276
     39  CG1       14.4700  -46.9000   32.9520 C.3   178  ILE178      0.0022
     40  CG2       15.4000  -47.4140   35.1910 C.3   178  ILE178      0.0022
     41  CD1       14.1950  -45.4460   33.3060 C.3   178  ILE178      0.0001
     42  N         10.6910  -51.6090   35.7950 N.3   189  GLY189     -0.1210
     43  CA         9.5180  -51.2210   35.0300 C.3   189  GLY189      0.1956
     44  C          9.8750  -51.2520   33.5510 C.2   189  GLY189      0.2612
     45  O         11.0220  -51.0060   33.1870 O.2   189  GLY189     -0.2717
     46  N          8.9090  -51.5770   32.6970 N.am  190  ALA190     -0.1965
     47  CA         9.1650  -51.6220   31.2620 C.3   190  ALA190      0.1728
     48  C          7.9060  -51.3560   30.4570 C.2   190  ALA190      0.2616
     49  O          6.8360  -51.8870   30.7720 O.2   190  ALA190     -0.2715
     50  CB         9.7770  -52.9640   30.8650 C.3   190  ALA190      0.0334
     51  N          8.0470  -50.5520   29.4030 N.am  191  TYR191     -0.1974
     52  CA         6.9140  -50.1420   28.5830 C.3   191  TYR191      0.1639
     53  C          7.2280  -50.1520   27.0830 C.2   191  TYR191      0.2290
     54  O          8.2790  -49.6830   26.6590 O.2   191  TYR191     -0.2864
     55  CB         6.4500  -48.7330   28.9860 C.3   191  TYR191      0.0560
     56  CG         5.2880  -48.2360   28.1470 C.ar  191  TYR191     -0.0198
     57  CD1        3.9740  -48.3850   28.5830 C.ar  191  TYR191     -0.0009
     58  CD2        5.5020  -47.6350   26.9140 C.ar  191  TYR191     -0.0009
     59  CE1        2.9070  -47.9490   27.8120 C.ar  191  TYR191      0.0417
     60  CE2        4.4390  -47.1960   26.1370 C.ar  191  TYR191      0.0417
     61  CZ         3.1460  -47.3570   26.5920 C.ar  191  TYR191      0.1957
     62  OH         2.0850  -46.9180   25.8240 O.3   191  TYR191     -0.2866
     63  N          2.9140  -53.1820   29.2470 N.3   214  TRP214     -0.1241
     64  CA         3.8230  -52.7820   30.3060 C.3   214  TRP214      0.1605
     65  C          3.7210  -53.7340   31.4870 C.2   214  TRP214      0.2264
     66  O          2.7200  -54.4310   31.6610 O.2   214  TRP214     -0.2867
     67  CB         3.5950  -51.3320   30.7250 C.3   214  TRP214      0.0550
     68  CG         2.2650  -51.0550   31.3550 C.ar  214  TRP214      0.0003
     69  CD1        1.1350  -50.6340   30.7250 C.ar  214  TRP214      0.0946
     70  CD2        1.9400  -51.1580   32.7430 C.ar  214  TRP214      0.0152
     71  NE1        0.1160  -50.4770   31.6340 N.ar  214  TRP214     -0.2442
     72  CE2        0.5860  -50.7880   32.8820 C.ar  214  TRP214      0.0810
     73  CE3        2.6580  -51.5320   33.8840 C.ar  214  TRP214      0.0012
     74  CZ2       -0.0680  -50.7840   34.1180 C.ar  214  TRP214      0.0191
     75  CZ3        2.0100  -51.5240   35.1120 C.ar  214  TRP214      0.0001
     76  CH2        0.6590  -51.1510   35.2180 C.ar  214  TRP214      0.0015
     77  N          5.6770  -54.4710   35.6380 N.3   216  THR216     -0.1218
     78  CA         6.5620  -54.0130   36.6950 C.3   216  THR216      0.1862
     79  C          6.9590  -55.2260   37.5020 C.2   216  THR216      0.2287
     80  O          6.3000  -56.2480   37.4310 O.2   216  THR216     -0.2866
     81  CB         5.8620  -53.0000   37.6210 C.3   216  THR216      0.1770
     82  OG1        4.5790  -53.5120   38.0050 O.3   216  THR216     -0.2211
     83  CG2        5.6640  -51.6850   36.9070 C.3   216  THR216      0.0375
@<TRIPOS>BOND
     1    20    19    2
     2    22    21    1
     3    19    18    1
     4    21    18    1
     5    21    23    1
     6    18    17    1
     7    17    14   am
     8    62    61    1
     9    60    61   ar
    10    60    58   ar
    11    24    25    1
    12    61    59   ar
    13    54    53    2
    14    58    56   ar
    15    14    15    2
    16    14    13    1
    17    25    26    1
    18    53    52    1
    19    16    13    1
    20    13    12    1
    21    59    57   ar
    22    56    57   ar
    23    56    55    1
    24    26    27    2
    25    26    28   am
    26    52    55    1
    27    52    51    1
    28    10     8   ar
    29    10    11   ar
    30    28    29    1
    31    12     3   am
    32    63    64    1
    33    51    48   am
    34     8     6   ar
    35     4     3    2
    36    11     9   ar
    37     3     2    1
    38    33    32    1
    39    64    67    1
    40    64    65    1
    41    32    29    1
    42    48    49    2
    43    48    47    1
    44    29    30    1
    45    67    68    1
    46    69    68   ar
    47    69    71   ar
    48     6     7   ar
    49     6     5    1
    50     9     7   ar
    51    50    47    1
    52    31    30    2
    53    47    46    1
    54    68    70   ar
    55     2     5    1
    56     2     1    1
    57    30    34   am
    58    65    66    2
    59    71    72   ar
    60    34    35    1
    61    46    44   am
    62    70    72   ar
    63    70    73   ar
    64    72    74   ar
    65    39    41    1
    66    39    38    1
    67    45    44    2
    68    44    43    1
    69    35    38    1
    70    35    36    1
    71    73    75   ar
    72    74    76   ar
    73    38    40    1
    74    36    37    2
    75    43    42    1
    76    75    76   ar
    77    77    78    1
    78    78    79    1
    79    78    81    1
    80    83    81    1
    81    80    79    2
    82    81    82    1
