@<TRIPOS>MOLECULE
tmp/3poxA04.pdb
 136 132 0 0 0
SMALL
GASTEIGER

@<TRIPOS>ATOM
      1  N        -53.0990  -20.7500  -14.2220 N.3   183  GLU183     -0.1245
      2  CA       -53.5300  -19.4590  -14.7560 C.3   183  GLU183      0.1567
      3  C        -52.4150  -18.4200  -14.6750 C.2   183  GLU183      0.2260
      4  O        -52.6470  -17.2950  -14.2460 O.2   183  GLU183     -0.2867
      5  CB       -54.7470  -18.9560  -13.9780 C.3   183  GLU183      0.0388
      6  CG       -55.9410  -19.9110  -13.9660 C.3   183  GLU183      0.1160
      7  CD       -56.6920  -19.9300  -15.2900 C.2   183  GLU183      0.3649
      8  OE1      -56.8540  -21.0270  -15.8670 O.co2 183  GLU183     -0.2457
      9  OE2      -57.1270  -18.8490  -15.7510 O.co2 183  GLU183     -0.2457
     10  N        -49.7520  -18.3160  -12.6880 N.3   185  PHE185     -0.1241
     11  CA       -49.0140  -18.3220  -11.4240 C.3   185  PHE185      0.1605
     12  C        -48.2140  -19.6110  -11.2800 C.2   185  PHE185      0.2264
     13  O        -48.6800  -20.6880  -11.6540 O.2   185  PHE185     -0.2867
     14  CB       -49.9950  -18.1490  -10.2570 C.3   185  PHE185      0.0534
     15  CG       -49.4100  -18.4390   -8.8940 C.ar  185  PHE185     -0.0203
     16  CD1      -48.3260  -17.7090   -8.4030 C.ar  185  PHE185     -0.0042
     17  CD2      -49.9790  -19.4150   -8.0750 C.ar  185  PHE185     -0.0042
     18  CE1      -47.8060  -17.9640   -7.1200 C.ar  185  PHE185     -0.0003
     19  CE2      -49.4680  -19.6810   -6.7950 C.ar  185  PHE185     -0.0003
     20  CZ       -48.3780  -18.9550   -6.3210 C.ar  185  PHE185     -0.0000
     21  N        -40.8300  -18.6140   -7.7570 N.3   218  LEU218     -0.1231
     22  CA       -42.1400  -18.0260   -7.9460 C.3   218  LEU218      0.1693
     23  C        -42.1170  -17.3470   -9.2860 C.2   218  LEU218      0.2592
     24  O        -41.1130  -16.7770   -9.6540 O.2   218  LEU218     -0.2718
     25  CB       -42.4050  -16.9340   -6.9070 C.3   218  LEU218      0.0284
     26  CG       -42.5070  -17.3390   -5.4420 C.3   218  LEU218      0.0019
     27  CD1      -42.5470  -16.1000   -4.5610 C.3   218  LEU218      0.0001
     28  CD2      -43.7400  -18.1780   -5.2580 C.3   218  LEU218      0.0001
     29  N        -43.2370  -17.3730   -9.9930 N.am  219  LYS219     -0.1966
     30  CA       -43.3230  -16.6760  -11.2540 C.3   219  LYS219      0.1728
     31  C        -44.7520  -16.2730  -11.5560 C.2   219  LYS219      0.2616
     32  O        -45.6950  -16.8550  -11.0260 O.2   219  LYS219     -0.2715
     33  CB       -42.8170  -17.5700  -12.3820 C.3   219  LYS219      0.0311
     34  CG       -43.7460  -18.7120  -12.7410 C.3   219  LYS219      0.0038
     35  CD       -43.1330  -19.5450  -13.9060 C.3   219  LYS219      0.0206
     36  CE       -44.1300  -20.5610  -14.4530 C.3   219  LYS219      0.1093
     37  NZ       -43.4650  -21.6260  -15.2420 N.3   219  LYS219     -0.1314
     38  N        -44.8790  -15.2580  -12.4040 N.am  220  TYR220     -0.1974
     39  CA       -46.1210  -14.9590  -13.0960 C.3   220  TYR220      0.1639
     40  C        -45.7920  -14.9140  -14.5800 C.2   220  TYR220      0.2290
     41  O        -44.8880  -14.1860  -14.9920 O.2   220  TYR220     -0.2864
     42  CB       -46.7050  -13.6140  -12.6680 C.3   220  TYR220      0.0560
     43  CG       -48.0030  -13.3280  -13.3870 C.ar  220  TYR220     -0.0198
     44  CD1      -49.1210  -14.1100  -13.1460 C.ar  220  TYR220     -0.0009
     45  CD2      -48.1010  -12.3110  -14.3320 C.ar  220  TYR220     -0.0009
     46  CE1      -50.3130  -13.8830  -13.7970 C.ar  220  TYR220      0.0417
     47  CE2      -49.2970  -12.0770  -14.9970 C.ar  220  TYR220      0.0417
     48  CZ       -50.4030  -12.8730  -14.7110 C.ar  220  TYR220      0.1957
     49  OH       -51.6040  -12.6800  -15.3410 O.3   220  TYR220     -0.2866
     50  N        -47.9450  -14.7010  -17.9560 N.3   222  ALA222     -0.1231
     51  CA       -49.2300  -14.5390  -18.6310 C.3   222  ALA222      0.1694
     52  C        -49.3780  -13.0930  -19.0570 C.2   222  ALA222      0.2592
     53  O        -48.6940  -12.2150  -18.5250 O.2   222  ALA222     -0.2718
     54  CB       -50.3950  -14.9370  -17.6930 C.3   222  ALA222      0.0304
     55  N        -50.2660  -12.8450  -20.0190 N.am  223  ASN223     -0.1974
     56  CA       -50.5850  -11.4790  -20.4350 C.3   223  ASN223      0.1688
     57  C        -49.3730  -10.6560  -20.8650 C.2   223  ASN223      0.2292
     58  O        -49.2620   -9.4790  -20.5160 O.2   223  ASN223     -0.2864
     59  CB       -51.3390  -10.7550  -19.3190 C.3   223  ASN223      0.1181
     60  CG       -52.7160  -11.3320  -19.0920 C.2   223  ASN223      0.2629
     61  OD1      -53.0110  -11.8930  -18.0260 O.2   223  ASN223     -0.2716
     62  ND2      -53.5740  -11.2080  -20.1040 N.am  223  ASN223     -0.0877
     63  N        -42.5300  -12.3960  -14.8300 N.3   227  LEU227     -0.1231
     64  CA       -41.8100  -12.0500  -13.6040 C.3   227  LEU227      0.1693
     65  C        -41.4330  -13.3230  -12.8710 C.2   227  LEU227      0.2592
     66  O        -42.2450  -14.2550  -12.7290 O.2   227  LEU227     -0.2718
     67  CB       -42.6800  -11.2010  -12.6750 C.3   227  LEU227      0.0284
     68  CG       -43.3310   -9.9500  -13.2580 C.3   227  LEU227      0.0019
     69  CD1      -44.4900   -9.5130  -12.3710 C.3   227  LEU227      0.0001
     70  CD2      -42.3020   -8.8260  -13.4120 C.3   227  LEU227      0.0001
     71  N        -40.2120  -13.3690  -12.3630 N.am  228  ALA228     -0.1966
     72  CA       -39.8020  -14.5820  -11.6730 C.3   228  ALA228      0.1728
     73  C        -38.6800  -14.3580  -10.6740 C.2   228  ALA228      0.2616
     74  O        -37.8420  -13.4860  -10.8440 O.2   228  ALA228     -0.2715
     75  CB       -39.4220  -15.6630  -12.6940 C.3   228  ALA228      0.0334
     76  N        -38.6880  -15.1440   -9.6110 N.am  229  ALA229     -0.1977
     77  CA       -37.6110  -15.0810   -8.6370 C.3   229  ALA229      0.1597
     78  C        -37.2380  -16.4910   -8.2220 C.2   229  ALA229      0.2287
     79  O        -38.0880  -17.3810   -8.1840 O.2   229  ALA229     -0.2864
     80  CB       -38.0410  -14.2540   -7.4130 C.3   229  ALA229      0.0319
     81  N        -33.4740  -12.8630  -10.1050 N.3   259  LEU259     -0.1231
     82  CA       -34.6880  -12.1010  -10.3750 C.3   259  LEU259      0.1693
     83  C        -34.7480  -11.7570  -11.8510 C.2   259  LEU259      0.2592
     84  O        -33.7400  -11.3810  -12.4410 O.2   259  LEU259     -0.2718
     85  CB       -34.7180  -10.7910   -9.5810 C.3   259  LEU259      0.0284
     86  CG       -34.5150  -10.8730   -8.0680 C.3   259  LEU259      0.0019
     87  CD1      -34.5660   -9.4740   -7.4470 C.3   259  LEU259      0.0001
     88  CD2      -35.5510  -11.7960   -7.4260 C.3   259  LEU259      0.0001
     89  N        -35.9350  -11.8630  -12.4390 N.am  260  VAL260     -0.1966
     90  CA       -36.1100  -11.5160  -13.8420 C.3   260  VAL260      0.1727
     91  C        -37.4610  -10.8760  -14.0580 C.2   260  VAL260      0.2616
     92  O        -38.4420  -11.2330  -13.4090 O.2   260  VAL260     -0.2715
     93  CB       -35.9260  -12.7250  -14.8120 C.3   260  VAL260      0.0290
     94  CG1      -34.6130  -13.4100  -14.5520 C.3   260  VAL260      0.0023
     95  CG2      -37.0340  -13.7260  -14.6620 C.3   260  VAL260      0.0023
     96  N        -37.4900   -9.8980  -14.9560 N.am  261  ALA261     -0.1977
     97  CA       -38.7220   -9.2170  -15.3230 C.3   261  ALA261      0.1597
     98  C        -38.6680   -8.9340  -16.8060 C.2   261  ALA261      0.2287
     99  O        -37.7170   -8.3020  -17.2980 O.2   261  ALA261     -0.2864
    100  CB       -38.8840   -7.9140  -14.5330 C.3   261  ALA261      0.0319
    101  N        -35.0100   -7.2380  -17.9280 N.3   273  ILE273     -0.1231
    102  CA       -34.1300   -6.8120  -16.8420 C.3   273  ILE273      0.1692
    103  C        -34.0380   -7.9270  -15.8050 C.2   273  ILE273      0.2592
    104  O        -34.9710   -8.7050  -15.6250 O.2   273  ILE273     -0.2718
    105  CB       -34.6000   -5.5050  -16.1770 C.3   273  ILE273      0.0266
    106  CG1      -35.9930   -5.6750  -15.5740 C.3   273  ILE273      0.0019
    107  CG2      -34.5960   -4.3530  -17.1810 C.3   273  ILE273      0.0020
    108  CD1      -36.4790   -4.4370  -14.8710 C.3   273  ILE273      0.0001
    109  N        -32.9110   -8.0070  -15.1200 N.am  274  ALA274     -0.1966
    110  CA       -32.6680   -9.1320  -14.2310 C.3   274  ALA274      0.1728
    111  C        -31.5980   -8.7820  -13.2370 C.2   274  ALA274      0.2616
    112  O        -30.7800   -7.8780  -13.4690 O.2   274  ALA274     -0.2715
    113  CB       -32.2260  -10.3660  -15.0260 C.3   274  ALA274      0.0334
    114  N        -31.5990   -9.5310  -12.1410 N.am  275  TYR275     -0.1974
    115  CA       -30.5730   -9.4390  -11.1200 C.3   275  TYR275      0.1639
    116  C        -30.1420  -10.8350  -10.7070 C.2   275  TYR275      0.2290
    117  O        -30.9680  -11.7320  -10.5260 O.2   275  TYR275     -0.2864
    118  CB       -31.1290   -8.6930   -9.9000 C.3   275  TYR275      0.0560
    119  CG       -30.2380   -8.7540   -8.6870 C.ar  275  TYR275     -0.0198
    120  CD1      -29.1300   -7.9280   -8.5710 C.ar  275  TYR275     -0.0009
    121  CD2      -30.5150   -9.6300   -7.6450 C.ar  275  TYR275     -0.0009
    122  CE1      -28.3110   -7.9790   -7.4520 C.ar  275  TYR275      0.0417
    123  CE2      -29.6990   -9.6860   -6.5200 C.ar  275  TYR275      0.0417
    124  CZ       -28.6050   -8.8550   -6.4300 C.ar  275  TYR275      0.1957
    125  OH       -27.8010   -8.9190   -5.3030 O.3   275  TYR275     -0.2866
    126  N        -26.4130   -6.9220  -12.6360 N.3   295  PHE295     -0.1241
    127  CA       -27.7030   -6.5540  -13.1750 C.3   295  PHE295      0.1605
    128  C        -27.6490   -6.7400  -14.6690 C.2   295  PHE295      0.2264
    129  O        -26.6300   -6.4840  -15.2890 O.2   295  PHE295     -0.2867
    130  CB       -28.0200   -5.0980  -12.8570 C.3   295  PHE295      0.0534
    131  CG       -28.2420   -4.8430  -11.3990 C.ar  295  PHE295     -0.0203
    132  CD1      -27.2120   -4.3670  -10.6010 C.ar  295  PHE295     -0.0042
    133  CD2      -29.4710   -5.0990  -10.8220 C.ar  295  PHE295     -0.0042
    134  CE1      -27.4130   -4.1440   -9.2530 C.ar  295  PHE295     -0.0003
    135  CE2      -29.6800   -4.8700   -9.4750 C.ar  295  PHE295     -0.0003
    136  CZ       -28.6450   -4.3910   -8.6890 C.ar  295  PHE295     -0.0000
@<TRIPOS>BOND
     1    57    58    2
     2    57    56    1
     3    56    55    1
     4    56    59    1
     5    62    60   am
     6    55    52   am
     7    59    60    1
     8    60    61    2
     9    52    51    1
    10    52    53    2
    11    51    50    1
    12    51    54    1
    13   101   102    1
    14    99    98    2
    15   107   105    1
    16   102   105    1
    17   102   103    1
    18    98    97    1
    19   105   106    1
    20     8     7   ar
    21   103   104    2
    22   103   109   am
    23     9     7   ar
    24   106   108    1
    25    49    48    1
    26    97    96    1
    27    97   100    1
    28     7     6    1
    29   129   128    2
    30    37    36    1
    31   109   110    1
    32   113   110    1
    33    47    48   ar
    34    47    45   ar
    35    41    40    2
    36    96    91   am
    37    63    64    1
    38    93    95    1
    39    93    94    1
    40    93    90    1
    41     2     3    1
    42     2     1    1
    43     2     5    1
    44    48    46   ar
    45     3     4    2
    46   128   127    1
    47    40    39    1
    48    36    35    1
    49    45    43   ar
    50   110   111    1
    51    91    90    1
    52    91    92    2
    53     5     6    1
    54    35    34    1
    55    90    89    1
    56    46    44   ar
    57    64    65    1
    58    64    67    1
    59   112   111    2
    60    70    68    1
    61    43    44   ar
    62    43    42    1
    63    68    67    1
    64    68    69    1
    65   111   114   am
    66   127   130    1
    67   127   126    1
    68    39    42    1
    69    39    38    1
    70    65    66    2
    71    65    71   am
    72   130   131    1
    73    34    33    1
    74    75    72    1
    75    10    11    1
    76    84    83    2
    77    89    83   am
    78    38    31   am
    79    33    30    1
    80    71    72    1
    81   114   115    1
    82    83    82    1
    83    72    73    1
    84    13    12    2
    85    31    30    1
    86    31    32    2
    87    11    12    1
    88    11    14    1
    89   131   133   ar
    90   131   132   ar
    91    30    29    1
    92   115   116    1
    93   115   118    1
    94    74    73    2
    95   133   135   ar
    96   116   117    2
    97    73    76   am
    98   132   134   ar
    99    82    81    1
   100    82    85    1
   101    14    15    1
   102    29    23   am
   103   118   119    1
   104    24    23    2
   105    76    77    1
   106    85    86    1
   107   135   136   ar
   108    23    22    1
   109   134   136   ar
   110    15    16   ar
   111    15    17   ar
   112   119   120   ar
   113   119   121   ar
   114    77    78    1
   115    77    80    1
   116   120   122   ar
   117    16    18   ar
   118    78    79    2
   119    17    19   ar
   120    86    87    1
   121    86    88    1
   122    22    21    1
   123    22    25    1
   124   121   123   ar
   125   122   124   ar
   126    18    20   ar
   127    25    26    1
   128    19    20   ar
   129   123   124   ar
   130   124   125    1
   131    26    28    1
   132    26    27    1
