@<TRIPOS>MOLECULE
tmp/3poxA12.pdb
 95 90 0 0 0
SMALL
GASTEIGER

@<TRIPOS>ATOM
      1  N        -18.6860   -8.5530  -26.5690 N.3    23  PHE23      -0.1227
      2  CA       -17.8090   -7.3930  -26.4510 C.3    23  PHE23       0.1736
      3  C        -17.4930   -7.1200  -24.9850 C.2    23  PHE23       0.2596
      4  O        -18.4020   -6.8990  -24.1870 O.2    23  PHE23      -0.2718
      5  CB       -18.4320   -6.1260  -27.0780 C.3    23  PHE23       0.0547
      6  CG       -18.8090   -6.2570  -28.5380 C.ar   23  PHE23      -0.0202
      7  CD1      -20.0610   -6.7320  -28.9050 C.ar   23  PHE23      -0.0042
      8  CD2      -17.9310   -5.8540  -29.5420 C.ar   23  PHE23      -0.0042
      9  CE1      -20.4260   -6.8350  -30.2440 C.ar   23  PHE23      -0.0003
     10  CE2      -18.2840   -5.9490  -30.8900 C.ar   23  PHE23      -0.0003
     11  CZ       -19.5320   -6.4400  -31.2430 C.ar   23  PHE23      -0.0000
     12  N        -16.2060   -7.1270  -24.6410 N.am   24  SER24      -0.1938
     13  CA       -15.7470   -6.7730  -23.2980 C.3    24  SER24       0.2055
     14  C        -14.3880   -6.0840  -23.3990 C.2    24  SER24       0.2642
     15  O        -13.6480   -6.3110  -24.3600 O.2    24  SER24      -0.2714
     16  CB       -15.6070   -8.0230  -22.4340 C.3    24  SER24       0.2130
     17  OG       -16.8320   -8.7280  -22.3700 O.3    24  SER24      -0.2179
     18  N        -14.0360   -5.2660  -22.4120 N.am   25  LYS25      -0.1977
     19  CA       -12.7700   -4.5370  -22.5050 C.3    25  LYS25       0.1596
     20  C        -11.5420   -5.4440  -22.6170 C.2    25  LYS25       0.2287
     21  O        -11.5520   -6.6050  -22.2080 O.2    25  LYS25      -0.2864
     22  CB       -12.6060   -3.5200  -21.3730 C.3    25  LYS25       0.0298
     23  CG       -12.4800   -4.1240  -20.0150 C.3    25  LYS25       0.0038
     24  CD       -12.3540   -3.0270  -18.9650 C.3    25  LYS25       0.0206
     25  CE       -11.0980   -2.2070  -19.1870 C.3    25  LYS25       0.1093
     26  NZ       -10.9140   -1.1810  -18.1130 N.3    25  LYS25      -0.1314
     27  N        -41.0290   -6.8500  -29.7640 N.3   269  LEU269     -0.1245
     28  CA       -39.9220   -6.4320  -28.9120 C.3   269  LEU269      0.1561
     29  C        -40.1080   -6.9320  -27.4780 C.2   269  LEU269      0.2260
     30  O        -41.1620   -6.7120  -26.8560 O.2   269  LEU269     -0.2867
     31  CB       -39.7880   -4.9070  -28.9160 C.3   269  LEU269      0.0270
     32  CG       -38.7300   -4.3700  -27.9520 C.3   269  LEU269      0.0019
     33  CD1      -37.3490   -4.8070  -28.4140 C.3   269  LEU269      0.0001
     34  CD2      -38.7910   -2.8590  -27.8400 C.3   269  LEU269      0.0001
     35  N        -32.6950   -7.0840  -24.6050 N.3   299  ALA299     -0.1245
     36  CA       -33.9380   -7.1950  -25.3460 C.3   299  ALA299      0.1562
     37  C        -33.7520   -8.1510  -26.5060 C.2   299  ALA299      0.2260
     38  O        -32.6590   -8.2640  -27.0680 O.2   299  ALA299     -0.2867
     39  CB       -34.3860   -5.8300  -25.8690 C.3   299  ALA299      0.0290
     40  N        -29.7890   -8.2380  -27.9490 N.3   311  VAL311     -0.1245
     41  CA       -28.6590   -7.6440  -27.2640 C.3   311  VAL311      0.1561
     42  C        -28.8290   -7.9630  -25.7750 C.2   311  VAL311      0.2260
     43  O        -29.9370   -7.9170  -25.2550 O.2   311  VAL311     -0.2867
     44  CB       -28.6190   -6.1210  -27.4710 C.3   311  VAL311      0.0252
     45  CG1      -29.9390   -5.4800  -26.9990 C.3   311  VAL311      0.0019
     46  CG2      -27.4570   -5.5390  -26.7200 C.3   311  VAL311      0.0019
     47  N        -26.8920   -6.9620  -22.1430 N.3   313  TYR313     -0.1241
     48  CA       -25.8300   -6.2310  -21.4630 C.3   313  TYR313      0.1605
     49  C        -25.7550   -6.5810  -19.9840 C.2   313  TYR313      0.2264
     50  O        -26.7190   -6.3810  -19.2280 O.2   313  TYR313     -0.2867
     51  CB       -25.9790   -4.7130  -21.6280 C.3   313  TYR313      0.0534
     52  CG       -24.7380   -3.9430  -21.2060 C.ar  313  TYR313     -0.0201
     53  CD1      -24.2940   -3.9610  -19.8890 C.ar  313  TYR313     -0.0009
     54  CD2      -24.0010   -3.2110  -22.1360 C.ar  313  TYR313     -0.0009
     55  CE1      -23.1460   -3.2670  -19.5020 C.ar  313  TYR313      0.0417
     56  CE2      -22.8560   -2.5100  -21.7650 C.ar  313  TYR313      0.0417
     57  CZ       -22.4360   -2.5360  -20.4430 C.ar  313  TYR313      0.1957
     58  OH       -21.2960   -1.8450  -20.0720 O.3   313  TYR313     -0.2866
     59  N        -15.1890   -7.1010  -15.1610 N.3   329  ASP329     -0.1225
     60  CA       -15.6100   -6.2290  -16.2690 C.3   329  ASP329      0.1805
     61  C        -16.9920   -6.5960  -16.8310 C.2   329  ASP329      0.2598
     62  O        -17.4200   -7.7480  -16.7480 O.2   329  ASP329     -0.2718
     63  CB       -14.5730   -6.2580  -17.4130 C.3   329  ASP329      0.1424
     64  CG       -13.2420   -5.5950  -17.0330 C.2   329  ASP329      0.3668
     65  OD1      -13.2530   -4.6290  -16.2380 O.co2 329  ASP329     -0.2456
     66  OD2      -12.1800   -6.0480  -17.5260 O.co2 329  ASP329     -0.2456
     67  N        -17.6720   -5.6160  -17.4150 N.am  330  ASP330     -0.1960
     68  CA       -18.9400   -5.8470  -18.1090 C.3   330  ASP330      0.1840
     69  C        -18.7770   -6.7180  -19.3610 C.2   330  ASP330      0.2623
     70  O        -17.6630   -6.9010  -19.8570 O.2   330  ASP330     -0.2715
     71  CB       -19.5800   -4.5120  -18.5190 C.3   330  ASP330      0.1450
     72  CG       -19.9840   -3.6600  -17.3220 C.2   330  ASP330      0.3671
     73  OD1      -19.8430   -4.1330  -16.1790 O.co2 330  ASP330     -0.2456
     74  OD2      -20.4600   -2.5280  -17.5240 O.co2 330  ASP330     -0.2456
     75  N        -19.8940   -7.2540  -19.8560 N.am  331  THR331     -0.1937
     76  CA       -19.9370   -7.9460  -21.1510 C.3   331  THR331      0.2028
     77  C        -21.2690   -7.6620  -21.8600 C.2   331  THR331      0.2642
     78  O        -22.3310   -7.6780  -21.2350 O.2   331  THR331     -0.2714
     79  CB       -19.7490   -9.4930  -21.0010 C.3   331  THR331      0.1808
     80  OG1      -18.4590   -9.7760  -20.4450 O.3   331  THR331     -0.2208
     81  CG2      -19.8400  -10.1990  -22.3540 C.3   331  THR331      0.0379
     82  N        -21.2180   -7.3890  -23.1570 N.am  332  VAL332     -0.1977
     83  CA       -22.4400   -7.2670  -23.9360 C.3   332  VAL332      0.1596
     84  C        -22.3930   -8.2420  -25.1030 C.2   332  VAL332      0.2287
     85  O        -21.3940   -8.3100  -25.8190 O.2   332  VAL332     -0.2864
     86  CB       -22.6970   -5.8210  -24.4350 C.3   332  VAL332      0.0276
     87  CG1      -21.4910   -5.2670  -25.1760 C.3   332  VAL332      0.0022
     88  CG2      -23.9290   -5.7840  -25.3340 C.3   332  VAL332      0.0022
     89  N        -24.3400   -9.6790  -28.6870 N.3   334  VAL334     -0.1245
     90  CA       -25.2750   -9.3690  -29.7590 C.3   334  VAL334      0.1561
     91  C        -25.4070  -10.5990  -30.6410 C.2   334  VAL334      0.2260
     92  O        -24.4100  -11.2100  -31.0500 O.2   334  VAL334     -0.2867
     93  CB       -24.8330   -8.1160  -30.5630 C.3   334  VAL334      0.0252
     94  CG1      -25.6640   -7.9630  -31.8070 C.3   334  VAL334      0.0019
     95  CG2      -24.9590   -6.8740  -29.7030 C.3   334  VAL334      0.0019
@<TRIPOS>BOND
     1    94    93    1
     2    11    10   ar
     3    11     9   ar
     4    92    91    2
     5    10     8   ar
     6    91    90    1
     7    93    90    1
     8    93    95    1
     9     9     7   ar
    10    27    28    1
    11    90    89    1
    12     8     6   ar
    13    31    28    1
    14    31    32    1
    15    28    29    1
    16     7     6   ar
    17     6     5    1
    18    33    32    1
    19    32    34    1
    20    40    41    1
    21    29    30    2
    22    44    41    1
    23    44    45    1
    24    44    46    1
    25    41    42    1
    26     5     2    1
    27    38    37    2
    28     1     2    1
    29    37    36    1
    30     2     3    1
    31    39    36    1
    32    85    84    2
    33    42    43    2
    34    36    35    1
    35    88    86    1
    36    87    86    1
    37    84    83    1
    38     3    12   am
    39     3     4    2
    40    12    13    1
    41    86    83    1
    42    15    14    2
    43    83    82    1
    44    14    13    1
    45    14    18   am
    46    13    16    1
    47    82    77   am
    48    20    19    1
    49    20    21    2
    50    19    18    1
    51    19    22    1
    52    16    17    1
    53    81    79    1
    54    47    48    1
    55    54    56   ar
    56    54    52   ar
    57    77    78    2
    58    77    76    1
    59    56    57   ar
    60    51    48    1
    61    51    52    1
    62    48    49    1
    63    22    23    1
    64    52    53   ar
    65    76    79    1
    66    76    75    1
    67    79    80    1
    68    57    58    1
    69    57    55   ar
    70    23    24    1
    71    49    50    2
    72    53    55   ar
    73    70    69    2
    74    75    69   am
    75    69    68    1
    76    25    24    1
    77    25    26    1
    78    71    68    1
    79    71    72    1
    80    68    67    1
    81    66    64   ar
    82    74    72   ar
    83    67    61   am
    84    63    64    1
    85    63    60    1
    86    72    73   ar
    87    64    65   ar
    88    61    62    2
    89    61    60    1
    90    60    59    1
