@<TRIPOS>MOLECULE
tmp/3poxC00.pdb
 94 90 0 0 0
SMALL
GASTEIGER

@<TRIPOS>ATOM
      1  N        -42.4460  -63.8600  -28.9140 N.3   265  PHE265     -0.1241
      2  CA       -43.8680  -63.9720  -28.6090 C.3   265  PHE265      0.1605
      3  C        -44.6020  -62.9090  -29.4080 C.2   265  PHE265      0.2264
      4  O        -44.1020  -61.8060  -29.5540 O.2   265  PHE265     -0.2867
      5  CB       -44.1390  -63.7620  -27.1150 C.3   265  PHE265      0.0534
      6  CG       -43.7850  -64.9490  -26.2340 C.ar  265  PHE265     -0.0203
      7  CD1      -44.7420  -65.8990  -25.9080 C.ar  265  PHE265     -0.0042
      8  CD2      -42.5100  -65.0780  -25.6920 C.ar  265  PHE265     -0.0042
      9  CE1      -44.4300  -66.9780  -25.0830 C.ar  265  PHE265     -0.0003
     10  CE2      -42.1890  -66.1500  -24.8630 C.ar  265  PHE265     -0.0003
     11  CZ       -43.1570  -67.1070  -24.5590 C.ar  265  PHE265     -0.0000
     12  N        -42.6320  -59.9960  -26.1770 N.3   269  LEU269     -0.1245
     13  CA       -41.4740  -60.4780  -25.4250 C.3   269  LEU269      0.1561
     14  C        -40.6460  -61.4280  -26.2690 C.2   269  LEU269      0.2260
     15  O        -41.1920  -62.3310  -26.9060 O.2   269  LEU269     -0.2867
     16  CB       -41.9230  -61.1930  -24.1400 C.3   269  LEU269      0.0270
     17  CG       -40.7720  -61.7100  -23.2670 C.3   269  LEU269      0.0019
     18  CD1      -39.9850  -60.5060  -22.7530 C.3   269  LEU269      0.0001
     19  CD2      -41.3140  -62.5420  -22.1050 C.3   269  LEU269      0.0001
     20  N        -37.4790  -63.6510  -25.3860 N.3   271  PRO271     -0.2116
     21  CA       -36.3690  -64.1500  -24.5670 C.3   271  PRO271      0.1372
     22  C        -35.2080  -64.6700  -25.4360 C.2   271  PRO271      0.2244
     23  O        -35.4100  -65.0930  -26.5720 O.2   271  PRO271     -0.2868
     24  CB       -37.0010  -65.2880  -23.7610 C.3   271  PRO271      0.0268
     25  CG       -38.1910  -65.7190  -24.5810 C.3   271  PRO271      0.0207
     26  CD       -38.6960  -64.4770  -25.2640 C.3   271  PRO271      0.0892
     27  N        -31.2420  -66.8090  -25.1420 N.3   273  ILE273     -0.1245
     28  CA       -30.1280  -67.4560  -24.4460 C.3   273  ILE273      0.1561
     29  C        -29.0160  -67.6880  -25.4730 C.2   273  ILE273      0.2260
     30  O        -29.2780  -67.8150  -26.6820 O.2   273  ILE273     -0.2867
     31  CB       -30.5200  -68.7930  -23.7390 C.3   273  ILE273      0.0252
     32  CG1      -31.0330  -69.8130  -24.7550 C.3   273  ILE273      0.0019
     33  CG2      -31.5600  -68.5520  -22.6280 C.3   273  ILE273      0.0019
     34  CD1      -31.4390  -71.1710  -24.1390 C.3   273  ILE273      0.0001
     35  N        -22.1060  -67.5430  -20.9950 N.3   295  PHE295     -0.1227
     36  CA       -23.4800  -67.8780  -21.3080 C.3   295  PHE295      0.1736
     37  C        -24.2940  -66.6020  -21.1360 C.2   295  PHE295      0.2595
     38  O        -23.9470  -65.7370  -20.3430 O.2   295  PHE295     -0.2718
     39  CB       -24.0110  -68.9590  -20.3380 C.3   295  PHE295      0.0547
     40  CG       -23.4000  -70.3270  -20.5440 C.ar  295  PHE295     -0.0202
     41  CD1      -22.2380  -70.6960  -19.8780 C.ar  295  PHE295     -0.0042
     42  CD2      -23.9970  -71.2480  -21.4000 C.ar  295  PHE295     -0.0042
     43  CE1      -21.6720  -71.9630  -20.0670 C.ar  295  PHE295     -0.0003
     44  CE2      -23.4400  -72.5090  -21.5960 C.ar  295  PHE295     -0.0003
     45  CZ       -22.2820  -72.8680  -20.9250 C.ar  295  PHE295     -0.0000
     46  N        -25.3980  -66.4910  -21.8550 N.am  296  GLU296     -0.1965
     47  CA       -26.2140  -65.2980  -21.7720 C.3   296  GLU296      0.1733
     48  C        -27.6720  -65.6600  -21.5770 C.2   296  GLU296      0.2616
     49  O        -28.1790  -66.6090  -22.1790 O.2   296  GLU296     -0.2715
     50  CB       -26.0660  -64.4620  -23.0480 C.3   296  GLU296      0.0429
     51  CG       -26.9490  -63.2260  -23.0690 C.3   296  GLU296      0.1163
     52  CD       -28.2360  -63.4140  -23.8870 C.2   296  GLU296      0.3649
     53  OE1      -28.4300  -64.4970  -24.4710 O.co2 296  GLU296     -0.2457
     54  OE2      -29.0530  -62.4690  -23.9540 O.co2 296  GLU296     -0.2457
     55  N        -28.3390  -64.9060  -20.7150 N.am  297  VAL297     -0.1977
     56  CA       -29.7830  -64.9880  -20.6000 C.3   297  VAL297      0.1596
     57  C        -30.2870  -63.5620  -20.6090 C.2   297  VAL297      0.2287
     58  O        -29.7750  -62.7220  -19.8840 O.2   297  VAL297     -0.2864
     59  CB       -30.2140  -65.6880  -19.2940 C.3   297  VAL297      0.0276
     60  CG1      -31.7250  -65.8030  -19.2290 C.3   297  VAL297      0.0022
     61  CG2      -29.5560  -67.0750  -19.1900 C.3   297  VAL297      0.0022
     62  N        -23.3010  -64.1970  -18.0690 N.3   315  ILE315     -0.1231
     63  CA       -22.7450  -65.0550  -17.0260 C.3   315  ILE315      0.1692
     64  C        -21.3450  -65.5110  -17.4620 C.2   315  ILE315      0.2592
     65  O        -21.1900  -66.4540  -18.2310 O.2   315  ILE315     -0.2718
     66  CB       -23.6650  -66.2750  -16.7670 C.3   315  ILE315      0.0266
     67  CG1      -25.0930  -65.7940  -16.4910 C.3   315  ILE315      0.0019
     68  CG2      -23.1310  -67.0760  -15.6010 C.3   315  ILE315      0.0020
     69  CD1      -26.1760  -66.5300  -17.2540 C.3   315  ILE315      0.0001
     70  N        -20.3340  -64.8010  -16.9710 N.am  316  ASN316     -0.1960
     71  CA       -18.9750  -64.8820  -17.4990 C.3   316  ASN316      0.1819
     72  C        -18.2120  -66.0910  -16.9610 C.2   316  ASN316      0.2621
     73  O        -18.0770  -66.2410  -15.7570 O.2   316  ASN316     -0.2715
     74  CB       -18.2430  -63.5840  -17.1380 C.3   316  ASN316      0.1195
     75  CG       -16.9760  -63.3590  -17.9480 C.2   316  ASN316      0.2630
     76  OD1      -16.5150  -64.2290  -18.6930 O.2   316  ASN316     -0.2716
     77  ND2      -16.3950  -62.1740  -17.7830 N.am  316  ASN316     -0.0877
     78  N        -17.7200  -66.9470  -17.8510 N.am  317  GLN317     -0.1977
     79  CA       -16.9960  -68.1530  -17.4500 C.3   317  GLN317      0.1601
     80  C        -15.4710  -67.9700  -17.4770 C.2   317  GLN317      0.2287
     81  O        -14.7220  -68.8720  -17.1060 O.2   317  GLN317     -0.2864
     82  CB       -17.3880  -69.3310  -18.3570 C.3   317  GLN317      0.0394
     83  CG       -18.8860  -69.5840  -18.4480 C.3   317  GLN317      0.0908
     84  CD       -19.4730  -70.0120  -17.1230 C.2   317  GLN317      0.2608
     85  OE1      -19.0320  -70.9930  -16.5230 O.2   317  GLN317     -0.2717
     86  NE2      -20.4590  -69.2620  -16.6420 N.am  317  GLN317     -0.0878
     87  N        -19.2080  -61.0790  -14.1210 N.3   330  ASP330     -0.1239
     88  CA       -20.4240  -60.8930  -14.9180 C.3   330  ASP330      0.1674
     89  C        -20.6980  -59.4140  -15.2280 C.2   330  ASP330      0.2266
     90  O        -20.1370  -58.5150  -14.6160 O.2   330  ASP330     -0.2867
     91  CB       -21.6600  -61.4500  -14.1990 C.3   330  ASP330      0.1410
     92  CG       -21.4860  -62.8940  -13.7310 C.2   330  ASP330      0.3668
     93  OD1      -20.6550  -63.6430  -14.2990 O.co2 330  ASP330     -0.2456
     94  OD2      -22.1920  -63.2700  -12.7820 O.co2 330  ASP330     -0.2456
@<TRIPOS>BOND
     1     4     3    2
     2     3     2    1
     3     1     2    1
     4     2     5    1
     5     5     6    1
     6    15    14    2
     7    30    29    2
     8    23    22    2
     9    14    13    1
    10     6     7   ar
    11     6     8   ar
    12    12    13    1
    13     7     9   ar
    14     8    10   ar
    15    29    28    1
    16    22    21    1
    17    13    16    1
    18    20    26    1
    19    20    21    1
    20    26    25    1
    21    27    28    1
    22     9    11   ar
    23    10    11   ar
    24    32    34    1
    25    32    31    1
    26    25    24    1
    27    21    24    1
    28    53    52   ar
    29    28    31    1
    30    16    17    1
    31    54    52   ar
    32    52    51    1
    33    31    33    1
    34    17    18    1
    35    17    19    1
    36    51    50    1
    37    50    47    1
    38    49    48    2
    39    46    47    1
    40    46    37   am
    41    47    48    1
    42    44    42   ar
    43    44    45   ar
    44    48    55   am
    45    42    40   ar
    46    36    37    1
    47    36    35    1
    48    36    39    1
    49    37    38    2
    50    45    43   ar
    51    55    56    1
    52    57    56    1
    53    57    58    2
    54    56    59    1
    55    40    39    1
    56    40    41   ar
    57    43    41   ar
    58    59    60    1
    59    59    61    1
    60    76    75    2
    61    83    82    1
    62    83    84    1
    63    82    79    1
    64    65    64    2
    65    62    63    1
    66    75    77   am
    67    75    74    1
    68    78    79    1
    69    78    72   am
    70    71    74    1
    71    71    70    1
    72    71    72    1
    73    80    79    1
    74    80    81    2
    75    64    63    1
    76    64    70   am
    77    69    67    1
    78    84    86   am
    79    84    85    2
    80    63    66    1
    81    72    73    2
    82    66    67    1
    83    66    68    1
    84    89    88    1
    85    89    90    2
    86    88    91    1
    87    88    87    1
    88    93    92   ar
    89    91    92    1
    90    92    94   ar
