@<TRIPOS>MOLECULE
tmp/3poxF08.pdb
 93 91 0 0 0
SMALL
GASTEIGER

@<TRIPOS>ATOM
      1  N         39.0510  -53.7150   20.9000 N.3    52  ASN52      -0.1240
      2  CA        40.0960  -53.0480   21.6670 C.3    52  ASN52       0.1653
      3  C         39.7580  -53.0760   23.1530 C.2    52  ASN52       0.2266
      4  O         38.8690  -53.8200   23.5690 O.2    52  ASN52      -0.2867
      5  CB        40.3740  -51.6260   21.1490 C.3    52  ASN52       0.1155
      6  CG        39.1150  -50.7870   20.9990 C.2    52  ASN52       0.2627
      7  OD1       38.2710  -50.7430   21.8880 O.2    52  ASN52      -0.2716
      8  ND2       38.9890  -50.1140   19.8620 N.am   52  ASN52      -0.0877
      9  N         38.1770  -51.0980   25.0520 N.3    54  ASP54      -0.1225
     10  CA        36.8430  -50.6330   25.4170 C.3    54  ASP54       0.1805
     11  C         35.7240  -51.2410   24.5550 C.2    54  ASP54       0.2597
     12  O         34.5560  -51.1780   24.9080 O.2    54  ASP54      -0.2718
     13  CB        36.7740  -49.1040   25.3240 C.3    54  ASP54       0.1424
     14  CG        37.8930  -48.4110   26.0910 C.2    54  ASP54       0.3668
     15  OD1       38.3310  -48.9450   27.1350 O.co2  54  ASP54      -0.2456
     16  OD2       38.3330  -47.3270   25.6440 O.co2  54  ASP54      -0.2456
     17  N         36.0780  -51.8140   23.4150 N.am   55  LEU55      -0.1979
     18  CA        35.0700  -52.1990   22.4370 C.3    55  LEU55       0.1596
     19  C         35.0300  -53.7050   22.2460 C.2    55  LEU55       0.2287
     20  O         36.0660  -54.3440   22.0860 O.2    55  LEU55      -0.2864
     21  CB        35.3330  -51.4980   21.1040 C.3    55  LEU55       0.0297
     22  CG        34.3260  -51.7650   19.9920 C.3    55  LEU55       0.0022
     23  CD1       32.9430  -51.2800   20.3930 C.3    55  LEU55       0.0001
     24  CD2       34.7890  -51.0860   18.7070 C.3    55  LEU55       0.0001
     25  N         27.6410  -54.7820   19.3350 N.3    88  LEU88      -0.1231
     26  CA        28.8690  -54.1750   19.8210 C.3    88  LEU88       0.1693
     27  C         28.5760  -53.5550   21.1850 C.2    88  LEU88       0.2592
     28  O         27.4780  -53.0450   21.4320 O.2    88  LEU88      -0.2718
     29  CB        29.3120  -53.0610   18.8720 C.3    88  LEU88       0.0284
     30  CG        29.6680  -53.4760   17.4510 C.3    88  LEU88       0.0019
     31  CD1       29.7300  -52.2580   16.5230 C.3    88  LEU88       0.0001
     32  CD2       30.9790  -54.2420   17.4560 C.3    88  LEU88       0.0001
     33  N         29.5560  -53.5950   22.0730 N.am   89  LYS89      -0.1966
     34  CA        29.4170  -52.8990   23.3390 C.3    89  LYS89       0.1728
     35  C         30.6440  -52.0290   23.5940 C.2    89  LYS89       0.2616
     36  O         31.7870  -52.4720   23.4390 O.2    89  LYS89      -0.2715
     37  CB        29.1770  -53.8880   24.4810 C.3    89  LYS89       0.0311
     38  CG        30.3740  -54.7460   24.8200 C.3    89  LYS89       0.0038
     39  CD        29.9710  -55.9550   25.6510 C.3    89  LYS89       0.0206
     40  CE        29.2290  -55.5440   26.9100 C.3    89  LYS89       0.1093
     41  NZ        28.8750  -56.7440   27.7230 N.3    89  LYS89      -0.1314
     42  N         30.3940  -50.7790   23.9600 N.am   90  TYR90      -0.1974
     43  CA        31.4610  -49.8180   24.1910 C.3    90  TYR90       0.1639
     44  C         31.5750  -49.4850   25.6720 C.2    90  TYR90       0.2290
     45  O         30.6270  -48.9930   26.2680 O.2    90  TYR90      -0.2864
     46  CB        31.2080  -48.5330   23.3940 C.3    90  TYR90       0.0560
     47  CG        32.4120  -47.6230   23.2900 C.ar   90  TYR90      -0.0198
     48  CD1       33.6610  -48.0430   23.7280 C.ar   90  TYR90      -0.0009
     49  CD2       32.3030  -46.3470   22.7530 C.ar   90  TYR90      -0.0009
     50  CE1       34.7680  -47.2240   23.6380 C.ar   90  TYR90       0.0417
     51  CE2       33.4140  -45.5120   22.6580 C.ar   90  TYR90       0.0417
     52  CZ        34.6430  -45.9640   23.1050 C.ar   90  TYR90       0.1957
     53  OH        35.7550  -45.1580   23.0220 O.3    90  TYR90      -0.2866
     54  N         29.5110  -46.7180   27.5410 N.3    93  VAL93      -0.1231
     55  CA        28.5760  -45.9960   26.6930 C.3    93  VAL93       0.1692
     56  C         27.3380  -46.8460   26.3830 C.2    93  VAL93       0.2593
     57  O         26.2690  -46.3230   26.0790 O.2    93  VAL93      -0.2718
     58  CB        29.2570  -45.5400   25.3830 C.3    93  VAL93       0.0266
     59  CG1       28.3410  -44.6240   24.5860 C.3    93  VAL93       0.0020
     60  CG2       30.5670  -44.8290   25.6930 C.3    93  VAL93       0.0020
     61  N         27.4850  -48.1620   26.4620 N.am   94  GLY94      -0.1942
     62  CA        26.3620  -49.0570   26.2490 C.3    94  GLY94       0.2014
     63  C         26.6010  -50.1000   25.1720 C.2    94  GLY94       0.2640
     64  O         27.6750  -50.1520   24.5840 O.2    94  GLY94      -0.2714
     65  N         25.5910  -50.9340   24.9270 N.am   95  SER95      -0.1935
     66  CA        25.6720  -51.9920   23.9250 C.3    95  SER95       0.2055
     67  C         24.5810  -51.7830   22.9010 C.2    95  SER95       0.2643
     68  O         23.5390  -51.1960   23.1980 O.2    95  SER95      -0.2714
     69  CB        25.4990  -53.3720   24.5730 C.3    95  SER95       0.2130
     70  OG        24.1630  -53.5600   25.0280 O.3    95  SER95      -0.2179
     71  N         24.8210  -52.2450   21.6810 N.am   96  PHE96      -0.1973
     72  CA        23.7920  -52.1880   20.6550 C.3    96  PHE96       0.1639
     73  C         23.8200  -53.4630   19.8340 C.2    96  PHE96       0.2290
     74  O         24.8680  -53.8510   19.3080 O.2    96  PHE96      -0.2864
     75  CB        23.9820  -50.9770   19.7360 C.3    96  PHE96       0.0560
     76  CG        23.0980  -51.0050   18.5250 C.ar   96  PHE96      -0.0200
     77  CD1       21.8520  -50.4060   18.5500 C.ar   96  PHE96      -0.0042
     78  CD2       23.4980  -51.6630   17.3700 C.ar   96  PHE96      -0.0042
     79  CE1       21.0200  -50.4440   17.4360 C.ar   96  PHE96      -0.0003
     80  CE2       22.6690  -51.7100   16.2590 C.ar   96  PHE96      -0.0003
     81  CZ        21.4280  -51.0940   16.2950 C.ar   96  PHE96      -0.0000
     82  N         19.2660  -50.9250   22.4190 N.3   139  TYR139     -0.1241
     83  CA        20.3250  -50.2470   23.1590 C.3   139  TYR139      0.1605
     84  C         20.1920  -50.5480   24.6420 C.2   139  TYR139      0.2264
     85  O         19.1240  -50.3300   25.2250 O.2   139  TYR139     -0.2867
     86  CB        20.2670  -48.7310   22.9600 C.3   139  TYR139      0.0534
     87  CG        21.1820  -47.9940   23.9140 C.ar  139  TYR139     -0.0201
     88  CD1       22.5660  -48.0180   23.7460 C.ar  139  TYR139     -0.0009
     89  CD2       20.6670  -47.2920   24.9960 C.ar  139  TYR139     -0.0009
     90  CE1       23.4050  -47.3570   24.6250 C.ar  139  TYR139      0.0417
     91  CE2       21.4980  -46.6270   25.8790 C.ar  139  TYR139      0.0417
     92  CZ        22.8600  -46.6620   25.6930 C.ar  139  TYR139      0.1957
     93  OH        23.6810  -46.0000   26.5720 O.3   139  TYR139     -0.2866
@<TRIPOS>BOND
     1    80    81   ar
     2    80    78   ar
     3    81    79   ar
     4    31    30    1
     5    78    76   ar
     6    79    77   ar
     7    30    32    1
     8    30    29    1
     9    76    77   ar
    10    76    75    1
    11    24    22    1
    12    29    26    1
    13    74    73    2
    14    25    26    1
    15    75    72    1
    16    26    27    1
    17    73    72    1
    18     8     6   am
    19    22    23    1
    20    22    21    1
    21    72    71    1
    22     1     2    1
    23     6     5    1
    24     6     7    2
    25    21    18    1
    26     5     2    1
    27    27    28    2
    28    27    33   am
    29     2     3    1
    30    71    67   am
    31    33    34    1
    32    20    19    2
    33    19    18    1
    34    82    83    1
    35    18    17    1
    36    51    49   ar
    37    51    52   ar
    38    49    47   ar
    39    67    68    2
    40    67    66    1
    41    86    83    1
    42    86    87    1
    43    53    52    1
    44    52    50   ar
    45     3     4    2
    46    83    84    1
    47    47    46    1
    48    47    48   ar
    49    34    35    1
    50    34    37    1
    51    46    43    1
    52    17    11   am
    53    36    35    2
    54    35    42   am
    55    50    48   ar
    56    88    87   ar
    57    88    90   ar
    58    87    89   ar
    59    66    69    1
    60    66    65    1
    61    42    43    1
    62    43    44    1
    63    37    38    1
    64    11    12    2
    65    11    10    1
    66    69    70    1
    67    64    63    2
    68    59    58    1
    69    90    92   ar
    70    84    85    2
    71    38    39    1
    72    65    63   am
    73    89    91   ar
    74     9    10    1
    75    63    62    1
    76    13    10    1
    77    13    14    1
    78    58    60    1
    79    58    55    1
    80    16    14   ar
    81    39    40    1
    82    44    45    2
    83    92    91   ar
    84    92    93    1
    85    57    56    2
    86    14    15   ar
    87    62    61    1
    88    56    61   am
    89    56    55    1
    90    55    54    1
    91    40    41    1
