@<TRIPOS>MOLECULE
tmp/3poxC05.pdb
 84 81 0 0 0
SMALL
GASTEIGER

@<TRIPOS>ATOM
      1  N        -32.6040  -45.2760  -63.8440 N.3    52  ASN52      -0.1240
      2  CA       -33.5660  -45.7410  -64.8390 C.3    52  ASN52       0.1653
      3  C        -34.2600  -46.9960  -64.3190 C.2    52  ASN52       0.2266
      4  O        -34.0910  -47.3530  -63.1580 O.2    52  ASN52      -0.2867
      5  CB       -32.9040  -45.9780  -66.1940 C.3    52  ASN52       0.1155
      6  CG       -31.7070  -46.8980  -66.1060 C.2    52  ASN52       0.2627
      7  OD1      -31.7990  -48.0010  -65.5740 O.2    52  ASN52      -0.2716
      8  ND2      -30.5650  -46.4380  -66.6190 N.am   52  ASN52      -0.0877
      9  N        -33.7580  -50.1050  -64.5130 N.3    54  ASP54      -0.1225
     10  CA       -32.8990  -51.1670  -63.9850 C.3    54  ASP54       0.1805
     11  C        -31.8000  -50.6670  -63.0450 C.2    54  ASP54       0.2597
     12  O        -31.2790  -51.4320  -62.2390 O.2    54  ASP54      -0.2718
     13  CB       -32.2390  -51.9370  -65.1320 C.3    54  ASP54       0.1424
     14  CG       -33.2440  -52.5160  -66.1010 C.2    54  ASP54       0.3668
     15  OD1      -34.2450  -53.1070  -65.6380 O.co2  54  ASP54      -0.2456
     16  OD2      -33.0380  -52.3730  -67.3260 O.co2  54  ASP54      -0.2456
     17  N        -31.4330  -49.3940  -63.1660 N.am   55  LEU55      -0.1979
     18  CA       -30.2810  -48.8560  -62.4370 C.3    55  LEU55       0.1596
     19  C        -30.6420  -47.9330  -61.2560 C.2    55  LEU55       0.2287
     20  O        -31.3780  -46.9520  -61.4040 O.2    55  LEU55      -0.2864
     21  CB       -29.3360  -48.1340  -63.3970 C.3    55  LEU55       0.0297
     22  CG       -28.0180  -47.6180  -62.8110 C.3    55  LEU55       0.0022
     23  CD1      -27.0690  -48.7700  -62.4900 C.3    55  LEU55       0.0001
     24  CD2      -27.3780  -46.6540  -63.7800 C.3    55  LEU55       0.0001
     25  N        -23.7840  -48.3620  -56.6760 N.3    88  LEU88      -0.1245
     26  CA       -24.7240  -48.5440  -57.7700 C.3    88  LEU88       0.1561
     27  C        -25.2200  -49.9790  -57.7860 C.2    88  LEU88       0.2260
     28  O        -24.4820  -50.8890  -57.4360 O.2    88  LEU88      -0.2867
     29  CB       -24.0180  -48.2720  -59.0890 C.3    88  LEU88       0.0270
     30  CG       -23.6620  -46.8300  -59.4420 C.3    88  LEU88       0.0019
     31  CD1      -22.7950  -46.7880  -60.7100 C.3    88  LEU88       0.0001
     32  CD2      -24.9110  -46.0040  -59.6340 C.3    88  LEU88       0.0001
     33  N        -27.4600  -52.7420  -60.4380 N.3    90  TYR90      -0.1241
     34  CA       -28.0680  -52.9400  -61.7480 C.3    90  TYR90       0.1605
     35  C        -28.8520  -54.2470  -61.8330 C.2    90  TYR90       0.2264
     36  O        -28.3250  -55.3180  -61.5260 O.2    90  TYR90      -0.2867
     37  CB       -27.0010  -52.8880  -62.8460 C.3    90  TYR90       0.0534
     38  CG       -27.5600  -52.9200  -64.2540 C.ar   90  TYR90      -0.0201
     39  CD1      -28.5690  -52.0510  -64.6420 C.ar   90  TYR90      -0.0009
     40  CD2      -27.0680  -53.8090  -65.1960 C.ar   90  TYR90      -0.0009
     41  CE1      -29.0810  -52.0720  -65.9240 C.ar   90  TYR90       0.0417
     42  CE2      -27.5740  -53.8370  -66.4890 C.ar   90  TYR90       0.0417
     43  CZ       -28.5830  -52.9670  -66.8440 C.ar   90  TYR90       0.1957
     44  OH       -29.0930  -52.9860  -68.1230 O.3    90  TYR90      -0.2866
     45  N        -27.6570  -57.9540  -62.2020 N.3    93  VAL93      -0.1231
     46  CA       -26.2340  -58.0450  -62.4750 C.3    93  VAL93       0.1692
     47  C        -25.4570  -57.9340  -61.1760 C.2    93  VAL93       0.2593
     48  O        -24.4440  -58.5980  -61.0010 O.2    93  VAL93      -0.2718
     49  CB       -25.7570  -56.9530  -63.4630 C.3    93  VAL93       0.0266
     50  CG1      -24.2390  -56.9520  -63.5680 C.3    93  VAL93       0.0020
     51  CG2      -26.3870  -57.1610  -64.8350 C.3    93  VAL93       0.0020
     52  N        -25.9330  -57.0850  -60.2680 N.am   94  GLY94      -0.1942
     53  CA       -25.3020  -56.9440  -58.9660 C.3    94  GLY94       0.2014
     54  C        -25.2150  -55.5180  -58.4430 C.2    94  GLY94       0.2640
     55  O        -25.6760  -54.5690  -59.0760 O.2    94  GLY94      -0.2714
     56  N        -24.6280  -55.3660  -57.2630 N.am   95  SER95      -0.1935
     57  CA       -24.4190  -54.0430  -56.7070 C.3    95  SER95       0.2055
     58  C        -22.9590  -53.8550  -56.3530 C.2    95  SER95       0.2643
     59  O        -22.2600  -54.8050  -55.9940 O.2    95  SER95      -0.2714
     60  CB       -25.2960  -53.8040  -55.4710 C.3    95  SER95       0.2130
     61  OG       -24.8280  -54.5500  -54.3610 O.3    95  SER95      -0.2179
     62  N        -22.5100  -52.6150  -56.4670 N.am   96  PHE96      -0.1973
     63  CA       -21.1480  -52.2580  -56.1250 C.3    96  PHE96       0.1639
     64  C        -21.1510  -50.9790  -55.2980 C.2    96  PHE96       0.2290
     65  O        -21.8400  -50.0200  -55.6270 O.2    96  PHE96      -0.2864
     66  CB       -20.3130  -52.0690  -57.3870 C.3    96  PHE96       0.0560
     67  CG       -18.9830  -51.4340  -57.1350 C.ar   96  PHE96      -0.0200
     68  CD1      -17.8870  -52.2060  -56.8020 C.ar   96  PHE96      -0.0042
     69  CD2      -18.8270  -50.0610  -57.2210 C.ar   96  PHE96      -0.0042
     70  CE1      -16.6590  -51.6180  -56.5640 C.ar   96  PHE96      -0.0003
     71  CE2      -17.6080  -49.4750  -56.9730 C.ar   96  PHE96      -0.0003
     72  CZ       -16.5250  -50.2540  -56.6440 C.ar   96  PHE96      -0.0000
     73  N        -18.7200  -56.0650  -54.0930 N.3   139  TYR139     -0.1241
     74  CA       -19.7020  -56.5450  -55.0550 C.3   139  TYR139      0.1605
     75  C        -20.6800  -57.5320  -54.3920 C.2   139  TYR139      0.2264
     76  O        -20.2770  -58.4550  -53.6810 O.2   139  TYR139     -0.2867
     77  CB       -19.0100  -57.2020  -56.2610 C.3   139  TYR139      0.0534
     78  CG       -19.9850  -57.9450  -57.1450 C.ar  139  TYR139     -0.0201
     79  CD1      -20.7080  -57.2760  -58.1270 C.ar  139  TYR139     -0.0009
     80  CD2      -20.2200  -59.3070  -56.9700 C.ar  139  TYR139     -0.0009
     81  CE1      -21.6160  -57.9420  -58.9250 C.ar  139  TYR139      0.0417
     82  CE2      -21.1330  -59.9830  -57.7700 C.ar  139  TYR139      0.0417
     83  CZ       -21.8270  -59.2900  -58.7410 C.ar  139  TYR139      0.1957
     84  OH       -22.7400  -59.9380  -59.5410 O.3   139  TYR139     -0.2866
@<TRIPOS>BOND
     1    44    43    1
     2    16    14   ar
     3    43    42   ar
     4    43    41   ar
     5     8     6   am
     6    42    40   ar
     7     5     6    1
     8     5     2    1
     9     6     7    2
    10    14    15   ar
    11    14    13    1
    12    41    39   ar
    13    40    38   ar
    14    13    10    1
    15     2     3    1
    16     2     1    1
    17    51    49    1
    18    39    38   ar
    19     9    10    1
    20     3     4    2
    21    38    37    1
    22    10    11    1
    23    24    22    1
    24    50    49    1
    25    49    46    1
    26    21    22    1
    27    21    18    1
    28    17    11   am
    29    17    18    1
    30    11    12    2
    31    37    34    1
    32    22    23    1
    33    46    45    1
    34    46    47    1
    35    18    19    1
    36    35    34    1
    37    35    36    2
    38    34    33    1
    39    20    19    2
    40    47    48    2
    41    47    52   am
    42    31    30    1
    43    52    53    1
    44    32    30    1
    45    84    83    1
    46    30    29    1
    47    29    26    1
    48    55    54    2
    49    53    54    1
    50    81    83   ar
    51    81    79   ar
    52    83    82   ar
    53    54    56   am
    54    79    78   ar
    55    27    26    1
    56    27    28    2
    57    26    25    1
    58    82    80   ar
    59    66    67    1
    60    66    63    1
    61    56    57    1
    62    69    67   ar
    63    69    71   ar
    64    78    80   ar
    65    78    77    1
    66    67    68   ar
    67    71    72   ar
    68    68    70   ar
    69    57    58    1
    70    57    60    1
    71    72    70   ar
    72    62    58   am
    73    62    63    1
    74    58    59    2
    75    77    74    1
    76    63    64    1
    77    65    64    2
    78    60    61    1
    79    74    75    1
    80    74    73    1
    81    75    76    2
