@<TRIPOS>MOLECULE
tmp/3poxC12.pdb
 74 70 0 0 0
SMALL
GASTEIGER

@<TRIPOS>ATOM
      1  N        -27.7780  -71.4350  -44.5170 N.3   187  ILE187     -0.1231
      2  CA       -26.3900  -71.8280  -44.3490 C.3   187  ILE187      0.1692
      3  C        -25.5130  -70.7770  -45.0520 C.2   187  ILE187      0.2591
      4  O        -25.8810  -70.2630  -46.1070 O.2   187  ILE187     -0.2718
      5  CB       -26.1600  -73.2520  -44.8940 C.3   187  ILE187      0.0266
      6  CG1      -24.7010  -73.6740  -44.7380 C.3   187  ILE187      0.0019
      7  CG2      -26.5960  -73.3500  -46.3470 C.3   187  ILE187      0.0020
      8  CD1      -24.4760  -75.1490  -45.0350 C.3   187  ILE187      0.0001
      9  N        -24.3790  -70.4360  -44.4440 N.am  188  VAL188     -0.1980
     10  CA       -23.5190  -69.3700  -44.9480 C.3   188  VAL188      0.1595
     11  C        -22.0620  -69.6940  -44.7480 C.2   188  VAL188      0.2287
     12  O        -21.6960  -70.3200  -43.7560 O.2   188  VAL188     -0.2864
     13  CB       -23.7530  -68.0200  -44.2260 C.3   188  VAL188      0.0276
     14  CG1      -25.0880  -67.4410  -44.5870 C.3   188  VAL188      0.0022
     15  CG2      -23.6280  -68.1670  -42.7120 C.3   188  VAL188      0.0022
     16  N        -18.4100  -70.0450  -40.6640 N.3   216  THR216     -0.1203
     17  CA       -19.5520  -70.7110  -41.2760 C.3   216  THR216      0.1994
     18  C        -20.7440  -70.5360  -40.3410 C.2   216  THR216      0.2618
     19  O        -20.5630  -70.2420  -39.1660 O.2   216  THR216     -0.2717
     20  CB       -19.2910  -72.2180  -41.4990 C.3   216  THR216      0.1784
     21  OG1      -18.8890  -72.8270  -40.2680 O.3   216  THR216     -0.2211
     22  CG2      -18.1940  -72.4280  -42.5340 C.3   216  THR216      0.0376
     23  N        -21.9530  -70.7100  -40.8590 N.am  217  GLY217     -0.1942
     24  CA       -23.1370  -70.5140  -40.0450 C.3   217  GLY217      0.2014
     25  C        -24.3100  -71.3400  -40.5250 C.2   217  GLY217      0.2638
     26  O        -24.4270  -71.6310  -41.7260 O.2   217  GLY217     -0.2714
     27  N        -25.1530  -71.7300  -39.5720 N.am  218  LEU218     -0.1977
     28  CA       -26.4490  -72.3500  -39.8300 C.3   218  LEU218      0.1596
     29  C        -27.4810  -71.6370  -38.9730 C.2   218  LEU218      0.2287
     30  O        -27.2040  -71.2930  -37.8180 O.2   218  LEU218     -0.2864
     31  CB       -26.4420  -73.8240  -39.4270 C.3   218  LEU218      0.0297
     32  CG       -25.5420  -74.7800  -40.2120 C.3   218  LEU218      0.0022
     33  CD1      -25.5490  -76.1660  -39.5710 C.3   218  LEU218      0.0001
     34  CD2      -25.9830  -74.8580  -41.6620 C.3   218  LEU218      0.0001
     35  N        -26.0370  -70.9370  -35.2370 N.3   229  ALA229     -0.1231
     36  CA       -24.7110  -71.3210  -34.7650 C.3   229  ALA229      0.1694
     37  C        -23.6870  -70.7560  -35.7300 C.2   229  ALA229      0.2592
     38  O        -23.9410  -70.6840  -36.9250 O.2   229  ALA229     -0.2718
     39  CB       -24.5770  -72.8290  -34.7020 C.3   229  ALA229      0.0304
     40  N        -22.5360  -70.3580  -35.2020 N.am  230  ASN230     -0.1960
     41  CA       -21.4060  -69.9480  -36.0200 C.3   230  ASN230      0.1819
     42  C        -20.1720  -70.7200  -35.5810 C.2   230  ASN230      0.2621
     43  O        -19.9590  -70.9190  -34.3780 O.2   230  ASN230     -0.2715
     44  CB       -21.1110  -68.4460  -35.8730 C.3   230  ASN230      0.1195
     45  CG       -21.9200  -67.5690  -36.8360 C.2   230  ASN230      0.2630
     46  OD1      -22.5850  -66.6240  -36.4100 O.2   230  ASN230     -0.2716
     47  ND2      -21.8520  -67.8690  -38.1280 N.am  230  ASN230     -0.0877
     48  N        -19.3760  -71.1590  -36.5550 N.am  231  TYR231     -0.1974
     49  CA       -18.0390  -71.6840  -36.2940 C.3   231  TYR231      0.1639
     50  C        -17.0530  -70.9690  -37.2020 C.2   231  TYR231      0.2290
     51  O        -17.2980  -70.8010  -38.3940 O.2   231  TYR231     -0.2864
     52  CB       -17.9290  -73.1990  -36.5070 C.3   231  TYR231      0.0560
     53  CG       -16.5280  -73.6540  -36.1880 C.ar  231  TYR231     -0.0198
     54  CD1      -16.1160  -73.7730  -34.8750 C.ar  231  TYR231     -0.0009
     55  CD2      -15.5980  -73.8860  -37.1900 C.ar  231  TYR231     -0.0009
     56  CE1      -14.8390  -74.1450  -34.5560 C.ar  231  TYR231      0.0417
     57  CE2      -14.2960  -74.2640  -36.8820 C.ar  231  TYR231      0.0417
     58  CZ       -13.9270  -74.3870  -35.5630 C.ar  231  TYR231      0.1957
     59  OH       -12.6540  -74.7550  -35.2320 O.3   231  TYR231     -0.2866
     60  N        -16.6640  -70.1150  -31.5170 N.3   257  VAL257     -0.1245
     61  CA       -17.9920  -70.7130  -31.5730 C.3   257  VAL257      0.1561
     62  C        -19.0230  -69.8010  -30.9230 C.2   257  VAL257      0.2260
     63  O        -18.8060  -69.2940  -29.8270 O.2   257  VAL257     -0.2867
     64  CB       -18.0250  -72.0790  -30.8470 C.3   257  VAL257      0.0252
     65  CG1      -19.4080  -72.6840  -30.9180 C.3   257  VAL257      0.0019
     66  CG2      -16.9780  -73.0260  -31.4430 C.3   257  VAL257      0.0019
     67  N        -23.4110  -69.6760  -30.2750 N.3   259  LEU259     -0.1245
     68  CA       -24.7330  -70.2790  -30.4040 C.3   259  LEU259      0.1561
     69  C        -25.7830  -69.3050  -29.8910 C.2   259  LEU259      0.2260
     70  O        -25.5590  -68.6260  -28.8970 O.2   259  LEU259     -0.2867
     71  CB       -24.7950  -71.5850  -29.6040 C.3   259  LEU259      0.0270
     72  CG       -23.6720  -72.6010  -29.8550 C.3   259  LEU259      0.0019
     73  CD1      -23.7850  -73.7870  -28.9140 C.3   259  LEU259      0.0001
     74  CD2      -23.6820  -73.0590  -31.3190 C.3   259  LEU259      0.0001
@<TRIPOS>BOND
     1     7     5    1
     2     4     3    2
     3     3     9   am
     4     3     2    1
     5     8     6    1
     6    10    11    1
     7    10     9    1
     8    10    13    1
     9     5     6    1
    10     5     2    1
    11    11    12    2
    12    14    13    1
    13     1     2    1
    14    13    15    1
    15    22    20    1
    16    26    25    2
    17    34    32    1
    18    20    17    1
    19    20    21    1
    20    17    16    1
    21    17    18    1
    22    23    18   am
    23    23    24    1
    24    25    24    1
    25    25    27   am
    26    18    19    2
    27    32    33    1
    28    32    31    1
    29    28    27    1
    30    28    31    1
    31    28    29    1
    32    29    30    2
    33    51    50    2
    34    47    45   am
    35    50    49    1
    36    55    57   ar
    37    55    53   ar
    38    38    37    2
    39    57    58   ar
    40    45    46    2
    41    45    44    1
    42    48    49    1
    43    48    42   am
    44    52    49    1
    45    52    53    1
    46    53    54   ar
    47    41    44    1
    48    41    42    1
    49    41    40    1
    50    37    40   am
    51    37    36    1
    52    42    43    2
    53    58    59    1
    54    58    56   ar
    55    35    36    1
    56    54    56   ar
    57    36    39    1
    58    61    60    1
    59    61    62    1
    60    61    64    1
    61    66    64    1
    62    74    72    1
    63    62    63    2
    64    65    64    1
    65    68    67    1
    66    68    69    1
    67    68    71    1
    68    69    70    2
    69    72    71    1
    70    72    73    1
