@<TRIPOS>MOLECULE
tmp/3poxC09.pdb
 123 121 0 0 0
SMALL
GASTEIGER

@<TRIPOS>ATOM
      1  N        -34.5890  -72.2060  -43.2860 N.3   185  PHE185     -0.1241
      2  CA       -33.2150  -72.6470  -43.0490 C.3   185  PHE185      0.1605
      3  C        -32.1910  -71.8070  -43.8030 C.2   185  PHE185      0.2264
      4  O        -32.4190  -71.4080  -44.9470 O.2   185  PHE185     -0.2867
      5  CB       -33.0380  -74.1170  -43.4180 C.3   185  PHE185      0.0534
      6  CG       -33.7240  -75.0560  -42.4850 C.ar  185  PHE185     -0.0203
      7  CD1      -33.0710  -75.5400  -41.3610 C.ar  185  PHE185     -0.0042
      8  CD2      -35.0250  -75.4540  -42.7230 C.ar  185  PHE185     -0.0042
      9  CE1      -33.7070  -76.4140  -40.4980 C.ar  185  PHE185     -0.0003
     10  CE2      -35.6620  -76.3250  -41.8620 C.ar  185  PHE185     -0.0003
     11  CZ       -35.0030  -76.8040  -40.7540 C.ar  185  PHE185     -0.0000
     12  N        -25.1530  -71.7300  -39.5720 N.3   218  LEU218     -0.1231
     13  CA       -26.4490  -72.3500  -39.8300 C.3   218  LEU218      0.1693
     14  C        -27.4810  -71.6370  -38.9730 C.2   218  LEU218      0.2592
     15  O        -27.2040  -71.2930  -37.8180 O.2   218  LEU218     -0.2718
     16  CB       -26.4420  -73.8240  -39.4270 C.3   218  LEU218      0.0284
     17  CG       -25.5420  -74.7800  -40.2120 C.3   218  LEU218      0.0019
     18  CD1      -25.5490  -76.1660  -39.5710 C.3   218  LEU218      0.0001
     19  CD2      -25.9830  -74.8580  -41.6620 C.3   218  LEU218      0.0001
     20  N        -28.6720  -71.4250  -39.5190 N.am  219  LYS219     -0.1966
     21  CA       -29.7600  -70.8480  -38.7280 C.3   219  LYS219      0.1728
     22  C        -31.1230  -71.3900  -39.1140 C.2   219  LYS219      0.2616
     23  O        -31.3290  -71.8650  -40.2400 O.2   219  LYS219     -0.2715
     24  CB       -29.8050  -69.3340  -38.8920 C.3   219  LYS219      0.0311
     25  CG       -30.1640  -68.9130  -40.2910 C.3   219  LYS219      0.0038
     26  CD       -30.3080  -67.4160  -40.4210 C.3   219  LYS219      0.0206
     27  CE       -30.5630  -67.0400  -41.8690 C.3   219  LYS219      0.1093
     28  NZ       -30.9770  -65.6310  -42.0170 N.3   219  LYS219     -0.1314
     29  N        -32.0500  -71.3130  -38.1660 N.am  220  TYR220     -0.1974
     30  CA       -33.4530  -71.5330  -38.4610 C.3   220  TYR220      0.1639
     31  C        -34.2140  -70.2990  -38.0030 C.2   220  TYR220      0.2290
     32  O        -34.1250  -69.9050  -36.8510 O.2   220  TYR220     -0.2864
     33  CB       -33.9930  -72.7740  -37.7500 C.3   220  TYR220      0.0560
     34  CG       -35.4540  -72.9840  -38.0480 C.ar  220  TYR220     -0.0198
     35  CD1      -35.8540  -73.5840  -39.2340 C.ar  220  TYR220     -0.0009
     36  CD2      -36.4390  -72.5390  -37.1680 C.ar  220  TYR220     -0.0009
     37  CE1      -37.1890  -73.7620  -39.5290 C.ar  220  TYR220      0.0417
     38  CE2      -37.7800  -72.7180  -37.4510 C.ar  220  TYR220      0.0417
     39  CZ       -38.1480  -73.3280  -38.6400 C.ar  220  TYR220      0.1957
     40  OH       -39.4790  -73.5200  -38.9440 O.3   220  TYR220     -0.2866
     41  N        -32.8920  -69.7370  -34.2090 N.3   227  LEU227     -0.1231
     42  CA       -31.7780  -70.5420  -33.7320 C.3   227  LEU227      0.1693
     43  C        -30.6320  -70.3440  -34.7160 C.2   227  LEU227      0.2592
     44  O        -30.8530  -70.2850  -35.9200 O.2   227  LEU227     -0.2718
     45  CB       -32.1540  -72.0370  -33.6840 C.3   227  LEU227      0.0284
     46  CG       -33.4470  -72.4610  -32.9830 C.3   227  LEU227      0.0019
     47  CD1      -33.7450  -73.9470  -33.2440 C.3   227  LEU227      0.0001
     48  CD2      -33.4110  -72.1680  -31.4800 C.3   227  LEU227      0.0001
     49  N        -29.4120  -70.2340  -34.2080 N.am  228  ALA228     -0.1966
     50  CA       -28.2690  -70.0370  -35.0890 C.3   228  ALA228      0.1728
     51  C        -26.9800  -70.4690  -34.4200 C.2   228  ALA228      0.2616
     52  O        -26.8460  -70.3840  -33.2030 O.2   228  ALA228     -0.2715
     53  CB       -28.1720  -68.5910  -35.5240 C.3   228  ALA228      0.0334
     54  N        -26.0370  -70.9370  -35.2370 N.am  229  ALA229     -0.1977
     55  CA       -24.7110  -71.3210  -34.7650 C.3   229  ALA229      0.1597
     56  C        -23.6870  -70.7560  -35.7300 C.2   229  ALA229      0.2287
     57  O        -23.9410  -70.6840  -36.9250 O.2   229  ALA229     -0.2864
     58  CB       -24.5770  -72.8290  -34.7020 C.3   229  ALA229      0.0319
     59  N        -23.4110  -69.6760  -30.2750 N.3   259  LEU259     -0.1231
     60  CA       -24.7330  -70.2790  -30.4040 C.3   259  LEU259      0.1693
     61  C        -25.7830  -69.3050  -29.8910 C.2   259  LEU259      0.2592
     62  O        -25.5590  -68.6260  -28.8970 O.2   259  LEU259     -0.2718
     63  CB       -24.7950  -71.5850  -29.6040 C.3   259  LEU259      0.0284
     64  CG       -23.6720  -72.6010  -29.8550 C.3   259  LEU259      0.0019
     65  CD1      -23.7850  -73.7870  -28.9140 C.3   259  LEU259      0.0001
     66  CD2      -23.6820  -73.0590  -31.3190 C.3   259  LEU259      0.0001
     67  N        -26.9240  -69.2230  -30.5660 N.am  260  VAL260     -0.1966
     68  CA       -28.0110  -68.3790  -30.0650 C.3   260  VAL260      0.1727
     69  C        -29.3680  -69.0550  -30.2230 C.2   260  VAL260      0.2616
     70  O        -29.6190  -69.7220  -31.2240 O.2   260  VAL260     -0.2715
     71  CB       -28.0610  -67.0110  -30.7970 C.3   260  VAL260      0.0290
     72  CG1      -29.2870  -66.2110  -30.3370 C.3   260  VAL260      0.0023
     73  CG2      -26.7790  -66.2160  -30.5520 C.3   260  VAL260      0.0023
     74  N        -30.2370  -68.8860  -29.2330 N.am  261  ALA261     -0.1977
     75  CA       -31.6300  -69.3310  -29.3530 C.3   261  ALA261      0.1597
     76  C        -32.5880  -68.2880  -28.7680 C.2   261  ALA261      0.2287
     77  O        -32.4110  -67.8340  -27.6380 O.2   261  ALA261     -0.2864
     78  CB       -31.8120  -70.6740  -28.6600 C.3   261  ALA261      0.0319
     79  N        -31.2420  -66.8090  -25.1420 N.3   273  ILE273     -0.1231
     80  CA       -30.1280  -67.4560  -24.4460 C.3   273  ILE273      0.1692
     81  C        -29.0160  -67.6880  -25.4730 C.2   273  ILE273      0.2592
     82  O        -29.2780  -67.8150  -26.6820 O.2   273  ILE273     -0.2718
     83  CB       -30.5200  -68.7930  -23.7390 C.3   273  ILE273      0.0266
     84  CG1      -31.0330  -69.8130  -24.7550 C.3   273  ILE273      0.0019
     85  CG2      -31.5600  -68.5520  -22.6280 C.3   273  ILE273      0.0020
     86  CD1      -31.4390  -71.1710  -24.1390 C.3   273  ILE273      0.0001
     87  N        -27.7760  -67.7190  -25.0050 N.am  274  ALA274     -0.1966
     88  CA       -26.6560  -67.7950  -25.9220 C.3   274  ALA274      0.1728
     89  C        -25.4160  -68.3320  -25.2310 C.2   274  ALA274      0.2616
     90  O        -25.3270  -68.3240  -23.9980 O.2   274  ALA274     -0.2715
     91  CB       -26.3810  -66.4000  -26.5430 C.3   274  ALA274      0.0334
     92  N        -24.4730  -68.7990  -26.0480 N.am  275  TYR275     -0.1974
     93  CA       -23.1700  -69.2780  -25.5950 C.3   275  TYR275      0.1639
     94  C        -22.1350  -68.7970  -26.5790 C.2   275  TYR275      0.2290
     95  O        -22.3140  -68.9150  -27.7900 O.2   275  TYR275     -0.2864
     96  CB       -23.1280  -70.8060  -25.5350 C.3   275  TYR275      0.0560
     97  CG       -21.7410  -71.3850  -25.2610 C.ar  275  TYR275     -0.0198
     98  CD1      -21.0880  -71.1440  -24.0570 C.ar  275  TYR275     -0.0009
     99  CD2      -21.0990  -72.1780  -26.2050 C.ar  275  TYR275     -0.0009
    100  CE1      -19.8340  -71.6670  -23.8070 C.ar  275  TYR275      0.0417
    101  CE2      -19.8420  -72.7070  -25.9660 C.ar  275  TYR275      0.0417
    102  CZ       -19.2190  -72.4510  -24.7660 C.ar  275  TYR275      0.1957
    103  OH       -17.9830  -72.9810  -24.5230 O.3   275  TYR275     -0.2866
    104  N        -22.1060  -67.5430  -20.9950 N.3   295  PHE295     -0.1227
    105  CA       -23.4800  -67.8780  -21.3080 C.3   295  PHE295      0.1736
    106  C        -24.2940  -66.6020  -21.1360 C.2   295  PHE295      0.2595
    107  O        -23.9470  -65.7370  -20.3430 O.2   295  PHE295     -0.2718
    108  CB       -24.0110  -68.9590  -20.3380 C.3   295  PHE295      0.0547
    109  CG       -23.4000  -70.3270  -20.5440 C.ar  295  PHE295     -0.0202
    110  CD1      -22.2380  -70.6960  -19.8780 C.ar  295  PHE295     -0.0042
    111  CD2      -23.9970  -71.2480  -21.4000 C.ar  295  PHE295     -0.0042
    112  CE1      -21.6720  -71.9630  -20.0670 C.ar  295  PHE295     -0.0003
    113  CE2      -23.4400  -72.5090  -21.5960 C.ar  295  PHE295     -0.0003
    114  CZ       -22.2820  -72.8680  -20.9250 C.ar  295  PHE295     -0.0000
    115  N        -25.3980  -66.4910  -21.8550 N.am  296  GLU296     -0.1979
    116  CA       -26.2140  -65.2980  -21.7720 C.3   296  GLU296      0.1602
    117  C        -27.6720  -65.6600  -21.5770 C.2   296  GLU296      0.2287
    118  O        -28.1790  -66.6090  -22.1790 O.2   296  GLU296     -0.2864
    119  CB       -26.0660  -64.4620  -23.0480 C.3   296  GLU296      0.0415
    120  CG       -26.9490  -63.2260  -23.0690 C.3   296  GLU296      0.1163
    121  CD       -28.2360  -63.4140  -23.8870 C.2   296  GLU296      0.3649
    122  OE1      -28.4300  -64.4970  -24.4710 O.co2 296  GLU296     -0.2457
    123  OE2      -29.0530  -62.4690  -23.9540 O.co2 296  GLU296     -0.2457
@<TRIPOS>BOND
     1     4     3    2
     2     3     2    1
     3     5     2    1
     4     5     6    1
     5     1     2    1
     6     8     6   ar
     7     8    10   ar
     8     6     7   ar
     9    28    27    1
    10    27    26    1
    11    10    11   ar
    12    19    17    1
    13     7     9   ar
    14    11     9   ar
    15    26    25    1
    16    25    24    1
    17    23    22    2
    18    17    18    1
    19    17    16    1
    20    13    12    1
    21    13    16    1
    22    13    14    1
    23    37    35   ar
    24    37    39   ar
    25    20    14   am
    26    20    21    1
    27    35    34   ar
    28    22    21    1
    29    22    29   am
    30    14    15    2
    31    40    39    1
    32    24    21    1
    33    39    38   ar
    34    30    29    1
    35    30    31    1
    36    30    33    1
    37    34    33    1
    38    34    36   ar
    39    31    32    2
    40    38    36   ar
    41    57    56    2
    42    44    43    2
    43    56    55    1
    44    53    50    1
    45    54    55    1
    46    54    51   am
    47    50    51    1
    48    50    49    1
    49    55    58    1
    50    43    49   am
    51    43    42    1
    52    51    52    2
    53    41    42    1
    54    42    45    1
    55    45    46    1
    56    47    46    1
    57    46    48    1
    58    66    64    1
    59    70    69    2
    60    71    73    1
    61    71    72    1
    62    71    68    1
    63    67    68    1
    64    67    61   am
    65    60    59    1
    66    60    61    1
    67    60    63    1
    68    69    68    1
    69    69    74   am
    70    61    62    2
    71    64    63    1
    72    64    65    1
    73    75    74    1
    74    75    76    1
    75    75    78    1
    76    76    77    2
    77    95    94    2
    78    82    81    2
    79    94    93    1
    80    91    88    1
    81    99   101   ar
    82    99    97   ar
    83    92    93    1
    84    92    89   am
    85   101   102   ar
    86    88    89    1
    87    88    87    1
    88    93    96    1
    89    96    97    1
    90    81    87   am
    91    81    80    1
    92    97    98   ar
    93    89    90    2
    94    79    80    1
    95   102   103    1
    96   102   100   ar
    97    84    86    1
    98    84    83    1
    99   122   121   ar
   100    80    83    1
   101    98   100   ar
   102   123   121   ar
   103   121   120    1
   104    83    85    1
   105   120   119    1
   106   119   116    1
   107   118   117    2
   108   115   116    1
   109   115   106   am
   110   116   117    1
   111   113   111   ar
   112   113   114   ar
   113   111   109   ar
   114   105   106    1
   115   105   104    1
   116   105   108    1
   117   106   107    2
   118   114   112   ar
   119   109   108    1
   120   109   110   ar
   121   112   110   ar
