@<TRIPOS>MOLECULE
tmp/3poxC14.pdb
 84 80 0 0 0
SMALL
GASTEIGER

@<TRIPOS>ATOM
      1  N        -24.2540  -64.2210  -53.0070 N.3   153  PHE153     -0.1241
      2  CA       -22.8120  -64.2130  -52.7830 C.3   153  PHE153      0.1605
      3  C        -22.2700  -62.8010  -52.8810 C.2   153  PHE153      0.2264
      4  O        -22.9580  -61.8910  -53.3420 O.2   153  PHE153     -0.2867
      5  CB       -22.0610  -65.1760  -53.7240 C.3   153  PHE153      0.0534
      6  CG       -22.0440  -64.7410  -55.1690 C.ar  153  PHE153     -0.0203
      7  CD1      -23.0710  -65.1000  -56.0270 C.ar  153  PHE153     -0.0042
      8  CD2      -20.9890  -63.9910  -55.6710 C.ar  153  PHE153     -0.0042
      9  CE1      -23.0590  -64.7060  -57.3560 C.ar  153  PHE153     -0.0003
     10  CE2      -20.9680  -63.5930  -57.0040 C.ar  153  PHE153     -0.0003
     11  CZ       -22.0080  -63.9490  -57.8440 C.ar  153  PHE153     -0.0000
     12  N        -18.2860  -60.5290  -53.2210 N.3   155  VAL155     -0.1245
     13  CA       -16.8420  -60.4840  -53.3360 C.3   155  VAL155      0.1561
     14  C        -16.3970  -59.0930  -52.9170 C.2   155  VAL155      0.2260
     15  O        -17.0420  -58.1120  -53.2520 O.2   155  VAL155     -0.2867
     16  CB       -16.3770  -60.7290  -54.7840 C.3   155  VAL155      0.0252
     17  CG1      -14.8570  -60.7300  -54.8580 C.3   155  VAL155      0.0019
     18  CG2      -16.9530  -62.0310  -55.3180 C.3   155  VAL155      0.0019
     19  N         -3.6420  -54.6890  -48.1500 N.3   172  ASP172     -0.1225
     20  CA        -4.5710  -55.0750  -49.2210 C.3   172  ASP172      0.1805
     21  C         -5.0760  -56.4940  -49.0210 C.2   172  ASP172      0.2598
     22  O         -4.3420  -57.3610  -48.5640 O.2   172  ASP172     -0.2718
     23  CB        -3.8760  -55.0160  -50.5970 C.3   172  ASP172      0.1424
     24  CG        -3.6210  -53.5990  -51.0710 C.2   172  ASP172      0.3668
     25  OD1       -4.3180  -52.6820  -50.5920 O.co2 172  ASP172     -0.2456
     26  OD2       -2.7320  -53.4060  -51.9340 O.co2 172  ASP172     -0.2456
     27  N         -6.3280  -56.7440  -49.3910 N.am  173  GLY173     -0.1942
     28  CA        -6.8810  -58.0820  -49.2720 C.3   173  GLY173      0.2014
     29  C         -8.1170  -58.3370  -50.1120 C.2   173  GLY173      0.2639
     30  O         -8.6940  -57.4170  -50.6940 O.2   173  GLY173     -0.2714
     31  N         -8.5220  -59.6040  -50.1650 N.am  174  VAL174     -0.1963
     32  CA        -9.7150  -60.0120  -50.8980 C.3   174  VAL174      0.1727
     33  C        -10.5120  -61.0030  -50.0600 C.2   174  VAL174      0.2617
     34  O         -9.9410  -61.8200  -49.3550 O.2   174  VAL174     -0.2715
     35  CB        -9.3330  -60.6940  -52.2350 C.3   174  VAL174      0.0290
     36  CG1      -10.5780  -61.0590  -53.0340 C.3   174  VAL174      0.0023
     37  CG2       -8.4260  -59.7850  -53.0550 C.3   174  VAL174      0.0023
     38  N        -11.8370  -60.9350  -50.1390 N.am  175  GLY175     -0.1940
     39  CA       -12.6670  -61.9090  -49.4630 C.3   175  GLY175      0.2014
     40  C        -13.9540  -62.1370  -50.2220 C.2   175  GLY175      0.2639
     41  O        -14.2140  -61.4800  -51.2350 O.2   175  GLY175     -0.2714
     42  N        -14.7660  -63.0620  -49.7320 N.am  176  GLY176     -0.1954
     43  CA       -16.0410  -63.3280  -50.3630 C.3   176  GLY176      0.1869
     44  C        -16.9250  -64.1510  -49.4490 C.2   176  GLY176      0.2309
     45  O        -16.4650  -64.7070  -48.4540 O.2   176  GLY176     -0.2863
     46  N        -14.9450  -66.0320  -46.3080 N.3   191  TYR191     -0.1241
     47  CA       -13.4980  -66.1280  -46.0930 C.3   191  TYR191      0.1605
     48  C        -12.8100  -64.8870  -46.6260 C.2   191  TYR191      0.2264
     49  O        -13.1880  -64.3640  -47.6680 O.2   191  TYR191     -0.2867
     50  CB       -12.9220  -67.3740  -46.7920 C.3   191  TYR191      0.0534
     51  CG       -11.4040  -67.4340  -46.8050 C.ar  191  TYR191     -0.0201
     52  CD1      -10.7080  -68.2060  -45.8780 C.ar  191  TYR191     -0.0009
     53  CD2      -10.6690  -66.7200  -47.7430 C.ar  191  TYR191     -0.0009
     54  CE1       -9.3190  -68.2620  -45.8870 C.ar  191  TYR191      0.0417
     55  CE2       -9.2890  -66.7700  -47.7620 C.ar  191  TYR191      0.0417
     56  CZ        -8.6150  -67.5390  -46.8330 C.ar  191  TYR191      0.1957
     57  OH        -7.2350  -67.5750  -46.8580 O.3   191  TYR191     -0.2866
     58  N         -8.6420  -62.9570  -46.8800 N.3   193  ALA193     -0.1231
     59  CA        -7.2250  -62.9220  -46.5600 C.3   193  ALA193      0.1694
     60  C         -6.6500  -61.5770  -46.9610 C.2   193  ALA193      0.2592
     61  O         -7.1270  -60.9400  -47.9010 O.2   193  ALA193     -0.2718
     62  CB        -6.4880  -64.0450  -47.2660 C.3   193  ALA193      0.0304
     63  N         -5.6170  -61.1480  -46.2440 N.am  194  ALA194     -0.1966
     64  CA        -5.0240  -59.8500  -46.4920 C.3   194  ALA194      0.1728
     65  C         -3.5880  -59.7820  -46.0010 C.2   194  ALA194      0.2616
     66  O         -3.1970  -60.5020  -45.0870 O.2   194  ALA194     -0.2715
     67  CB        -5.8450  -58.7590  -45.8200 C.3   194  ALA194      0.0334
     68  N         -2.8160  -58.8860  -46.6110 N.am  195  ASP195     -0.1971
     69  CA        -1.4880  -58.5540  -46.1120 C.3   195  ASP195      0.1709
     70  C         -1.5760  -57.8650  -44.7460 C.2   195  ASP195      0.2293
     71  O         -2.5250  -57.1320  -44.4720 O.2   195  ASP195     -0.2864
     72  CB        -0.7800  -57.6320  -47.1070 C.3   195  ASP195      0.1436
     73  CG        -0.4880  -58.3160  -48.4270 C.2   195  ASP195      0.3671
     74  OD1       -0.1850  -59.5250  -48.4070 O.co2 195  ASP195     -0.2456
     75  OD2       -0.5740  -57.6500  -49.4890 O.co2 195  ASP195     -0.2456
     76  N          0.4110  -62.6950  -43.5140 N.3   210  LYS210     -0.1245
     77  CA        -0.9830  -62.7540  -43.9520 C.3   210  LYS210      0.1561
     78  C         -1.9640  -62.9680  -42.7960 C.2   210  LYS210      0.2260
     79  O         -1.7520  -63.8180  -41.9390 O.2   210  LYS210     -0.2867
     80  CB        -1.1680  -63.8680  -44.9830 C.3   210  LYS210      0.0271
     81  CG        -2.5230  -63.8710  -45.6540 C.3   210  LYS210      0.0035
     82  CD        -2.5530  -64.8240  -46.8510 C.3   210  LYS210      0.0206
     83  CE        -2.4830  -66.2840  -46.4060 C.3   210  LYS210      0.1093
     84  NZ        -2.5110  -67.2410  -47.5550 N.3   210  LYS210     -0.1314
@<TRIPOS>BOND
     1    11     9   ar
     2    11    10   ar
     3     9     7   ar
     4    10     8   ar
     5     7     6   ar
     6     8     6   ar
     7    18    16    1
     8     6     5    1
     9    17    16    1
    10    16    13    1
    11     5     2    1
    12     4     3    2
    13    13    12    1
    14    13    14    1
    15    15    14    2
    16    37    35    1
    17    36    35    1
    18     1     2    1
    19     3     2    1
    20    35    32    1
    21    26    24   ar
    22    41    40    2
    23    24    23    1
    24    24    25   ar
    25    32    31    1
    26    32    33    1
    27    30    29    2
    28    23    20    1
    29    43    42    1
    30    43    44    1
    31    40    42   am
    32    40    39    1
    33    31    29   am
    34    38    33   am
    35    38    39    1
    36    29    28    1
    37    33    34    2
    38    75    73   ar
    39    44    45    2
    40    27    28    1
    41    27    21   am
    42    20    21    1
    43    20    19    1
    44    21    22    2
    45    73    74   ar
    46    73    72    1
    47    61    60    2
    48    55    53   ar
    49    55    56   ar
    50    53    51   ar
    51    49    48    2
    52    84    83    1
    53    62    59    1
    54    72    69    1
    55    60    59    1
    56    60    63   am
    57    58    59    1
    58    57    56    1
    59    82    83    1
    60    82    81    1
    61    56    54   ar
    62    51    50    1
    63    51    52   ar
    64    50    47    1
    65    48    47    1
    66    68    69    1
    67    68    65   am
    68    64    63    1
    69    64    65    1
    70    64    67    1
    71    46    47    1
    72    69    70    1
    73    65    66    2
    74    54    52   ar
    75    81    80    1
    76    80    77    1
    77    70    71    2
    78    77    76    1
    79    77    78    1
    80    78    79    2
