@<TRIPOS>MOLECULE
tmp/3poxA07.pdb
 95 91 0 0 0
SMALL
GASTEIGER

@<TRIPOS>ATOM
      1  N        -55.9480  -35.8020  -10.7350 N.3   147  LEU147     -0.1231
      2  CA       -56.7930  -35.2200   -9.6930 C.3   147  LEU147      0.1693
      3  C        -56.6710  -33.7040   -9.5710 C.2   147  LEU147      0.2592
      4  O        -57.6510  -33.0210   -9.2540 O.2   147  LEU147     -0.2718
      5  CB       -56.4770  -35.8520   -8.3350 C.3   147  LEU147      0.0284
      6  CG       -56.7970  -37.3360   -8.1570 C.3   147  LEU147      0.0019
      7  CD1      -56.5160  -37.7630   -6.7230 C.3   147  LEU147      0.0001
      8  CD2      -58.2500  -37.6110   -8.5280 C.3   147  LEU147      0.0001
      9  N        -55.4730  -33.1750   -9.8110 N.am  148  VAL148     -0.1966
     10  CA       -55.2230  -31.7610   -9.5410 C.3   148  VAL148      0.1727
     11  C        -54.4770  -31.0730  -10.6730 C.2   148  VAL148      0.2616
     12  O        -53.2570  -31.1860  -10.7880 O.2   148  VAL148     -0.2715
     13  CB       -54.4210  -31.5800   -8.2460 C.3   148  VAL148      0.0290
     14  CG1      -54.1980  -30.1030   -7.9660 C.3   148  VAL148      0.0023
     15  CG2      -55.1330  -32.2660   -7.0700 C.3   148  VAL148      0.0023
     16  N        -55.2150  -30.3550  -11.5070 N.am  149  ASP149     -0.1971
     17  CA       -54.6050  -29.6580  -12.6180 C.3   149  ASP149      0.1709
     18  C        -53.6550  -28.5780  -12.1060 C.2   149  ASP149      0.2293
     19  O        -54.0270  -27.7360  -11.2800 O.2   149  ASP149     -0.2864
     20  CB       -55.6740  -29.0620  -13.5290 C.3   149  ASP149      0.1436
     21  CG       -56.5330  -30.1290  -14.1910 C.2   149  ASP149      0.3671
     22  OD1      -55.9800  -31.1760  -14.6070 O.co2 149  ASP149     -0.2456
     23  OD2      -57.7650  -29.9220  -14.2870 O.co2 149  ASP149     -0.2456
     24  N        -50.7360  -29.2660  -10.5280 N.3   151  LEU151     -0.1245
     25  CA       -49.8290  -29.8260   -9.5270 C.3   151  LEU151      0.1561
     26  C        -48.9490  -30.8920  -10.1640 C.2   151  LEU151      0.2260
     27  O        -49.4510  -31.9170  -10.6450 O.2   151  LEU151     -0.2867
     28  CB       -50.6060  -30.4210   -8.3440 C.3   151  LEU151      0.0270
     29  CG       -49.8160  -31.0070   -7.1660 C.3   151  LEU151      0.0019
     30  CD1      -48.8080  -30.0220   -6.5780 C.3   151  LEU151      0.0001
     31  CD2      -50.7540  -31.4860   -6.0740 C.3   151  LEU151      0.0001
     32  N        -41.5460  -30.3440   -6.5140 N.3   178  ILE178     -0.1231
     33  CA       -42.9930  -30.1920   -6.5100 C.3   178  ILE178      0.1692
     34  C        -43.3040  -28.7920   -7.0210 C.2   178  ILE178      0.2593
     35  O        -42.6290  -27.8350   -6.6610 O.2   178  ILE178     -0.2718
     36  CB       -43.5640  -30.3030   -5.0880 C.3   178  ILE178      0.0266
     37  CG1      -42.9720  -31.5150   -4.3710 C.3   178  ILE178      0.0019
     38  CG2      -45.1120  -30.3490   -5.1220 C.3   178  ILE178      0.0020
     39  CD1      -43.5410  -31.7480   -2.9870 C.3   178  ILE178      0.0001
     40  N        -44.3250  -28.6750   -7.8600 N.am  179  SER179     -0.1938
     41  CA       -44.7670  -27.3700   -8.3210 C.3   179  SER179      0.2055
     42  C        -46.2850  -27.2680   -8.4710 C.2   179  SER179      0.2643
     43  O        -46.9810  -28.2670   -8.6750 O.2   179  SER179     -0.2714
     44  CB       -44.0840  -26.9980   -9.6380 C.3   179  SER179      0.2130
     45  OG       -44.4210  -27.8840  -10.6830 O.3   179  SER179     -0.2179
     46  N        -46.7830  -26.0450   -8.3420 N.am  180  TYR180     -0.1973
     47  CA       -48.1650  -25.7370   -8.6770 C.3   180  TYR180      0.1639
     48  C        -48.1900  -24.5650   -9.6620 C.2   180  TYR180      0.2290
     49  O        -47.6810  -23.4810   -9.3760 O.2   180  TYR180     -0.2864
     50  CB       -48.9890  -25.4310   -7.4250 C.3   180  TYR180      0.0560
     51  CG       -50.4500  -25.2120   -7.7430 C.ar  180  TYR180     -0.0198
     52  CD1      -51.2810  -26.2820   -8.0540 C.ar  180  TYR180     -0.0009
     53  CD2      -50.9870  -23.9380   -7.7710 C.ar  180  TYR180     -0.0009
     54  CE1      -52.6080  -26.0830   -8.3730 C.ar  180  TYR180      0.0417
     55  CE2      -52.3150  -23.7350   -8.0850 C.ar  180  TYR180      0.0417
     56  CZ       -53.1150  -24.8090   -8.3900 C.ar  180  TYR180      0.1957
     57  OH       -54.4390  -24.6040   -8.7080 O.3   180  TYR180     -0.2866
     58  N        -50.8010  -22.4560  -12.3100 N.3   182  TYR182     -0.1241
     59  CA       -52.2190  -22.2790  -12.5660 C.3   182  TYR182      0.1605
     60  C        -52.5010  -20.8610  -13.0380 C.2   182  TYR182      0.2264
     61  O        -52.1720  -19.8890  -12.3430 O.2   182  TYR182     -0.2867
     62  CB       -52.9830  -22.5680  -11.2750 C.3   182  TYR182      0.0534
     63  CG       -54.4880  -22.5330  -11.3760 C.ar  182  TYR182     -0.0201
     64  CD1      -55.1910  -23.5740  -11.9650 C.ar  182  TYR182     -0.0009
     65  CD2      -55.2060  -21.4770  -10.8430 C.ar  182  TYR182     -0.0009
     66  CE1      -56.5730  -23.5490  -12.0400 C.ar  182  TYR182      0.0417
     67  CE2      -56.5840  -21.4420  -10.9130 C.ar  182  TYR182      0.0417
     68  CZ       -57.2630  -22.4810  -11.5080 C.ar  182  TYR182      0.1957
     69  OH       -58.6390  -22.4390  -11.5760 O.3   182  TYR182     -0.2866
     70  N        -45.4280  -21.7630   -8.4850 N.3   187  ILE187     -0.1231
     71  CA       -44.5460  -21.9070   -7.3340 C.3   187  ILE187      0.1692
     72  C        -43.8780  -23.2830   -7.3600 C.2   187  ILE187      0.2592
     73  O        -44.5090  -24.2790   -7.7180 O.2   187  ILE187     -0.2718
     74  CB       -45.3170  -21.6420   -6.0270 C.3   187  ILE187      0.0266
     75  CG1      -44.3860  -21.7220   -4.8150 C.3   187  ILE187      0.0019
     76  CG2      -46.5080  -22.5840   -5.9080 C.3   187  ILE187      0.0020
     77  CD1      -44.9920  -21.0930   -3.5490 C.3   187  ILE187      0.0001
     78  N        -42.5930  -23.3350   -7.0150 N.am  188  VAL188     -0.1966
     79  CA       -41.8130  -24.5740   -7.1390 C.3   188  VAL188      0.1727
     80  C        -40.8200  -24.6980   -5.9990 C.2   188  VAL188      0.2616
     81  O        -40.2620  -23.6980   -5.5450 O.2   188  VAL188     -0.2715
     82  CB       -41.0220  -24.6210   -8.4760 C.3   188  VAL188      0.0290
     83  CG1      -40.1970  -25.9310   -8.6190 C.3   188  VAL188      0.0023
     84  CG2      -41.9540  -24.5140   -9.6190 C.3   188  VAL188      0.0023
     85  N        -40.6360  -25.9270   -5.5290 N.am  189  GLY189     -0.1955
     86  CA       -39.5400  -26.2730   -4.6430 C.3   189  GLY189      0.1869
     87  C        -38.8460  -27.4990   -5.2130 C.2   189  GLY189      0.2309
     88  O        -39.5040  -28.3470   -5.8070 O.2   189  GLY189     -0.2863
     89  N        -36.1110  -22.6860   -4.5380 N.3   216  THR216     -0.1218
     90  CA       -37.5230  -22.3730   -4.6610 C.3   216  THR216      0.1862
     91  C        -37.7010  -21.3260   -5.7430 C.2   216  THR216      0.2287
     92  O        -36.7800  -20.5510   -6.0360 O.2   216  THR216     -0.2866
     93  CB       -38.0740  -21.8050   -3.3470 C.3   216  THR216      0.1770
     94  OG1      -37.3110  -20.6500   -2.9660 O.3   216  THR216     -0.2211
     95  CG2      -37.9880  -22.8530   -2.2460 C.3   216  THR216      0.0375
@<TRIPOS>BOND
     1    22    21   ar
     2    23    21   ar
     3    21    20    1
     4    20    17    1
     5    60    59    1
     6    60    61    2
     7    17    18    1
     8    17    16    1
     9    59    58    1
    10    59    62    1
    11    18    19    2
    12    66    64   ar
    13    66    68   ar
    14    64    63   ar
    15    69    68    1
    16    68    67   ar
    17    16    11   am
    18    63    62    1
    19    63    65   ar
    20    67    65   ar
    21    12    11    2
    22     1     2    1
    23    45    44    1
    24    11    10    1
    25    27    26    2
    26    24    25    1
    27    26    25    1
    28     9     3   am
    29     9    10    1
    30     2     3    1
    31     2     5    1
    32    48    49    2
    33    48    47    1
    34    44    41    1
    35    84    82    1
    36     3     4    2
    37    10    13    1
    38    25    28    1
    39    57    56    1
    40    47    46    1
    41    47    50    1
    42    43    42    2
    43    83    82    1
    44     8     6    1
    45    70    71    1
    46    82    79    1
    47    42    46   am
    48    42    41    1
    49    56    54   ar
    50    56    55   ar
    51    54    52   ar
    52    28    29    1
    53     5     6    1
    54    41    40    1
    55    13    14    1
    56    13    15    1
    57     6     7    1
    58    55    53   ar
    59    52    51   ar
    60    40    34   am
    61    53    51   ar
    62    51    50    1
    63    73    72    2
    64    72    71    1
    65    72    78   am
    66    71    74    1
    67    29    30    1
    68    29    31    1
    69    79    78    1
    70    79    80    1
    71    34    35    2
    72    34    33    1
    73    32    33    1
    74    33    36    1
    75    92    91    2
    76    74    76    1
    77    74    75    1
    78    80    81    2
    79    80    85   am
    80    88    87    2
    81    91    90    1
    82    85    86    1
    83    87    86    1
    84    38    36    1
    85    36    37    1
    86    75    77    1
    87    90    89    1
    88    90    93    1
    89    37    39    1
    90    93    94    1
    91    93    95    1
