@<TRIPOS>MOLECULE
tmp/3poxB05.pdb
 80 76 0 0 0
SMALL
GASTEIGER

@<TRIPOS>ATOM
      1  N         -9.0210  -11.2980  -59.3920 N.3   216  THR216     -0.1203
      2  CA        -9.9260  -10.8780  -60.4350 C.3   216  THR216      0.1994
      3  C        -10.3870  -12.1550  -61.0900 C.2   216  THR216      0.2618
      4  O         -9.6860  -13.1640  -61.0320 O.2   216  THR216     -0.2717
      5  CB        -9.2130   -9.9850  -61.4710 C.3   216  THR216      0.1784
      6  OG1       -8.1330  -10.7130  -62.0760 O.3   216  THR216     -0.2211
      7  CG2       -8.6550   -8.7440  -60.7890 C.3   216  THR216      0.0376
      8  N        -11.5700  -12.1290  -61.6890 N.am  217  GLY217     -0.1942
      9  CA       -12.0390  -13.2990  -62.3990 C.3   217  GLY217      0.2014
     10  C        -12.8850  -12.9590  -63.6120 C.2   217  GLY217      0.2638
     11  O        -13.5650  -11.9320  -63.6340 O.2   217  GLY217     -0.2714
     12  N        -12.8200  -13.8310  -64.6210 N.am  218  LEU218     -0.1977
     13  CA       -13.6900  -13.7650  -65.7890 C.3   218  LEU218      0.1596
     14  C        -14.2280  -15.1630  -66.0580 C.2   218  LEU218      0.2287
     15  O        -13.5390  -16.1480  -65.8280 O.2   218  LEU218     -0.2864
     16  CB       -12.9170  -13.2710  -67.0280 C.3   218  LEU218      0.0297
     17  CG       -12.4130  -11.8230  -67.1050 C.3   218  LEU218      0.0022
     18  CD1      -11.5400  -11.6450  -68.3400 C.3   218  LEU218      0.0001
     19  CD2      -13.5720  -10.8460  -67.1590 C.3   218  LEU218      0.0001
     20  N        -11.2720  -17.9300  -65.5850 N.3   229  ALA229     -0.1231
     21  CA        -9.8940  -17.6620  -65.2080 C.3   229  ALA229      0.1694
     22  C         -9.8380  -16.6810  -64.0500 C.2   229  ALA229      0.2592
     23  O        -10.6790  -15.7860  -63.9280 O.2   229  ALA229     -0.2718
     24  CB        -9.1120  -17.1160  -66.4080 C.3   229  ALA229      0.0304
     25  N         -8.8430  -16.8780  -63.1930 N.am  230  ASN230     -0.1960
     26  CA        -8.6110  -16.0150  -62.0530 C.3   230  ASN230      0.1819
     27  C         -7.1630  -15.5520  -62.0490 C.2   230  ASN230      0.2621
     28  O         -6.2570  -16.3190  -62.3530 O.2   230  ASN230     -0.2715
     29  CB        -8.8840  -16.7650  -60.7360 C.3   230  ASN230      0.1195
     30  CG       -10.3620  -16.8190  -60.3730 C.2   230  ASN230      0.2630
     31  OD1      -10.9210  -17.9000  -60.1450 O.2   230  ASN230     -0.2716
     32  ND2      -10.9950  -15.6500  -60.2800 N.am  230  ASN230     -0.0877
     33  N         -6.9420  -14.2880  -61.7200 N.am  231  TYR231     -0.1974
     34  CA        -5.5960  -13.8390  -61.3810 C.3   231  TYR231      0.1639
     35  C         -5.6740  -13.0860  -60.0720 C.2   231  TYR231      0.2290
     36  O         -6.6050  -12.3110  -59.8550 O.2   231  TYR231     -0.2864
     37  CB        -4.9850  -12.9390  -62.4680 C.3   231  TYR231      0.0560
     38  CG        -3.6160  -12.4320  -62.0620 C.ar  231  TYR231     -0.0198
     39  CD1       -2.4700  -13.1720  -62.3230 C.ar  231  TYR231     -0.0009
     40  CD2       -3.4800  -11.2460  -61.3620 C.ar  231  TYR231     -0.0009
     41  CE1       -1.2200  -12.7190  -61.9310 C.ar  231  TYR231      0.0417
     42  CE2       -2.2430  -10.7850  -60.9680 C.ar  231  TYR231      0.0417
     43  CZ        -1.1170  -11.5260  -61.2480 C.ar  231  TYR231      0.1957
     44  OH         0.1100  -11.0600  -60.8380 O.3   231  TYR231     -0.2866
     45  N          1.7830  -14.7490  -56.3460 N.3   255  GLN255     -0.1245
     46  CA         0.8530  -14.3990  -57.4030 C.3   255  GLN255      0.1566
     47  C          0.2430  -15.6910  -57.9130 C.2   255  GLN255      0.2260
     48  O          0.9090  -16.7190  -57.9500 O.2   255  GLN255     -0.2867
     49  CB         1.5100  -13.5580  -58.5030 C.3   255  GLN255      0.0367
     50  CG         2.4890  -14.2630  -59.3960 C.3   255  GLN255      0.0905
     51  CD         3.1230  -13.2910  -60.4010 C.2   255  GLN255      0.2608
     52  OE1        3.7410  -12.2990  -60.0110 O.2   255  GLN255     -0.2717
     53  NE2        2.9420  -13.5600  -61.6930 N.am  255  GLN255     -0.0878
     54  N         -2.5770  -17.8630  -60.5470 N.3   257  VAL257     -0.1245
     55  CA        -3.3040  -17.9220  -61.8040 C.3   257  VAL257      0.1561
     56  C         -4.0500  -19.2340  -61.9130 C.2   257  VAL257      0.2260
     57  O         -3.4680  -20.2820  -61.7260 O.2   257  VAL257     -0.2867
     58  CB        -2.3320  -17.8760  -62.9940 C.3   257  VAL257      0.0252
     59  CG1       -3.1060  -17.9010  -64.2990 C.3   257  VAL257      0.0019
     60  CG2       -1.4560  -16.6630  -62.8870 C.3   257  VAL257      0.0019
     61  N         -6.9070  -21.4550  -64.4240 N.3   259  LEU259     -0.1245
     62  CA        -7.6800  -21.5270  -65.6520 C.3   259  LEU259      0.1561
     63  C         -8.4670  -22.8180  -65.6220 C.2   259  LEU259      0.2260
     64  O         -7.9540  -23.8430  -65.1920 O.2   259  LEU259     -0.2867
     65  CB        -6.7400  -21.5480  -66.8680 C.3   259  LEU259      0.0270
     66  CG        -5.7780  -20.3750  -67.0400 C.3   259  LEU259      0.0019
     67  CD1       -4.8260  -20.6370  -68.2120 C.3   259  LEU259      0.0001
     68  CD2       -6.5580  -19.1000  -67.2680 C.3   259  LEU259      0.0001
     69  N         -5.4760  -25.4300  -65.5450 N.3   275  TYR275     -0.1241
     70  CA        -4.1210  -25.0780  -65.2230 C.3   275  TYR275      0.1605
     71  C         -4.1490  -24.2330  -63.9590 C.2   275  TYR275      0.2264
     72  O         -4.9990  -23.3650  -63.7970 O.2   275  TYR275     -0.2867
     73  CB        -3.5080  -24.2960  -66.3790 C.3   275  TYR275      0.0534
     74  CG        -2.1790  -23.6530  -66.0480 C.ar  275  TYR275     -0.0201
     75  CD1       -0.9830  -24.3650  -66.1580 C.ar  275  TYR275     -0.0009
     76  CD2       -2.1180  -22.3320  -65.6300 C.ar  275  TYR275     -0.0009
     77  CE1        0.2420  -23.7650  -65.8570 C.ar  275  TYR275      0.0417
     78  CE2       -0.9040  -21.7270  -65.3390 C.ar  275  TYR275      0.0417
     79  CZ         0.2700  -22.4440  -65.4550 C.ar  275  TYR275      0.1957
     80  OH         1.4620  -21.8290  -65.1470 O.3   275  TYR275     -0.2866
@<TRIPOS>BOND
     1    18    17    1
     2    67    66    1
     3    68    66    1
     4    19    17    1
     5    17    16    1
     6    66    65    1
     7    16    13    1
     8    65    62    1
     9    24    21    1
    10    73    74    1
    11    73    70    1
    12    75    74   ar
    13    75    77   ar
    14    14    15    2
    15    14    13    1
    16    74    76   ar
    17    77    79   ar
    18    13    12    1
    19    62    63    1
    20    62    61    1
    21    76    78   ar
    22    63    64    2
    23    20    21    1
    24    69    70    1
    25    79    78   ar
    26    79    80    1
    27    70    71    1
    28    21    22    1
    29    12    10   am
    30    59    58    1
    31    22    23    2
    32    22    25   am
    33    71    72    2
    34    11    10    2
    35    10     9    1
    36    25    26    1
    37    58    60    1
    38    58    55    1
    39    37    38    1
    40    37    34    1
    41     9     8    1
    42    28    27    2
    43    39    38   ar
    44    39    41   ar
    45     6     5    1
    46    38    40   ar
    47    26    27    1
    48    26    29    1
    49    27    33   am
    50    41    43   ar
    51    56    55    1
    52    56    57    2
    53    55    54    1
    54    33    34    1
    55    53    51   am
    56     8     3   am
    57     5     7    1
    58     5     2    1
    59    34    35    1
    60    40    42   ar
    61    43    42   ar
    62    43    44    1
    63     3     4    2
    64     3     2    1
    65    29    30    1
    66     2     1    1
    67    51    52    2
    68    51    50    1
    69    30    32   am
    70    30    31    2
    71    35    36    2
    72    50    49    1
    73    49    46    1
    74    48    47    2
    75    47    46    1
    76    46    45    1
