@<TRIPOS>MOLECULE
tmp/3poxC04.pdb
 123 119 0 0 0
SMALL
GASTEIGER

@<TRIPOS>ATOM
      1  N        -28.5530  -65.2110  -57.2610 N.3   144  PHE144     -0.1241
      2  CA       -27.7160  -65.6170  -58.3900 C.3   144  PHE144      0.1605
      3  C        -28.2010  -65.0620  -59.7280 C.2   144  PHE144      0.2264
      4  O        -28.6940  -65.8080  -60.5740 O.2   144  PHE144     -0.2867
      5  CB       -27.5740  -67.1330  -58.4680 C.3   144  PHE144      0.0534
      6  CG       -26.4130  -67.5750  -59.2970 C.ar  144  PHE144     -0.0203
      7  CD1      -25.1450  -67.6390  -58.7470 C.ar  144  PHE144     -0.0042
      8  CD2      -26.5770  -67.8920  -60.6270 C.ar  144  PHE144     -0.0042
      9  CE1      -24.0630  -68.0310  -59.5050 C.ar  144  PHE144     -0.0003
     10  CE2      -25.4940  -68.2820  -61.3970 C.ar  144  PHE144     -0.0003
     11  CZ       -24.2360  -68.3510  -60.8330 C.ar  144  PHE144     -0.0000
     12  N        -24.2540  -64.2210  -53.0070 N.3   153  PHE153     -0.1227
     13  CA       -22.8120  -64.2130  -52.7830 C.3   153  PHE153      0.1736
     14  C        -22.2700  -62.8010  -52.8810 C.2   153  PHE153      0.2595
     15  O        -22.9580  -61.8910  -53.3420 O.2   153  PHE153     -0.2718
     16  CB       -22.0610  -65.1760  -53.7240 C.3   153  PHE153      0.0547
     17  CG       -22.0440  -64.7410  -55.1690 C.ar  153  PHE153     -0.0202
     18  CD1      -23.0710  -65.1000  -56.0270 C.ar  153  PHE153     -0.0042
     19  CD2      -20.9890  -63.9910  -55.6710 C.ar  153  PHE153     -0.0042
     20  CE1      -23.0590  -64.7060  -57.3560 C.ar  153  PHE153     -0.0003
     21  CE2      -20.9680  -63.5930  -57.0040 C.ar  153  PHE153     -0.0003
     22  CZ       -22.0080  -63.9490  -57.8440 C.ar  153  PHE153     -0.0000
     23  N        -21.0440  -62.6240  -52.4050 N.am  154  ALA154     -0.1966
     24  CA       -20.4050  -61.3280  -52.4120 C.3   154  ALA154      0.1728
     25  C        -18.9140  -61.5200  -52.6020 C.2   154  ALA154      0.2616
     26  O        -18.3530  -62.5420  -52.2050 O.2   154  ALA154     -0.2715
     27  CB       -20.6860  -60.5730  -51.1090 C.3   154  ALA154      0.0334
     28  N        -18.2860  -60.5290  -53.2210 N.am  155  VAL155     -0.1977
     29  CA       -16.8420  -60.4840  -53.3360 C.3   155  VAL155      0.1596
     30  C        -16.3970  -59.0930  -52.9170 C.2   155  VAL155      0.2287
     31  O        -17.0420  -58.1120  -53.2520 O.2   155  VAL155     -0.2864
     32  CB       -16.3770  -60.7290  -54.7840 C.3   155  VAL155      0.0276
     33  CG1      -14.8570  -60.7300  -54.8580 C.3   155  VAL155      0.0022
     34  CG2      -16.9530  -62.0310  -55.3180 C.3   155  VAL155      0.0022
     35  N        -14.7660  -63.0620  -49.7320 N.3   176  GLY176     -0.1210
     36  CA       -16.0410  -63.3280  -50.3630 C.3   176  GLY176      0.1956
     37  C        -16.9250  -64.1510  -49.4490 C.2   176  GLY176      0.2613
     38  O        -16.4650  -64.7070  -48.4540 O.2   176  GLY176     -0.2717
     39  N        -18.2110  -64.2060  -49.7720 N.am  177  SER177     -0.1938
     40  CA       -19.1350  -65.0170  -49.0090 C.3   177  SER177      0.2055
     41  C        -20.1800  -65.5780  -49.9510 C.2   177  SER177      0.2642
     42  O        -20.3110  -65.1340  -51.0950 O.2   177  SER177     -0.2714
     43  CB       -19.8240  -64.1720  -47.9260 C.3   177  SER177      0.2130
     44  OG       -20.7360  -63.2410  -48.5030 O.3   177  SER177     -0.2179
     45  N        -20.9440  -66.5390  -49.4510 N.am  178  ILE178     -0.1977
     46  CA       -21.9990  -67.1530  -50.2250 C.3   178  ILE178      0.1596
     47  C        -22.9630  -67.7590  -49.2290 C.2   178  ILE178      0.2287
     48  O        -22.5590  -68.2840  -48.1920 O.2   178  ILE178     -0.2864
     49  CB       -21.4300  -68.2370  -51.1640 C.3   178  ILE178      0.0276
     50  CG1      -22.5370  -68.8750  -52.0010 C.3   178  ILE178      0.0022
     51  CG2      -20.7070  -69.2900  -50.3670 C.3   178  ILE178      0.0022
     52  CD1      -22.0160  -69.9070  -52.9980 C.3   178  ILE178      0.0001
     53  N        -21.2290  -69.2420  -45.6840 N.3   189  GLY189     -0.1210
     54  CA       -19.7840  -69.3200  -45.5300 C.3   189  GLY189      0.1956
     55  C        -19.1150  -68.0580  -46.0490 C.2   189  GLY189      0.2612
     56  O        -19.6000  -67.4420  -46.9970 O.2   189  GLY189     -0.2717
     57  N        -18.0070  -67.6700  -45.4250 N.am  190  ALA190     -0.1965
     58  CA       -17.2900  -66.4710  -45.8230 C.3   190  ALA190      0.1728
     59  C        -15.8150  -66.5960  -45.4670 C.2   190  ALA190      0.2616
     60  O        -15.4770  -67.1890  -44.4530 O.2   190  ALA190     -0.2715
     61  CB       -17.8920  -65.2380  -45.1520 C.3   190  ALA190      0.0334
     62  N        -14.9450  -66.0320  -46.3080 N.am  191  TYR191     -0.1974
     63  CA       -13.4980  -66.1280  -46.0930 C.3   191  TYR191      0.1639
     64  C        -12.8100  -64.8870  -46.6260 C.2   191  TYR191      0.2290
     65  O        -13.1880  -64.3640  -47.6680 O.2   191  TYR191     -0.2864
     66  CB       -12.9220  -67.3740  -46.7920 C.3   191  TYR191      0.0560
     67  CG       -11.4040  -67.4340  -46.8050 C.ar  191  TYR191     -0.0198
     68  CD1      -10.7080  -68.2060  -45.8780 C.ar  191  TYR191     -0.0009
     69  CD2      -10.6690  -66.7200  -47.7430 C.ar  191  TYR191     -0.0009
     70  CE1       -9.3190  -68.2620  -45.8870 C.ar  191  TYR191      0.0417
     71  CE2       -9.2890  -66.7700  -47.7620 C.ar  191  TYR191      0.0417
     72  CZ        -8.6150  -67.5390  -46.8330 C.ar  191  TYR191      0.1957
     73  OH        -7.2350  -67.5750  -46.8580 O.3   191  TYR191     -0.2866
     74  N         -5.8870  -64.0950  -41.9470 N.3   212  GLU212     -0.1245
     75  CA        -7.0170  -64.8110  -42.5340 C.3   212  GLU212      0.1567
     76  C         -8.1510  -64.9430  -41.5340 C.2   212  GLU212      0.2260
     77  O         -7.9130  -65.1790  -40.3490 O.2   212  GLU212     -0.2867
     78  CB        -6.6100  -66.2180  -42.9800 C.3   212  GLU212      0.0388
     79  CG        -5.4730  -66.2750  -43.9660 C.3   212  GLU212      0.1160
     80  CD        -5.1280  -67.7070  -44.3460 C.2   212  GLU212      0.3649
     81  OE1       -6.0410  -68.4380  -44.8020 O.co2 212  GLU212     -0.2457
     82  OE2       -3.9550  -68.1050  -44.1660 O.co2 212  GLU212     -0.2457
     83  N        -12.2140  -66.7690  -41.4190 N.3   214  TRP214     -0.1241
     84  CA       -13.3670  -67.4060  -42.0490 C.3   214  TRP214      0.1605
     85  C        -14.3470  -67.8660  -40.9920 C.2   214  TRP214      0.2264
     86  O        -13.9790  -68.0550  -39.8440 O.2   214  TRP214     -0.2867
     87  CB       -12.9620  -68.5730  -42.9700 C.3   214  TRP214      0.0550
     88  CG       -12.2780  -69.6990  -42.2710 C.ar  214  TRP214      0.0003
     89  CD1      -10.9370  -69.8590  -42.0970 C.ar  214  TRP214      0.0946
     90  CD2      -12.9030  -70.8330  -41.6510 C.ar  214  TRP214      0.0152
     91  NE1      -10.6840  -71.0230  -41.4040 N.ar  214  TRP214     -0.2442
     92  CE2      -11.8730  -71.6410  -41.1250 C.ar  214  TRP214      0.0810
     93  CE3      -14.2340  -71.2470  -41.4990 C.ar  214  TRP214      0.0012
     94  CZ2      -12.1300  -72.8350  -40.4470 C.ar  214  TRP214      0.0191
     95  CZ3      -14.4890  -72.4360  -40.8260 C.ar  214  TRP214      0.0001
     96  CH2      -13.4370  -73.2160  -40.3110 C.ar  214  TRP214      0.0015
     97  N        -18.4100  -70.0450  -40.6640 N.3   216  THR216     -0.1218
     98  CA       -19.5520  -70.7110  -41.2760 C.3   216  THR216      0.1862
     99  C        -20.7440  -70.5360  -40.3410 C.2   216  THR216      0.2287
    100  O        -20.5630  -70.2420  -39.1660 O.2   216  THR216     -0.2866
    101  CB       -19.2910  -72.2180  -41.4990 C.3   216  THR216      0.1770
    102  OG1      -18.8890  -72.8270  -40.2680 O.3   216  THR216     -0.2211
    103  CG2      -18.1940  -72.4280  -42.5340 C.3   216  THR216      0.0375
    104  N        -12.5960  -69.5690  -37.7110 N.3   233  GLU233     -0.1245
    105  CA       -11.2120  -69.5610  -37.2710 C.3   233  GLU233      0.1567
    106  C        -10.5150  -68.3460  -37.8540 C.2   233  GLU233      0.2260
    107  O        -10.9070  -67.8430  -38.9110 O.2   233  GLU233     -0.2867
    108  CB       -10.4990  -70.8520  -37.6970 C.3   233  GLU233      0.0388
    109  CG       -11.0380  -72.1120  -37.0230 C.3   233  GLU233      0.1160
    110  CD       -10.2870  -73.3730  -37.4400 C.2   233  GLU233      0.3649
    111  OE1       -9.2910  -73.2630  -38.1950 O.co2 233  GLU233     -0.2457
    112  OE2      -10.6970  -74.4730  -37.0070 O.co2 233  GLU233     -0.2457
    113  N         -6.3860  -66.3930  -38.3220 N.3   235  ARG235     -0.1245
    114  CA        -4.9380  -66.5040  -38.2630 C.3   235  ARG235      0.1563
    115  C         -4.3570  -65.1140  -38.3420 C.2   235  ARG235      0.2260
    116  O         -4.5840  -64.4040  -39.3250 O.2   235  ARG235     -0.2867
    117  CB        -4.4070  -67.3260  -39.4520 C.3   235  ARG235      0.0307
    118  CG        -4.9380  -68.7440  -39.5060 C.3   235  ARG235      0.0489
    119  CD        -4.3900  -69.5720  -38.3520 C.3   235  ARG235      0.2205
    120  NE        -4.7970  -70.9680  -38.4590 N.pl3 235  ARG235     -0.0865
    121  CZ        -5.8650  -71.4920  -37.8640 C.cat 235  ARG235      0.5346
    122  NH1       -6.6460  -70.7380  -37.0940 N.pl3 235  ARG235      0.1354
    123  NH2       -6.1440  -72.7800  -38.0310 N.pl3 235  ARG235      0.1354
@<TRIPOS>BOND
     1    10    11   ar
     2    10     8   ar
     3    11     9   ar
     4     8     6   ar
     5     4     3    2
     6     3     2    1
     7     9     7   ar
     8     6     7   ar
     9     6     5    1
    10     5     2    1
    11     2     1    1
    12    22    20   ar
    13    22    21   ar
    14    20    18   ar
    15    21    19   ar
    16    18    17   ar
    17    19    17   ar
    18    34    32    1
    19    17    16    1
    20    33    32    1
    21    32    29    1
    22    16    13    1
    23    15    14    2
    24    29    28    1
    25    29    30    1
    26    31    30    2
    27    28    25   am
    28    12    13    1
    29    52    50    1
    30    14    13    1
    31    14    23   am
    32    25    24    1
    33    25    26    2
    34    24    23    1
    35    24    27    1
    36    50    49    1
    37    49    51    1
    38    49    46    1
    39    42    41    2
    40    36    35    1
    41    36    37    1
    42    46    45    1
    43    46    47    1
    44    41    45   am
    45    41    40    1
    46    39    37   am
    47    39    40    1
    48    37    38    2
    49    47    48    2
    50    40    43    1
    51    44    43    1
    52    71    69   ar
    53    71    72   ar
    54    69    67   ar
    55    65    64    2
    56    56    55    2
    57    73    72    1
    58    72    70   ar
    59    67    66    1
    60    67    68   ar
    61    66    63    1
    62    64    63    1
    63    62    63    1
    64    62    59   am
    65    55    54    1
    66    55    57   am
    67    70    68   ar
    68    58    59    1
    69    58    57    1
    70    58    61    1
    71    53    54    1
    72    59    60    2
    73    81    80   ar
    74    80    82   ar
    75    80    79    1
    76    79    78    1
    77    78    75    1
    78    87    88    1
    79    87    84    1
    80    75    74    1
    81    75    76    1
    82   103   101    1
    83    88    89   ar
    84    88    90   ar
    85    89    91   ar
    86    84    83    1
    87    84    85    1
    88    90    93   ar
    89    90    92   ar
    90    76    77    2
    91    93    95   ar
    92   101    98    1
    93   101   102    1
    94    91    92   ar
    95    98    97    1
    96    98    99    1
    97    92    94   ar
    98    85    86    2
    99    95    96   ar
   100    94    96   ar
   101    99   100    2
   102   118   117    1
   103   118   119    1
   104   117   114    1
   105   116   115    2
   106   107   106    2
   107   120   119    1
   108   120   121    2
   109   115   114    1
   110   113   114    1
   111   111   110   ar
   112   123   121    1
   113   121   122    1
   114   106   105    1
   115   104   105    1
   116   108   105    1
   117   108   109    1
   118   110   109    1
   119   110   112   ar
