@<TRIPOS>MOLECULE
tmp/3pp0A00.pdb
 190 176 0 0 0
SMALL
GASTEIGER

@<TRIPOS>ATOM
      1  N         14.8200    6.9050   24.3780 N.3    21  LEU21      -0.1231
      2  CA        14.8480    7.2380   25.7850 C.3    21  LEU21       0.1693
      3  C         13.4690    7.5860   26.2930 C.2    21  LEU21       0.2593
      4  O         13.1420    7.3220   27.4460 O.2    21  LEU21      -0.2718
      5  CB        15.8030    8.3900   26.0470 C.3    21  LEU21       0.0284
      6  CG        17.2580    7.9660   26.2040 C.3    21  LEU21       0.0019
      7  CD1       18.0660    9.1940   26.4550 C.3    21  LEU21       0.0001
      8  CD2       17.4500    6.9380   27.3360 C.3    21  LEU21       0.0001
      9  N         12.6680    8.1770   25.4180 N.am   22  GLY22      -0.1942
     10  CA        11.3330    8.6320   25.7710 C.3    22  GLY22       0.2014
     11  C         10.9440    9.8340   24.9380 C.2    22  GLY22       0.2640
     12  O         11.6140   10.1620   23.9550 O.2    22  GLY22      -0.2714
     13  N          9.8480   10.4740   25.3350 N.am   23  SER23      -0.1935
     14  CA         9.3630   11.6840   24.6820 C.3    23  SER23       0.2055
     15  C          9.7420   12.9040   25.4960 C.2    23  SER23       0.2643
     16  O          9.5780   12.9150   26.7180 O.2    23  SER23      -0.2714
     17  CB         7.8450   11.6370   24.5050 C.3    23  SER23       0.2130
     18  OG         7.4950   10.9360   23.3240 O.3    23  SER23      -0.2179
     19  N         10.2690   13.9170   24.8120 N.am   24  GLY24      -0.1954
     20  CA        10.4000   15.2490   25.3860 C.3    24  GLY24       0.1869
     21  C          9.1140   15.9980   25.1070 C.2    24  GLY24       0.2309
     22  O          8.0910   15.3820   24.7890 O.2    24  GLY24      -0.2863
     23  N         13.1910   11.6920   22.0740 N.3    29  VAL29      -0.1245
     24  CA        14.5670   11.6820   22.5470 C.3    29  VAL29       0.1561
     25  C         15.2030   10.2820   22.4760 C.2    29  VAL29       0.2260
     26  O         14.6560    9.2910   22.9760 O.2    29  VAL29      -0.2867
     27  CB        14.6790   12.2460   23.9900 C.3    29  VAL29       0.0252
     28  CG1       16.1390   12.3490   24.4190 C.3    29  VAL29       0.0019
     29  CG2       13.9970   13.6270   24.0970 C.3    29  VAL29       0.0019
     30  N         22.2300   12.1670   24.3350 N.3    46  ALA46      -0.1245
     31  CA        20.8300   12.1270   24.0740 C.3    46  ALA46       0.1562
     32  C         20.6090   12.9790   22.8260 C.2    46  ALA46       0.2260
     33  O         21.2470   14.0150   22.6500 O.2    46  ALA46      -0.2867
     34  CB        20.0780   12.6810   25.2350 C.3    46  ALA46       0.0290
     35  N         17.4970   14.6710   20.7150 N.3    48  LYS48      -0.1245
     36  CA        16.0790   14.9390   20.6100 C.3    48  LYS48       0.1561
     37  C         15.7750   15.3550   19.1860 C.2    48  LYS48       0.2260
     38  O         16.3530   16.3030   18.6630 O.2    48  LYS48      -0.2867
     39  CB        15.6270   15.9940   21.6200 C.3    48  LYS48       0.0271
     40  CG        14.1200   16.2750   21.6100 C.3    48  LYS48       0.0035
     41  CD        13.6800   17.1830   22.7730 C.3    48  LYS48       0.0206
     42  CE        12.2240   17.6120   22.6060 C.3    48  LYS48       0.1093
     43  NZ        11.8500   18.7490   23.5120 N.3    48  LYS48      -0.1314
     44  N         13.3770   27.5840   18.1640 N.3    62  ILE62      -0.1245
     45  CA        14.3610   26.5210   18.3340 C.3    62  ILE62       0.1561
     46  C         15.7660   27.1360   18.4280 C.2    62  ILE62       0.2260
     47  O         16.5510   26.7710   19.3010 O.2    62  ILE62      -0.2867
     48  CB        14.2350   25.4860   17.2140 C.3    62  ILE62       0.0252
     49  CG1       12.9240   24.7120   17.3940 C.3    62  ILE62       0.0019
     50  CG2       15.4090   24.5190   17.2350 C.3    62  ILE62       0.0019
     51  CD1       12.4390   23.9980   16.1280 C.3    62  ILE62       0.0001
     52  N         16.4620   28.9710   21.8100 N.3    65  GLU65      -0.1231
     53  CA        16.7430   27.9870   22.8430 C.3    65  GLU65       0.1699
     54  C         18.1760   27.5190   22.6780 C.2    65  GLU65       0.2592
     55  O         18.8910   27.3090   23.6570 O.2    65  GLU65      -0.2718
     56  CB        15.8090   26.7710   22.6890 C.3    65  GLU65       0.0402
     57  CG        14.3610   27.0330   23.0440 C.3    65  GLU65       0.1161
     58  CD        13.4070   26.0780   22.3510 C.2    65  GLU65       0.3649
     59  OE1       12.2000   26.4080   22.2480 O.co2  65  GLU65      -0.2457
     60  OE2       13.8560   24.9810   21.9290 O.co2  65  GLU65      -0.2457
     61  N         18.5760   27.3390   21.4240 N.am   66  ALA66      -0.1980
     62  CA        19.9170   26.9010   21.1050 C.3    66  ALA66       0.1597
     63  C         20.9290   28.0000   21.4280 C.2    66  ALA66       0.2287
     64  O         22.0220   27.7140   21.9020 O.2    66  ALA66      -0.2864
     65  CB        20.0000   26.4920   19.6540 C.3    66  ALA66       0.0319
     66  N         21.0540   27.8270   25.3700 N.3    69  MET69      -0.1245
     67  CA        21.5230   26.5690   25.9270 C.3    69  MET69       0.1570
     68  C         22.9110   26.1070   25.5090 C.2    69  MET69       0.2261
     69  O         23.4430   25.1690   26.1030 O.2    69  MET69      -0.2867
     70  CB        20.4860   25.4720   25.7100 C.3    69  MET69       0.0387
     71  CG        19.7330   25.1430   26.9810 C.3    69  MET69       0.0595
     72  SD        19.3090   26.5920   27.9650 S.3    69  MET69      -0.1393
     73  CE        17.9590   27.1880   26.9520 C.3    69  MET69       0.0692
     74  N         20.8870   21.6080   31.3320 N.3    78  SER78      -0.1217
     75  CA        21.5270   20.7870   30.3210 C.3    78  SER78       0.1889
     76  C         21.9730   21.6590   29.1590 C.2    78  SER78       0.2288
     77  O         21.2340   22.5130   28.6780 O.2    78  SER78      -0.2866
     78  CB        20.5800   19.7060   29.8300 C.3    78  SER78       0.2089
     79  OG        19.5400   20.3030   29.0960 O.3    78  SER78      -0.2183
     80  N         23.3510   22.4520   25.3610 N.3    80  LEU80      -0.1245
     81  CA        23.2290   21.9740   24.0000 C.3    80  LEU80       0.1561
     82  C         24.6290   21.7970   23.3930 C.2    80  LEU80       0.2260
     83  O         25.3230   22.7710   23.1560 O.2    80  LEU80      -0.2867
     84  CB        22.4090   22.9570   23.1800 C.3    80  LEU80       0.0270
     85  CG        22.1280   22.4760   21.7560 C.3    80  LEU80       0.0019
     86  CD1       21.1400   21.2850   21.7580 C.3    80  LEU80       0.0001
     87  CD2       21.6220   23.6200   20.9480 C.3    80  LEU80       0.0001
     88  N         18.6380   17.8260   18.1190 N.3    91  LEU91      -0.1245
     89  CA        19.3120   18.5220   19.1840 C.3    91  LEU91       0.1561
     90  C         20.1080   17.4840   19.9510 C.2    91  LEU91       0.2260
     91  O         19.5930   16.4140   20.2930 O.2    91  LEU91      -0.2867
     92  CB        18.2860   19.2030   20.0950 C.3    91  LEU91       0.0270
     93  CG        17.2660   20.1460   19.4280 C.3    91  LEU91       0.0019
     94  CD1       16.3090   20.7000   20.4510 C.3    91  LEU91       0.0001
     95  CD2       17.9700   21.2890   18.7100 C.3    91  LEU91       0.0001
     96  N         22.8160   16.5900   23.1680 N.3    93  THR93      -0.1203
     97  CA        23.1810   16.9730   24.5180 C.3    93  THR93       0.1994
     98  C         23.8630   15.7850   25.1940 C.2    93  THR93       0.2618
     99  O         23.7790   14.6610   24.7090 O.2    93  THR93      -0.2717
    100  CB        21.9180   17.4240   25.3170 C.3    93  THR93       0.1784
    101  OG1       22.3040   18.2390   26.4230 O.3    93  THR93      -0.2211
    102  CG2       21.1210   16.2270   25.8110 C.3    93  THR93       0.0376
    103  N         24.5340   16.0370   26.3150 N.am   94  GLN94      -0.1965
    104  CA        25.2150   14.9820   27.0470 C.3    94  GLN94       0.1733
    105  C         24.1980   14.0410   27.6710 C.2    94  GLN94       0.2616
    106  O         23.2510   14.4910   28.3240 O.2    94  GLN94      -0.2715
    107  CB        26.1290   15.5650   28.1270 C.3    94  GLN94       0.0408
    108  CG        27.0160   14.5150   28.8220 C.3    94  GLN94       0.0908
    109  CD        28.1930   15.1200   29.5760 C.2    94  GLN94       0.2608
    110  OE1       28.2750   16.3400   29.7690 O.2    94  GLN94      -0.2717
    111  NE2       29.1160   14.2640   30.0030 N.am   94  GLN94      -0.0878
    112  N         24.3820   12.7410   27.4530 N.am   95  LEU95      -0.1963
    113  CA        23.4940   11.7430   28.0340 C.3    95  LEU95       0.1728
    114  C         23.6520   11.7670   29.5580 C.2    95  LEU95       0.2616
    115  O         24.7740   11.8120   30.0810 O.2    95  LEU95      -0.2715
    116  CB        23.7980   10.3580   27.4700 C.3    95  LEU95       0.0311
    117  CG        22.9750    9.2070   28.0420 C.3    95  LEU95       0.0022
    118  CD1       21.5180    9.2320   27.5360 C.3    95  LEU95       0.0001
    119  CD2       23.6760    7.8930   27.7490 C.3    95  LEU95       0.0001
    120  N         22.5240   11.7780   30.2610 N.am   96  MET96      -0.1977
    121  CA        22.5270   11.7460   31.7190 C.3    96  MET96       0.1605
    122  C         22.1770   10.3230   32.1340 C.2    96  MET96       0.2287
    123  O         21.0530    9.8820   31.9370 O.2    96  MET96      -0.2864
    124  CB        21.5620   12.7840   32.3020 C.3    96  MET96       0.0413
    125  CG        21.7880   14.2080   31.7760 C.3    96  MET96       0.0598
    126  SD        23.1070   15.0450   32.6890 S.3    96  MET96      -0.1393
    127  CE        24.5760   14.7310   31.7360 C.3    96  MET96       0.0692
    128  N         18.7630    9.0280   33.8600 N.3    99  GLY99      -0.1210
    129  CA        17.4410    9.3320   33.2900 C.3    99  GLY99       0.1956
    130  C         16.7450   10.5140   33.9510 C.2    99  GLY99       0.2612
    131  O         17.3890   11.3180   34.6260 O.2    99  GLY99      -0.2717
    132  N         15.4310   10.6380   33.7720 N.am  100  CYS100     -0.1970
    133  CA        14.7770   11.8220   34.2930 C.3   100  CYS100      0.1712
    134  C         14.4930   11.6720   35.7680 C.2   100  CYS100      0.2296
    135  O         14.3240   10.5620   36.2540 O.2   100  CYS100     -0.2864
    136  CB        13.5300   12.2160   33.4980 C.3   100  CYS100      0.0983
    137  SG        12.0390   11.4090   33.9270 S.3   100  CYS100     -0.0798
    138  N          9.4940   15.4470   35.0960 N.3   144  ARG144     -0.1231
    139  CA         9.7850   14.8030   33.7990 C.3   144  ARG144      0.1694
    140  C         10.7750   15.5610   32.9130 C.2   144  ARG144      0.2592
    141  O         11.2140   15.0120   31.9070 O.2   144  ARG144     -0.2718
    142  CB         8.4960   14.5420   32.9930 C.3   144  ARG144      0.0321
    143  CG         7.9210   15.7730   32.3210 C.3   144  ARG144      0.0489
    144  CD         6.5310   15.4920   31.7020 C.3   144  ARG144      0.2205
    145  NE         5.8330   16.7630   31.4960 N.pl3 144  ARG144     -0.0865
    146  CZ         5.0470   17.3420   32.4010 C.cat 144  ARG144      0.5346
    147  NH1        4.4730   18.5010   32.1370 N.pl3 144  ARG144      0.1354
    148  NH2        4.8050   16.7490   33.5580 N.pl3 144  ARG144      0.1354
    149  N         11.1150   16.8040   33.2740 N.am  145  ASN145     -0.1974
    150  CA        12.0430   17.6220   32.4870 C.3   145  ASN145      0.1688
    151  C         13.3040   18.0100   33.2410 C.2   145  ASN145      0.2292
    152  O         14.0140   18.9510   32.8730 O.2   145  ASN145     -0.2864
    153  CB        11.3240   18.8500   31.9080 C.3   145  ASN145      0.1181
    154  CG        10.3480   18.4680   30.8180 C.2   145  ASN145      0.2629
    155  OD1       10.6190   17.5460   30.0390 O.2   145  ASN145     -0.2716
    156  ND2        9.2030   19.1290   30.7730 N.am  145  ASN145     -0.0877
    157  N         16.8130   16.1280   34.7740 N.3   147  LEU147     -0.1245
    158  CA        17.5520   14.9010   34.5710 C.3   147  LEU147      0.1561
    159  C         18.4980   14.6920   35.7270 C.2   147  LEU147      0.2260
    160  O         18.8550   15.6400   36.4170 O.2   147  LEU147     -0.2867
    161  CB        18.3150   14.9650   33.2460 C.3   147  LEU147      0.0270
    162  CG        17.4470   15.1410   31.9910 C.3   147  LEU147      0.0019
    163  CD1       18.3160   15.4130   30.7990 C.3   147  LEU147      0.0001
    164  CD2       16.5840   13.9460   31.7370 C.3   147  LEU147      0.0001
    165  N         16.0810   20.4110   31.7460 N.3   157  THR157     -0.1203
    166  CA        16.2630   20.1430   30.3380 C.3   157  THR157      0.1994
    167  C         15.0040   20.3600   29.4970 C.2   157  THR157      0.2618
    168  O         14.0880   21.0630   29.9090 O.2   157  THR157     -0.2717
    169  CB        16.8340   18.7360   30.0930 C.3   157  THR157      0.1784
    170  OG1       17.2730   18.6450   28.7270 O.3   157  THR157     -0.2211
    171  CG2       15.7730   17.6630   30.3750 C.3   157  THR157      0.0376
    172  N         15.0340   19.7600   28.3010 N.am  158  ASP158     -0.1959
    173  CA        13.9710   19.7450   27.3030 C.3   158  ASP158      0.1840
    174  C         13.7890   21.0550   26.5610 C.2   158  ASP158      0.2622
    175  O         14.1170   21.1510   25.3640 O.2   158  ASP158     -0.2715
    176  CB        12.6380   19.2400   27.8480 C.3   158  ASP158      0.1450
    177  CG        11.6700   18.9460   26.7440 C.2   158  ASP158      0.3671
    178  OD1       10.9310   19.8790   26.3400 O.co2 158  ASP158     -0.2456
    179  OD2       11.6950   17.8030   26.2360 O.co2 158  ASP158     -0.2456
    180  N         13.2470   22.0470   27.2550 N.am  159  PHE159     -0.1974
    181  CA        13.1200   23.4080   26.7090 C.3   159  PHE159      0.1639
    182  C         12.2290   23.5080   25.4780 C.2   159  PHE159      0.2290
    183  O         12.2140   24.5420   24.8150 O.2   159  PHE159     -0.2864
    184  CB        14.4900   24.0020   26.3630 C.3   159  PHE159      0.0560
    185  CG        15.4300   24.0170   27.4930 C.ar  159  PHE159     -0.0200
    186  CD1       15.2760   24.9430   28.5260 C.ar  159  PHE159     -0.0042
    187  CD2       16.4870   23.1160   27.5370 C.ar  159  PHE159     -0.0042
    188  CE1       16.1780   24.9750   29.5910 C.ar  159  PHE159     -0.0003
    189  CE2       17.3980   23.1370   28.6000 C.ar  159  PHE159     -0.0003
    190  CZ        17.2410   24.0720   29.6330 C.ar  159  PHE159     -0.0000
@<TRIPOS>BOND
     1    51    49    1
     2    48    50    1
     3    48    49    1
     4    48    45    1
     5    88    89    1
     6    44    45    1
     7    45    46    1
     8    46    47    2
     9    38    37    2
    10    95    93    1
    11    89    90    1
    12    89    92    1
    13    37    36    1
    14    93    92    1
    15    93    94    1
    16    65    62    1
    17    90    91    2
    18    36    35    1
    19    36    39    1
    20    87    85    1
    21    62    61    1
    22    62    63    1
    23    61    54   am
    24    63    64    2
    25    40    39    1
    26    40    41    1
    27    85    86    1
    28    85    84    1
    29    52    53    1
    30    60    58   ar
    31    23    24    1
    32    59    58   ar
    33    58    57    1
    34    25    24    1
    35    25    26    2
    36    24    27    1
    37    42    41    1
    38    42    43    1
    39    33    32    2
    40    54    53    1
    41    54    55    2
    42    56    53    1
    43    56    57    1
    44    32    31    1
    45    83    82    2
    46    96    97    1
    47    84    81    1
    48    18    17    1
    49    82    81    1
    50    12    11    2
    51    27    29    1
    52    27    28    1
    53    81    80    1
    54    31    30    1
    55    31    34    1
    56     1     2    1
    57    17    14    1
    58    97    98    1
    59    97   100    1
    60    14    13    1
    61    14    15    1
    62    99    98    2
    63    22    21    2
    64    19    20    1
    65    19    15   am
    66   183   182    2
    67    11    13   am
    68    11    10    1
    69    21    20    1
    70    98   103   am
    71   100   102    1
    72   100   101    1
    73   175   174    2
    74    66    67    1
    75     9    10    1
    76     9     3   am
    77   182   181    1
    78    15    16    2
    79    68    67    1
    80    68    69    2
    81    70    67    1
    82    70    71    1
    83     2     5    1
    84     2     3    1
    85     5     6    1
    86     6     7    1
    87     6     8    1
    88   179   177   ar
    89     3     4    2
    90   103   104    1
    91   178   177   ar
    92   184   181    1
    93   184   185    1
    94   174   180   am
    95   174   173    1
    96   181   180    1
    97   177   176    1
    98    73    72    1
    99    71    72    1
   100   104   105    1
   101   104   107    1
   102   173   176    1
   103   173   172    1
   104   112   105   am
   105   112   113    1
   106   116   113    1
   107   116   117    1
   108   185   187   ar
   109   185   186   ar
   110   118   117    1
   111   187   189   ar
   112   105   106    2
   113   119   117    1
   114   113   114    1
   115   107   108    1
   116   172   167   am
   117   186   188   ar
   118   189   190   ar
   119    77    76    2
   120   170   169    1
   121   108   109    1
   122    79    78    1
   123    76    75    1
   124   167   168    2
   125   167   166    1
   126   114   115    2
   127   114   120   am
   128   109   110    2
   129   109   111   am
   130   188   190   ar
   131    78    75    1
   132   155   154    2
   133   169   166    1
   134   169   171    1
   135   120   121    1
   136    75    74    1
   137   166   165    1
   138   156   154   am
   139   163   162    1
   140   154   153    1
   141   145   144    1
   142   145   146    2
   143   144   143    1
   144   121   122    1
   145   121   124    1
   146   127   126    1
   147   164   162    1
   148   125   124    1
   149   125   126    1
   150   141   140    2
   151   153   150    1
   152   123   122    2
   153   162   161    1
   154   147   146    1
   155   143   142    1
   156   146   148    1
   157   150   151    1
   158   150   149    1
   159   152   151    2
   160   140   149   am
   161   140   139    1
   162   142   139    1
   163   161   158    1
   164   129   128    1
   165   129   130    1
   166   136   137    1
   167   136   133    1
   168   132   130   am
   169   132   133    1
   170   139   138    1
   171   130   131    2
   172   133   134    1
   173   158   157    1
   174   158   159    1
   175   159   160    2
   176   134   135    2
