@<TRIPOS>MOLECULE
tmp/3pp1A01.pdb
 187 175 0 0 0
SMALL
GASTEIGER

@<TRIPOS>ATOM
      1  N        -21.7830   28.7040    6.9880 N.3    17  GLY17      -0.1210
      2  CA       -21.7630   28.9470    5.5560 C.3    17  GLY17       0.1956
      3  C        -21.5340   30.4210    5.2730 C.2    17  GLY17       0.2612
      4  O        -20.7560   31.0920    5.9740 O.2    17  GLY17      -0.2717
      5  N        -22.2050   30.9250    4.2390 N.am   18  ASN18      -0.1960
      6  CA       -22.2200   32.3490    3.9610 C.3    18  ASN18       0.1819
      7  C        -23.3940   33.0060    4.6450 C.2    18  ASN18       0.2622
      8  O        -24.5460   32.7760    4.2690 O.2    18  ASN18      -0.2715
      9  CB       -22.2850   32.6080    2.4590 C.3    18  ASN18       0.1195
     10  CG       -20.9690   32.3490    1.7730 C.2    18  ASN18       0.2630
     11  OD1      -19.9350   32.1790    2.4270 O.2    18  ASN18      -0.2716
     12  ND2      -20.9960   32.3160    0.4430 N.am   18  ASN18      -0.0877
     13  N        -23.0950   33.8050    5.6650 N.am   19  GLY19      -0.1940
     14  CA       -24.1140   34.6030    6.3480 C.3    19  GLY19       0.2014
     15  C        -24.8590   33.9350    7.4940 C.2    19  GLY19       0.2639
     16  O        -25.7300   34.5660    8.1000 O.2    19  GLY19      -0.2714
     17  N        -24.5200   32.6750    7.7980 N.am   20  GLY20      -0.1954
     18  CA       -25.1250   31.9310    8.9200 C.3    20  GLY20       0.1869
     19  C        -24.2200   30.9370    9.6430 C.2    20  GLY20       0.2309
     20  O        -23.3990   30.2560    9.0240 O.2    20  GLY20      -0.2863
     21  N        -29.6070   27.9290   14.1800 N.3    37  LYS37      -0.1245
     22  CA       -28.9270   28.7000   13.1310 C.3    37  LYS37       0.1561
     23  C        -29.0060   30.1780   13.4380 C.2    37  LYS37       0.2260
     24  O        -30.1010   30.7120   13.6280 O.2    37  LYS37      -0.2867
     25  CB       -29.5570   28.4430   11.7500 C.3    37  LYS37       0.0271
     26  CG       -29.0160   29.3540   10.6450 C.3    37  LYS37       0.0035
     27  CD       -29.5320   29.0080    9.2650 C.3    37  LYS37       0.0206
     28  CE       -28.5910   28.0500    8.5140 C.3    37  LYS37       0.1093
     29  NZ       -28.6540   28.2500    7.0120 N.3    37  LYS37      -0.1314
     30  N        -28.3290   33.9940   11.9730 N.3    39  ILE39      -0.1245
     31  CA       -28.0360   34.8610   10.8450 C.3    39  ILE39       0.1561
     32  C        -27.7690   36.2400   11.3940 C.2    39  ILE39       0.2260
     33  O        -28.6820   36.8780   11.9120 O.2    39  ILE39      -0.2867
     34  CB       -29.2120   34.9400    9.8570 C.3    39  ILE39       0.0252
     35  CG1      -29.4060   33.6000    9.1530 C.3    39  ILE39       0.0019
     36  CG2      -28.9750   36.0400    8.8210 C.3    39  ILE39       0.0019
     37  CD1      -30.8260   33.3160    8.7660 C.3    39  ILE39       0.0001
     38  N        -41.3170   34.1260    9.0800 N.3    55  LEU55      -0.1245
     39  CA       -40.7020   32.8240    9.4000 C.3    55  LEU55       0.1561
     40  C        -41.6080   31.8660   10.1590 C.2    55  LEU55       0.2260
     41  O        -41.3470   30.6740   10.1930 O.2    55  LEU55      -0.2867
     42  CB       -39.4010   33.0010   10.1890 C.3    55  LEU55       0.0270
     43  CG       -38.1550   33.5600    9.4860 C.3    55  LEU55       0.0019
     44  CD1      -37.0310   33.8580   10.5060 C.3    55  LEU55       0.0001
     45  CD2      -37.6470   32.6590    8.3610 C.3    55  LEU55       0.0001
     46  N        -43.1700   28.2680    9.1260 N.3    58  LEU58      -0.1245
     47  CA       -42.4570   27.0050    9.2440 C.3    58  LEU58       0.1561
     48  C        -43.0830   26.0890   10.3080 C.2    58  LEU58       0.2260
     49  O        -42.7200   24.9140   10.3970 O.2    58  LEU58      -0.2867
     50  CB       -40.9850   27.2650    9.5510 C.3    58  LEU58       0.0270
     51  CG       -40.1410   28.0170    8.5240 C.3    58  LEU58       0.0019
     52  CD1      -38.8940   28.5900    9.1990 C.3    58  LEU58       0.0001
     53  CD2      -39.7560   27.0760    7.3970 C.3    58  LEU58       0.0001
     54  N        -45.1340   23.7790    8.3760 N.3    61  CYS61      -0.1235
     55  CA       -44.3580   22.7870    7.6250 C.3    61  CYS61       0.1677
     56  C        -44.2280   21.5100    8.4430 C.2    61  CYS61       0.2270
     57  O        -43.4090   21.4260    9.3630 O.2    61  CYS61      -0.2867
     58  CB       -42.9720   23.3130    7.2380 C.3    61  CYS61       0.0956
     59  SG       -43.0080   24.5910    5.9740 S.3    61  CYS61      -0.0801
     60  N        -38.9530   17.3020    5.1820 N.3    66  ILE66      -0.1231
     61  CA       -38.5840   18.6560    5.5220 C.3    66  ILE66       0.1692
     62  C        -38.1150   18.6020    6.9580 C.2    66  ILE66       0.2592
     63  O        -38.7580   17.9620    7.7950 O.2    66  ILE66      -0.2718
     64  CB       -39.7990   19.5900    5.4340 C.3    66  ILE66       0.0266
     65  CG1      -40.4300   19.5460    4.0510 C.3    66  ILE66       0.0019
     66  CG2      -39.4260   20.9830    5.7530 C.3    66  ILE66       0.0020
     67  CD1      -39.5740   20.0760    2.9560 C.3    66  ILE66       0.0001
     68  N        -36.9910   19.2620    7.2380 N.am   67  VAL67      -0.1966
     69  CA       -36.4690   19.3820    8.6020 C.3    67  VAL67       0.1727
     70  C        -37.5050   20.0320    9.5220 C.2    67  VAL67       0.2617
     71  O        -38.1500   21.0260    9.1670 O.2    67  VAL67      -0.2715
     72  CB       -35.1350   20.1800    8.6340 C.3    67  VAL67       0.0290
     73  CG1      -34.6310   20.3720   10.0350 C.3    67  VAL67       0.0023
     74  CG2      -34.0770   19.4530    7.8200 C.3    67  VAL67       0.0023
     75  N        -37.6650   19.4390   10.6980 N.am   68  GLY68      -0.1940
     76  CA       -38.5810   19.9450   11.7030 C.3    68  GLY68       0.2014
     77  C        -38.1520   21.3150   12.1440 C.2    68  GLY68       0.2638
     78  O        -36.9750   21.6250   12.1550 O.2    68  GLY68      -0.2714
     79  N        -39.1250   22.1180   12.5310 N.am   69  PHE69      -0.1973
     80  CA       -38.9050   23.4830   12.9670 C.3    69  PHE69       0.1639
     81  C        -39.4590   23.6230   14.3660 C.2    69  PHE69       0.2290
     82  O        -40.5770   23.1540   14.6610 O.2    69  PHE69      -0.2864
     83  CB       -39.6400   24.3960   11.9980 C.3    69  PHE69       0.0560
     84  CG       -39.7280   25.8330   12.4190 C.ar   69  PHE69      -0.0200
     85  CD1      -40.9600   26.3840   12.7860 C.ar   69  PHE69      -0.0042
     86  CD2      -38.6100   26.6620   12.3780 C.ar   69  PHE69      -0.0042
     87  CE1      -41.0690   27.7370   13.1210 C.ar   69  PHE69      -0.0003
     88  CE2      -38.7140   28.0050   12.7240 C.ar   69  PHE69      -0.0003
     89  CZ       -39.9470   28.5420   13.0950 C.ar   69  PHE69      -0.0000
     90  N        -33.0250   30.6810   14.0710 N.3    81  ILE81      -0.1245
     91  CA       -33.9340   29.6720   13.5480 C.3    81  ILE81       0.1561
     92  C        -33.5460   28.3380   14.1590 C.2    81  ILE81       0.2260
     93  O        -32.4160   27.8700   13.9920 O.2    81  ILE81      -0.2867
     94  CB       -33.9260   29.6030   11.9960 C.3    81  ILE81       0.0252
     95  CG1      -34.4070   30.9310   11.3970 C.3    81  ILE81       0.0019
     96  CG2      -34.8150   28.4390   11.4880 C.3    81  ILE81       0.0019
     97  CD1      -34.1000   31.0830    9.9060 C.3    81  ILE81       0.0001
     98  N        -34.1170   24.4120   14.4820 N.3    83  MET83      -0.1245
     99  CA       -34.5620   23.2140   13.8090 C.3    83  MET83       0.1570
    100  C        -34.2410   21.9730   14.6280 C.2    83  MET83       0.2261
    101  O        -33.4690   21.9870   15.6010 O.2    83  MET83      -0.2867
    102  CB       -33.8420   23.0480   12.4680 C.3    83  MET83       0.0387
    103  CG       -33.6890   24.2740   11.6140 C.3    83  MET83       0.0595
    104  SD       -32.1000   24.2360   10.7300 S.3    83  MET83      -0.1393
    105  CE       -32.4540   23.1280    9.3800 C.3    83  MET83       0.0692
    106  N        -32.4800   27.1170   -2.9810 N.3   130  ASP130     -0.1239
    107  CA       -31.1150   26.7770   -2.6040 C.3   130  ASP130      0.1674
    108  C        -30.9130   25.2680   -2.3760 C.2   130  ASP130      0.2266
    109  O        -30.4370   24.8370   -1.3200 O.2   130  ASP130     -0.2867
    110  CB       -30.7020   27.5900   -1.3750 C.3   130  ASP130      0.1410
    111  CG       -29.1830   27.7360   -1.2350 C.2   130  ASP130      0.3668
    112  OD1      -28.7470   28.4110   -0.2690 O.co2 130  ASP130     -0.2456
    113  OD2      -28.4260   27.1990   -2.0760 O.co2 130  ASP130     -0.2456
    114  N        -27.7360   21.3460    1.9030 N.3   135  ASN135     -0.1240
    115  CA       -29.1140   21.6610    2.2820 C.3   135  ASN135      0.1653
    116  C        -30.0450   20.4440    2.2370 C.2   135  ASN135      0.2266
    117  O        -31.2750   20.5620    2.3350 O.2   135  ASN135     -0.2867
    118  CB       -29.6380   22.8430    1.4620 C.3   135  ASN135      0.1155
    119  CG       -29.0160   24.1700    1.8950 C.2   135  ASN135      0.2627
    120  OD1      -28.4620   24.2700    2.9870 O.2   135  ASN135     -0.2716
    121  ND2      -29.0930   25.1870    1.0410 N.am  135  ASN135     -0.0877
    122  N        -33.6920   21.4450    3.9870 N.3   147  CYS147     -0.1221
    123  CA       -33.8430   22.6650    4.7850 C.3   147  CYS147      0.1808
    124  C        -33.3340   23.8790    4.0070 C.2   147  CYS147      0.2601
    125  O        -32.9950   23.7640    2.8300 O.2   147  CYS147     -0.2717
    126  CB       -33.0860   22.5510    6.1000 C.3   147  CYS147      0.0970
    127  SG       -31.3290   22.4840    5.8240 S.3   147  CYS147     -0.0800
    128  N        -33.2680   25.0300    4.6760 N.am  148  ASP148     -0.1959
    129  CA       -32.7760   26.2810    4.0700 C.3   148  ASP148      0.1840
    130  C        -33.5310   26.7300    2.8090 C.2   148  ASP148      0.2622
    131  O        -32.9640   27.3670    1.9410 O.2   148  ASP148     -0.2715
    132  CB       -31.2610   26.2090    3.8290 C.3   148  ASP148      0.1450
    133  CG       -30.4770   26.0960    5.1220 C.2   148  ASP148      0.3671
    134  OD1      -31.0960   26.2660    6.2150 O.co2 148  ASP148     -0.2456
    135  OD2      -29.2490   25.8340    5.0480 O.co2 148  ASP148     -0.2456
    136  N        -34.8100   26.3940    2.7160 N.am  149  PHE149     -0.1960
    137  CA       -35.6370   26.8700    1.6040 C.3   149  PHE149      0.1771
    138  C        -36.1590   28.2800    1.9180 C.2   149  PHE149      0.2620
    139  O        -36.1280   28.7090    3.0600 O.2   149  PHE149     -0.2715
    140  CB       -36.7770   25.8850    1.3070 C.3   149  PHE149      0.0574
    141  CG       -37.4870   25.3990    2.5370 C.ar  149  PHE149     -0.0200
    142  CD1      -38.5470   26.1170    3.0690 C.ar  149  PHE149     -0.0042
    143  CD2      -37.0880   24.2280    3.1610 C.ar  149  PHE149     -0.0042
    144  CE1      -39.1900   25.6910    4.2100 C.ar  149  PHE149     -0.0003
    145  CE2      -37.7270   23.7910    4.3230 C.ar  149  PHE149     -0.0003
    146  CZ       -38.7810   24.5320    4.8450 C.ar  149  PHE149     -0.0000
    147  N        -36.6070   29.0160    0.9160 N.am  150  GLY150     -0.1940
    148  CA       -36.8790   30.4220    1.1420 C.3   150  GLY150      0.2014
    149  C        -38.3230   30.6670    1.4920 C.2   150  GLY150      0.2639
    150  O        -39.1570   30.7920    0.5920 O.2   150  GLY150     -0.2714
    151  N        -38.6260   30.7420    2.7890 N.am  151  VAL151     -0.1963
    152  CA       -40.0050   31.0060    3.2270 C.3   151  VAL151      0.1727
    153  C        -40.3020   32.4750    3.3910 C.2   151  VAL151      0.2616
    154  O        -41.4690   32.8580    3.3520 O.2   151  VAL151     -0.2715
    155  CB       -40.4460   30.2650    4.5490 C.3   151  VAL151      0.0290
    156  CG1      -40.5630   28.7930    4.3140 C.3   151  VAL151      0.0023
    157  CG2      -39.5220   30.5670    5.7460 C.3   151  VAL151      0.0023
    158  N        -39.2640   33.2860    3.5830 N.am  152  SER152     -0.1950
    159  CA       -39.4710   34.6980    3.8640 C.3   152  SER152      0.1924
    160  C        -38.9450   35.6070    2.7690 C.2   152  SER152      0.2314
    161  O        -37.7440   35.6380    2.4980 O.2   152  SER152     -0.2863
    162  CB       -38.8390   35.0720    5.2010 C.3   152  SER152      0.2116
    163  OG       -38.6880   36.4780    5.3050 O.3   152  SER152     -0.2180
    164  N        -36.3810   38.1800    4.0210 N.3   155  LEU155     -0.1231
    165  CA       -35.0830   37.5770    4.2920 C.3   155  LEU155      0.1693
    166  C        -34.3070   37.4320    2.9950 C.2   155  LEU155      0.2591
    167  O        -33.1640   37.8770    2.9060 O.2   155  LEU155     -0.2718
    168  CB       -35.2120   36.2300    5.0230 C.3   155  LEU155      0.0284
    169  CG       -33.9020   35.6220    5.5450 C.3   155  LEU155      0.0019
    170  CD1      -33.0840   36.5920    6.4030 C.3   155  LEU155      0.0001
    171  CD2      -34.1800   34.3770    6.3160 C.3   155  LEU155      0.0001
    172  N        -34.9420   36.8310    1.9910 N.am  156  ILE156     -0.1980
    173  CA       -34.3580   36.7240    0.6650 C.3   156  ILE156      0.1595
    174  C        -33.7890   38.0900    0.2510 C.2   156  ILE156      0.2287
    175  O        -32.6280   38.1830   -0.1470 O.2   156  ILE156     -0.2864
    176  CB       -35.3940   36.2240   -0.3740 C.3   156  ILE156      0.0276
    177  CG1      -35.7010   34.7440   -0.1580 C.3   156  ILE156      0.0022
    178  CG2      -34.8880   36.4500   -1.8080 C.3   156  ILE156      0.0022
    179  CD1      -37.0420   34.3240   -0.6890 C.3   156  ILE156      0.0001
    180  N        -30.6220   39.4570    2.0700 N.3   159  MET159     -0.1245
    181  CA       -29.4250   38.6400    1.9390 C.3   159  MET159      0.1570
    182  C        -28.8140   38.6780    0.5430 C.2   159  MET159      0.2261
    183  O        -27.8240   37.9860    0.2770 O.2   159  MET159     -0.2867
    184  CB       -29.7450   37.1940    2.3020 C.3   159  MET159      0.0387
    185  CG       -30.4710   37.0480    3.6160 C.3   159  MET159      0.0595
    186  SD       -29.8010   35.7020    4.5720 S.3   159  MET159     -0.1393
    187  CE       -28.2210   36.4160    5.0690 C.3   159  MET159      0.0692
@<TRIPOS>BOND
     1   106   107    1
     2   107   108    1
     3   107   110    1
     4   108   109    2
     5   113   111   ar
     6   178   176    1
     7   110   111    1
     8   111   112   ar
     9   179   177    1
    10   176   177    1
    11   176   173    1
    12   175   174    2
    13   174   173    1
    14   183   182    2
    15    12    10   am
    16   182   181    1
    17   150   149    2
    18   173   172    1
    19   147   148    1
    20   147   138   am
    21   121   119   am
    22   148   149    1
    23   140   137    1
    24   140   141    1
    25   118   119    1
    26   118   115    1
    27   149   151   am
    28   137   138    1
    29   137   136    1
    30    10    11    2
    31    10     9    1
    32   119   120    2
    33   114   115    1
    34   138   139    2
    35   181   180    1
    36   181   184    1
    37   131   130    2
    38   172   166   am
    39   116   115    1
    40   116   117    2
    41   184   185    1
    42     9     6    1
    43   161   160    2
    44   141   142   ar
    45   141   143   ar
    46   136   130   am
    47   160   159    1
    48   151   152    1
    49   130   129    1
    50   125   124    2
    51   167   166    2
    52    67    65    1
    53   166   165    1
    54   142   144   ar
    55   143   145   ar
    56   152   153    1
    57   152   155    1
    58   154   153    2
    59   153   158   am
    60   158   159    1
    61   185   186    1
    62   132   129    1
    63   132   133    1
    64   159   162    1
    65     6     5    1
    66     6     7    1
    67   122   123    1
    68   124   128   am
    69   124   123    1
    70   164   165    1
    71    65    64    1
    72   129   128    1
    73   144   146   ar
    74     5     3   am
    75     8     7    2
    76   165   168    1
    77   156   155    1
    78   145   146   ar
    79   155   157    1
    80   186   187    1
    81     7    13   am
    82   123   126    1
    83   168   169    1
    84   135   133   ar
    85   133   134   ar
    86    60    61    1
    87   162   163    1
    88     3     2    1
    89     3     4    2
    90    64    61    1
    91    64    66    1
    92    61    62    1
    93   169   171    1
    94   169   170    1
    95     2     1    1
    96    13    14    1
    97   127   126    1
    98    59    58    1
    99    14    15    1
   100    62    68   am
   101    62    63    2
   102    29    28    1
   103    58    55    1
   104    68    69    1
   105    53    51    1
   106    15    17   am
   107    15    16    2
   108    55    54    1
   109    55    56    1
   110    17    18    1
   111    74    72    1
   112    45    43    1
   113    56    57    2
   114    28    27    1
   115    51    52    1
   116    51    50    1
   117    69    72    1
   118    69    70    1
   119    72    73    1
   120    37    35    1
   121    36    34    1
   122    18    19    1
   123    20    19    2
   124    38    39    1
   125    46    47    1
   126    35    34    1
   127    71    70    2
   128    47    50    1
   129    47    48    1
   130    27    26    1
   131   105   104    1
   132    39    40    1
   133    39    42    1
   134    43    42    1
   135    43    44    1
   136    70    75   am
   137    34    31    1
   138    97    95    1
   139    40    41    2
   140    48    49    2
   141    26    25    1
   142    75    76    1
   143   104   103    1
   144    31    32    1
   145    31    30    1
   146    32    33    2
   147    95    94    1
   148    96    94    1
   149   103   102    1
   150    76    77    1
   151    25    22    1
   152    94    91    1
   153    83    84    1
   154    83    80    1
   155    77    78    2
   156    77    79   am
   157    86    84   ar
   158    86    88   ar
   159    84    85   ar
   160   102    99    1
   161    79    80    1
   162    88    89   ar
   163    85    87   ar
   164    80    81    1
   165    89    87   ar
   166    22    23    1
   167    22    21    1
   168    23    24    2
   169    91    90    1
   170    91    92    1
   171    99    98    1
   172    99   100    1
   173    93    92    2
   174    81    82    2
   175   100   101    2
