@<TRIPOS>MOLECULE
tmp/3pp6C00.pdb
 153 140 0 0 0
SMALL
GASTEIGER

@<TRIPOS>ATOM
      1  N         38.9110   33.1380   34.9640 N.3    16  PHE16      -0.1241
      2  CA        38.1610   32.8890   33.7440 C.3    16  PHE16       0.1605
      3  C         36.6660   32.8810   34.0160 C.2    16  PHE16       0.2264
      4  O         35.8700   33.2860   33.1630 O.2    16  PHE16      -0.2867
      5  CB        38.5890   31.5610   33.1090 C.3    16  PHE16       0.0534
      6  CG        38.1270   31.3870   31.6950 C.ar   16  PHE16      -0.0203
      7  CD1       38.1360   32.4530   30.8130 C.ar   16  PHE16      -0.0042
      8  CD2       37.6960   30.1490   31.2380 C.ar   16  PHE16      -0.0042
      9  CE1       37.7260   32.2890   29.5020 C.ar   16  PHE16      -0.0003
     10  CE2       37.2830   29.9810   29.9300 C.ar   16  PHE16      -0.0003
     11  CZ        37.3060   31.0580   29.0580 C.ar   16  PHE16      -0.0000
     12  N         35.5790   36.5700   34.3610 N.3    19  TYR19      -0.1227
     13  CA        35.5050   37.1560   33.0260 C.3    19  TYR19       0.1736
     14  C         34.2210   36.7310   32.3280 C.2    19  TYR19       0.2595
     15  O         33.4580   37.5700   31.8440 O.2    19  TYR19      -0.2718
     16  CB        36.7140   36.7710   32.1420 C.3    19  TYR19       0.0548
     17  CG        36.5130   37.2020   30.7000 C.ar   19  TYR19      -0.0200
     18  CD1       36.8410   38.4900   30.2860 C.ar   19  TYR19      -0.0009
     19  CD2       35.9660   36.3360   29.7600 C.ar   19  TYR19      -0.0009
     20  CE1       36.6390   38.8930   28.9700 C.ar   19  TYR19       0.0417
     21  CE2       35.7580   36.7330   28.4490 C.ar   19  TYR19       0.0417
     22  CZ        36.1010   38.0110   28.0600 C.ar   19  TYR19       0.1957
     23  OH        35.8940   38.4030   26.7500 O.3    19  TYR19      -0.2866
     24  N         33.9970   35.4210   32.2630 N.am   20  MET20      -0.1979
     25  CA        32.8920   34.8660   31.4870 C.3    20  MET20       0.1605
     26  C         31.5160   35.3210   31.9770 C.2    20  MET20       0.2287
     27  O         30.5790   35.4300   31.1910 O.2    20  MET20      -0.2864
     28  CB        32.9230   33.3420   31.5050 C.3    20  MET20       0.0413
     29  CG        34.0040   32.7230   30.6300 C.3    20  MET20       0.0598
     30  SD        33.7330   30.9630   30.4340 S.3    20  MET20      -0.1393
     31  CE        34.1540   30.3540   32.0750 C.3    20  MET20       0.0692
     32  N         28.1220   34.7160   29.9440 N.3    25  VAL25      -0.1245
     33  CA        28.0860   33.2720   29.7340 C.3    25  VAL25       0.1561
     34  C         27.3230   32.6290   30.9020 C.2    25  VAL25       0.2260
     35  O         27.6430   32.8780   32.0670 O.2    25  VAL25      -0.2867
     36  CB        29.5120   32.6820   29.5860 C.3    25  VAL25       0.0252
     37  CG1       29.4380   31.2650   29.0540 C.3    25  VAL25       0.0019
     38  CG2       30.3620   33.5530   28.6470 C.3    25  VAL25       0.0019
     39  N         27.2790   26.7360   30.1460 N.3    29  MET29      -0.1245
     40  CA        28.3670   27.0060   29.2200 C.3    29  MET29       0.1570
     41  C         29.6570   27.2890   30.0000 C.2    29  MET29       0.2261
     42  O         30.7380   26.8540   29.6020 O.2    29  MET29      -0.2867
     43  CB        28.0140   28.1710   28.2910 C.3    29  MET29       0.0387
     44  CG        27.9640   27.8040   26.8060 C.3    29  MET29       0.0595
     45  SD        29.5640   27.3070   26.1240 S.3    29  MET29      -0.1393
     46  CE        29.1110   26.8980   24.4350 C.3    29  MET29       0.0692
     47  N         33.2750   25.4140   29.5320 N.3    33  ALA33      -0.1245
     48  CA        34.4310   26.2340   29.1670 C.3    33  ALA33       0.1562
     49  C         35.5530   26.0780   30.1860 C.2    33  ALA33       0.2260
     50  O         36.7230   25.9460   29.8190 O.2    33  ALA33      -0.2867
     51  CB        34.0300   27.6960   29.0560 C.3    33  ALA33       0.0290
     52  N         41.6240   24.2380   25.6210 N.3    38  PRO38      -0.2116
     53  CA        41.5700   24.5540   24.1910 C.3    38  PRO38       0.1372
     54  C         42.9410   24.7320   23.5440 C.2    38  PRO38       0.2244
     55  O         43.9430   24.9700   24.2170 O.2    38  PRO38      -0.2868
     56  CB        40.8060   25.8790   24.1570 C.3    38  PRO38       0.0268
     57  CG        41.0950   26.5140   25.4850 C.3    38  PRO38       0.0207
     58  CD        41.2200   25.3780   26.4650 C.3    38  PRO38       0.0892
     59  N         40.4620   27.9950   17.1340 N.3    53  THR53      -0.1218
     60  CA        40.4210   27.6060   18.5460 C.3    53  THR53       0.1862
     61  C         39.6270   26.3140   18.6630 C.2    53  THR53       0.2287
     62  O         38.4910   26.2310   18.1730 O.2    53  THR53      -0.2866
     63  CB        39.7830   28.7030   19.4360 C.3    53  THR53       0.1770
     64  OG1       40.3630   29.9800   19.1190 O.3    53  THR53      -0.2211
     65  CG2       40.0180   28.3960   20.9270 C.3    53  THR53       0.0375
     66  N         38.3490   22.8400   20.9710 N.3    55  THR55      -0.1218
     67  CA        38.1600   21.8770   22.0490 C.3    55  THR55       0.1862
     68  C         37.8740   20.5300   21.3960 C.2    55  THR55       0.2287
     69  O         37.9220   20.4060   20.1730 O.2    55  THR55      -0.2866
     70  CB        36.9800   22.2600   22.9470 C.3    55  THR55       0.1770
     71  OG1       35.7560   22.1000   22.2200 O.3    55  THR55      -0.2211
     72  CG2       37.1110   23.7010   23.3920 C.3    55  THR55       0.0375
     73  N         33.9530   21.2700   20.0010 N.3    58  LYS58      -0.1245
     74  CA        33.6400   22.4460   19.1870 C.3    58  LYS58       0.1561
     75  C         34.8840   23.2270   18.7340 C.2    58  LYS58       0.2260
     76  O         35.8280   23.4230   19.5060 O.2    58  LYS58      -0.2867
     77  CB        32.6870   23.3650   19.9700 C.3    58  LYS58       0.0271
     78  CG        32.7480   24.8450   19.6060 C.3    58  LYS58       0.0035
     79  CD        31.5390   25.2790   18.7850 C.3    58  LYS58       0.0206
     80  CE        31.4660   26.8010   18.6600 C.3    58  LYS58       0.1093
     81  NZ        30.1160   27.2790   18.2240 N.3    58  LYS58      -0.1314
     82  N         36.2530   26.8610   16.5060 N.3    60  THR60      -0.1218
     83  CA        35.9600   28.1550   15.9060 C.3    60  THR60       0.1862
     84  C         37.1370   28.5890   15.0350 C.2    60  THR60       0.2287
     85  O         38.2980   28.4640   15.4370 O.2    60  THR60      -0.2866
     86  CB        35.7080   29.2460   16.9670 C.3    60  THR60       0.1770
     87  OG1       36.4110   28.9170   18.1710 O.3    60  THR60      -0.2211
     88  CG2       34.2280   29.3520   17.2690 C.3    60  THR60       0.0375
     89  N         31.4100   34.8300   18.8620 N.3    74  THR74      -0.1203
     90  CA        32.2440   34.1510   19.8420 C.3    74  THR74       0.1994
     91  C         31.8000   32.7000   20.0010 C.2    74  THR74       0.2618
     92  O         30.7830   32.2890   19.4280 O.2    74  THR74      -0.2717
     93  CB        32.1930   34.8540   21.2070 C.3    74  THR74       0.1784
     94  OG1       30.8480   34.8440   21.7020 O.3    74  THR74      -0.2211
     95  CG2       32.6720   36.2930   21.0830 C.3    74  THR74       0.0376
     96  N         32.5760   31.9300   20.7630 N.am   75  GLY75      -0.1942
     97  CA        32.2640   30.5370   21.0350 C.3    75  GLY75       0.2014
     98  C         30.9370   30.3610   21.7530 C.2    75  GLY75       0.2638
     99  O         30.2460   29.3590   21.5530 O.2    75  GLY75      -0.2714
    100  N         30.5730   31.3360   22.5840 N.am   76  ASP76      -0.1971
    101  CA        29.2980   31.2850   23.2950 C.3    76  ASP76       0.1709
    102  C         28.1740   31.9380   22.4920 C.2    76  ASP76       0.2293
    103  O         27.0450   32.0670   22.9730 O.2    76  ASP76      -0.2864
    104  CB        29.4220   31.9220   24.6760 C.3    76  ASP76       0.1436
    105  CG        29.9470   33.3390   24.6140 C.2    76  ASP76       0.3671
    106  OD1       31.0880   33.5240   24.1440 O.co2  76  ASP76      -0.2456
    107  OD2       29.2230   34.2590   25.0400 O.co2  76  ASP76      -0.2456
    108  N         27.9630   35.1150   21.1680 N.3    78  ARG78      -0.1245
    109  CA        27.7660   36.5660   21.1920 C.3    78  ARG78       0.1563
    110  C         28.1070   37.1550   19.8190 C.2    78  ARG78       0.2260
    111  O         29.1440   36.8260   19.2360 O.2    78  ARG78      -0.2867
    112  CB        28.6200   37.2170   22.2710 C.3    78  ARG78       0.0307
    113  CG        28.0580   37.1130   23.6710 C.3    78  ARG78       0.0489
    114  CD        29.0870   37.5340   24.6970 C.3    78  ARG78       0.2205
    115  NE        30.2110   36.6000   24.7540 N.pl3  78  ARG78      -0.0865
    116  CZ        31.4920   36.9590   24.7400 C.cat  78  ARG78       0.5346
    117  NH1       31.8290   38.2470   24.6790 N.pl3  78  ARG78       0.1354
    118  NH2       32.4370   36.0290   24.7990 N.pl3  78  ARG78       0.1354
    119  N         40.7130   41.6770   24.0960 N.3   103  LEU103     -0.1245
    120  CA        41.4740   40.4290   24.1510 C.3   103  LEU103      0.1561
    121  C         42.8730   40.6740   23.5810 C.2   103  LEU103      0.2260
    122  O         43.0230   40.9240   22.3890 O.2   103  LEU103     -0.2867
    123  CB        40.7600   39.3290   23.3410 C.3   103  LEU103      0.0270
    124  CG        39.6790   38.4700   24.0190 C.3   103  LEU103      0.0019
    125  CD1       38.8550   39.2500   25.0390 C.3   103  LEU103      0.0001
    126  CD2       38.7580   37.8180   22.9840 C.3   103  LEU103      0.0001
    127  N         47.4300   35.3140   27.0110 N.3   114  MET114     -0.1245
    128  CA        46.1570   35.8560   26.5770 C.3   114  MET114      0.1570
    129  C         45.5470   36.5890   27.7510 C.2   114  MET114      0.2261
    130  O         45.3450   36.0110   28.8250 O.2   114  MET114     -0.2867
    131  CB        45.2170   34.7580   26.0880 C.3   114  MET114      0.0387
    132  CG        43.9850   35.3180   25.3930 C.3   114  MET114      0.0595
    133  SD        42.9680   34.0460   24.6440 S.3   114  MET114     -0.1393
    134  CE        41.7560   35.0320   23.7790 C.3   114  MET114      0.0692
    135  N         42.3130   38.7120   28.8350 N.3   116  LEU116     -0.1245
    136  CA        40.9510   39.0380   28.4750 C.3   116  LEU116      0.1561
    137  C         40.4160   40.0130   29.5230 C.2   116  LEU116      0.2260
    138  O         40.4090   39.7040   30.7100 O.2   116  LEU116     -0.2867
    139  CB        40.0890   37.7660   28.4290 C.3   116  LEU116      0.0270
    140  CG        40.5220   36.5530   27.5850 C.3   116  LEU116      0.0019
    141  CD1       41.5540   35.6850   28.2940 C.3   116  LEU116      0.0001
    142  CD2       39.3230   35.7090   27.1750 C.3   116  LEU116      0.0001
    143  N         45.0950   33.9230   30.5680 N.3   125  ARG125     -0.1245
    144  CA        45.2060   32.5250   30.1800 C.3   125  ARG125      0.1563
    145  C         46.5030   32.3640   29.4070 C.2   125  ARG125      0.2260
    146  O         46.7050   33.0100   28.3760 O.2   125  ARG125     -0.2867
    147  CB        43.9800   32.0880   29.3650 C.3   125  ARG125      0.0307
    148  CG        42.7310   31.9400   30.2590 C.3   125  ARG125      0.0489
    149  CD        41.4290   31.9110   29.4730 C.3   125  ARG125      0.2205
    150  NE        41.2930   30.7600   28.5760 N.pl3 125  ARG125     -0.0865
    151  CZ        40.8800   29.5520   28.9560 C.cat 125  ARG125      0.5346
    152  NH1       40.5900   29.3070   30.2280 N.pl3 125  ARG125      0.1354
    153  NH2       40.7660   28.5820   28.0570 N.pl3 125  ARG125      0.1354
@<TRIPOS>BOND
     1    84    85    2
     2    84    83    1
     3    83    82    1
     4    83    86    1
     5    86    88    1
     6    86    87    1
     7    59    60    1
     8    62    61    2
     9    81    80    1
    10    60    61    1
    11    60    63    1
    12    80    79    1
    13    75    74    1
    14    75    76    2
    15    79    78    1
    16    89    90    1
    17    64    63    1
    18    74    77    1
    19    74    73    1
    20   111   110    2
    21    92    91    2
    22    63    65    1
    23    78    77    1
    24   110   109    1
    25    90    91    1
    26    90    93    1
    27    91    96   am
    28    69    68    2
    29    96    97    1
    30    66    67    1
    31    97    98    1
    32    95    93    1
    33   108   109    1
    34   109   112    1
    35    93    94    1
    36    68    67    1
    37    99    98    2
    38    98   100   am
    39    67    70    1
    40    71    70    1
    41   112   113    1
    42   122   121    2
    43   102   103    2
    44   102   101    1
    45   100   101    1
    46    70    72    1
    47   126   124    1
    48   101   104    1
    49   123   124    1
    50   123   120    1
    51    54    53    1
    52    54    55    2
    53   121   120    1
    54   113   114    1
    55   134   133    1
    56   124   125    1
    57   119   120    1
    58   106   105   ar
    59    56    53    1
    60    56    57    1
    61    53    52    1
    62    46    45    1
    63   105   104    1
    64   105   107   ar
    65   133   132    1
    66   117   116    1
    67   114   115    1
    68   116   115    2
    69   116   118    1
    70   132   131    1
    71    57    58    1
    72    52    58    1
    73   131   128    1
    74    45    44    1
    75   128   127    1
    76   128   129    1
    77    23    22    1
    78    44    43    1
    79   142   140    1
    80   140   141    1
    81   140   139    1
    82   129   130    2
    83   153   151    1
    84    22    21   ar
    85    22    20   ar
    86    43    40    1
    87   146   145    2
    88   139   136    1
    89    21    19   ar
    90   136   135    1
    91   136   137    1
    92   150   151    2
    93   150   149    1
    94    38    36    1
    95   151   152    1
    96    20    18   ar
    97    37    36    1
    98    51    48    1
    99    11     9   ar
   100    11    10   ar
   101    48    47    1
   102    48    49    1
   103    40    41    1
   104    40    39    1
   105   147   144    1
   106   147   148    1
   107   145   144    1
   108   149   148    1
   109     9     7   ar
   110   137   138    2
   111    36    33    1
   112    42    41    2
   113    33    32    1
   114    33    34    1
   115    19    17   ar
   116    50    49    2
   117    10     8   ar
   118   144   143    1
   119    18    17   ar
   120    30    29    1
   121    30    31    1
   122    29    28    1
   123    17    16    1
   124     7     6   ar
   125    34    35    2
   126    27    26    2
   127     8     6   ar
   128    25    28    1
   129    25    26    1
   130    25    24    1
   131     6     5    1
   132    15    14    2
   133    16    13    1
   134    24    14   am
   135    14    13    1
   136    13    12    1
   137     5     2    1
   138     4     3    2
   139     2     3    1
   140     2     1    1
