@<TRIPOS>MOLECULE
tmp/3pp7B00.pdb
 105 102 0 0 0
SMALL
GASTEIGER

@<TRIPOS>ATOM
      1  N         20.7720   25.6960   38.5140 N.3    26  THR26      -0.1203
      2  CA        21.0980   24.6070   39.4080 C.3    26  THR26       0.1994
      3  C         21.6750   25.0970   40.7170 C.2    26  THR26       0.2618
      4  O         22.5160   25.9890   40.7550 O.2    26  THR26      -0.2717
      5  CB        21.8390   23.3880   38.7510 C.3    26  THR26       0.1784
      6  OG1       22.9600   22.9750   39.5510 O.3    26  THR26      -0.2211
      7  CG2       22.2650   23.6670   37.3660 C.3    26  THR26       0.0376
      8  N         21.1290   24.5590   41.7940 N.am   27  ILE27      -0.1965
      9  CA        21.4720   25.0310   43.1200 C.3    27  ILE27       0.1727
     10  C         22.6900   24.2970   43.6490 C.2    27  ILE27       0.2617
     11  O         22.8630   23.0980   43.4270 O.2    27  ILE27      -0.2715
     12  CB        20.2690   24.9490   44.1030 C.3    27  ILE27       0.0290
     13  CG1       18.9910   25.4810   43.4360 C.3    27  ILE27       0.0022
     14  CG2       20.5680   25.7130   45.3980 C.3    27  ILE27       0.0023
     15  CD1       19.0660   26.9550   42.9660 C.3    27  ILE27       0.0001
     16  N         23.5470   25.0560   44.3180 N.am   28  GLY28      -0.1941
     17  CA        24.7290   24.5210   44.9820 C.3    28  GLY28       0.1998
     18  C         25.0620   25.3690   46.1930 C.2    28  GLY28       0.2480
     19  O         24.2230   26.1360   46.6590 O.2    28  GLY28      -0.2729
     20  N         26.2940   25.2350   46.7130 N.am   29  PRO29      -0.2726
     21  CA        26.7470   25.9680   47.9050 C.3    29  PRO29       0.1402
     22  C         26.7910   27.4920   47.7130 C.2    29  PRO29       0.2269
     23  O         26.4990   28.2230   48.6460 O.2    29  PRO29      -0.2865
     24  CB        28.1550   25.4100   48.1540 C.3    29  PRO29       0.0296
     25  CG        28.1940   24.1020   47.4120 C.3    29  PRO29       0.0237
     26  CD        27.3280   24.3100   46.2120 C.3    29  PRO29       0.0939
     27  N         17.0950   23.6560   39.8630 N.3    49  ARG49      -0.1245
     28  CA        17.5900   22.3030   39.6210 C.3    49  ARG49       0.1563
     29  C         18.4500   21.8090   40.7830 C.2    49  ARG49       0.2260
     30  O         19.3370   22.5270   41.2740 O.2    49  ARG49      -0.2867
     31  CB        18.3810   22.2310   38.3050 C.3    49  ARG49       0.0307
     32  CG        19.0940   20.8930   38.0270 C.3    49  ARG49       0.0489
     33  CD        19.7880   20.8920   36.6630 C.3    49  ARG49       0.2205
     34  NE        20.6750   19.7390   36.4570 N.pl3  49  ARG49      -0.0865
     35  CZ        22.0010   19.7740   36.5700 C.cat  49  ARG49       0.5346
     36  NH1       22.6260   20.8990   36.8890 N.pl3  49  ARG49       0.1354
     37  NH2       22.7110   18.6790   36.3690 N.pl3  49  ARG49       0.1354
     38  N         21.0500   18.8550   41.4460 N.3    51  ASN51      -0.1240
     39  CA        21.9030   17.8600   40.8410 C.3    51  ASN51       0.1653
     40  C         22.1740   16.7190   41.8390 C.2    51  ASN51       0.2266
     41  O         23.0570   16.8290   42.6960 O.2    51  ASN51      -0.2867
     42  CB        23.2050   18.5210   40.3770 C.3    51  ASN51       0.1155
     43  CG        24.0700   17.5900   39.5500 C.2    51  ASN51       0.2627
     44  OD1       23.6990   16.4420   39.2900 O.2    51  ASN51      -0.2716
     45  ND2       25.2330   18.0810   39.1280 N.am   51  ASN51      -0.0877
     46  N         25.5820   14.9250   43.3120 N.3    54  HIS54      -0.1226
     47  CA        26.3030   15.3430   44.5160 C.3    54  HIS54       0.1752
     48  C         25.3580   15.5420   45.6760 C.2    54  HIS54       0.2596
     49  O         24.1510   15.7280   45.4880 O.2    54  HIS54      -0.2718
     50  CB        27.0450   16.6580   44.2870 C.3    54  HIS54       0.0759
     51  CG        27.8890   16.6630   43.0590 C.ar   54  HIS54       0.0818
     52  ND1       27.5950   17.4440   41.9630 N.ar   54  HIS54      -0.2268
     53  CD2       29.0050   15.9670   42.7390 C.ar   54  HIS54       0.1154
     54  CE1       28.4980   17.2350   41.0210 C.ar   54  HIS54       0.1986
     55  NE2       29.3670   16.3440   41.4680 N.ar   54  HIS54      -0.2212
     56  N         25.9190   15.5180   46.8790 N.am   55  GLY55      -0.1957
     57  CA        25.1630   15.8210   48.0780 C.3    55  GLY55       0.1869
     58  C         24.2080   14.7170   48.4680 C.2    55  GLY55       0.2309
     59  O         23.9120   13.8060   47.6840 O.2    55  GLY55      -0.2863
     60  N         21.1190   17.5110   52.3510 N.3    59  TYR59      -0.1227
     61  CA        21.5400   18.6670   51.5870 C.3    59  TYR59       0.1736
     62  C         20.4170   19.1450   50.6550 C.2    59  TYR59       0.2595
     63  O         20.1060   20.3340   50.5980 O.2    59  TYR59      -0.2718
     64  CB        22.7970   18.3380   50.7830 C.3    59  TYR59       0.0548
     65  CG        23.3070   19.5180   50.0150 C.ar   59  TYR59      -0.0200
     66  CD1       24.1010   20.4810   50.6330 C.ar   59  TYR59      -0.0009
     67  CD2       22.9620   19.6990   48.6760 C.ar   59  TYR59      -0.0009
     68  CE1       24.5610   21.5780   49.9270 C.ar   59  TYR59       0.0417
     69  CE2       23.4050   20.7880   47.9700 C.ar   59  TYR59       0.0417
     70  CZ        24.2050   21.7220   48.5940 C.ar   59  TYR59       0.1957
     71  OH        24.6390   22.8050   47.8730 O.3    59  TYR59      -0.2866
     72  N         19.8070   18.2060   49.9420 N.am   60  HIS60      -0.1975
     73  CA        18.7530   18.5320   48.9850 C.3    60  HIS60       0.1656
     74  C         17.4390   18.9240   49.6660 C.2    60  HIS60       0.2291
     75  O         16.6960   19.7660   49.1450 O.2    60  HIS60      -0.2864
     76  CB        18.5690   17.3930   47.9810 C.3    60  HIS60       0.0771
     77  CG        19.7890   17.1240   47.1580 C.ar   60  HIS60       0.0820
     78  ND1       20.3230   18.0600   46.2990 N.ar   60  HIS60      -0.2267
     79  CD2       20.5830   16.0300   47.0620 C.ar   60  HIS60       0.1154
     80  CE1       21.3890   17.5550   45.7050 C.ar   60  HIS60       0.1986
     81  NE2       21.5730   16.3250   46.1550 N.ar   60  HIS60      -0.2212
     82  N         24.2850   25.6840   34.9520 N.3   330  SER330     -0.1202
     83  CA        24.8140   24.6130   35.8030 C.3   330  SER330      0.2020
     84  C         25.7900   25.1580   36.8410 C.2   330  SER330      0.2619
     85  O         25.3690   25.7530   37.8330 O.2   330  SER330     -0.2717
     86  CB        25.4630   23.5160   34.9490 C.3   330  SER330      0.2103
     87  OG        24.4690   22.7170   34.3320 O.3   330  SER330     -0.2182
     88  N         27.0870   24.9750   36.5990 N.am  331  GLY331     -0.1956
     89  CA        28.1240   25.4660   37.5080 C.3   331  GLY331      0.1869
     90  C         28.0760   26.9720   37.7200 C.2   331  GLY331      0.2309
     91  O         28.5160   27.4690   38.7650 O.2   331  GLY331     -0.2863
     92  N         25.5480   27.0200   40.4890 N.3   334  ALA334     -0.1231
     93  CA        25.8310   26.0400   41.5550 C.3   334  ALA334      0.1694
     94  C         27.1060   26.3700   42.3410 C.2   334  ALA334      0.2591
     95  O         27.0910   26.3990   43.5650 O.2   334  ALA334     -0.2718
     96  CB        25.8830   24.5980   40.9930 C.3   334  ALA334      0.0304
     97  N         28.1930   26.6490   41.6280 N.am  335  LYS335     -0.1980
     98  CA        29.4880   26.9270   42.2610 C.3   335  LYS335      0.1596
     99  C         30.0800   28.2990   41.8880 C.2   335  LYS335      0.2287
    100  O         31.1610   28.6640   42.3540 O.2   335  LYS335     -0.2864
    101  CB        30.4830   25.8180   41.9040 C.3   335  LYS335      0.0298
    102  CG        30.9270   25.8540   40.4560 C.3   335  LYS335      0.0038
    103  CD        31.9090   24.7450   40.1110 C.3   335  LYS335      0.0206
    104  CE        32.5590   25.0300   38.7510 C.3   335  LYS335      0.1093
    105  NZ        33.4600   23.9280   38.2960 N.3   335  LYS335     -0.1314
@<TRIPOS>BOND
     1    87    86    1
     2    86    83    1
     3    82    83    1
     4    83    84    1
     5    37    35    1
     6    34    35    2
     7    34    33    1
     8    35    36    1
     9    88    84   am
    10    88    89    1
    11    33    32    1
    12    84    85    2
    13     7     5    1
    14    89    90    1
    15    90    91    2
    16    32    31    1
    17   105   104    1
    18    31    28    1
    19     1     2    1
    20   104   103    1
    21     5     2    1
    22     5     6    1
    23    45    43   am
    24    44    43    2
    25     2     3    1
    26    43    42    1
    27    28    27    1
    28    28    29    1
    29   103   102    1
    30    42    39    1
    31   102   101    1
    32    92    93    1
    33     3     4    2
    34     3     8   am
    35    29    30    2
    36    39    38    1
    37    39    40    1
    38    96    93    1
    39    54    55   ar
    40    54    52   ar
    41    55    53   ar
    42    93    94    1
    43    97    98    1
    44    97    94   am
    45     8     9    1
    46    40    41    2
    47    99    98    1
    48    99   100    2
    49   101    98    1
    50    52    51   ar
    51    94    95    2
    52    53    51   ar
    53    15    13    1
    54    51    50    1
    55     9    10    1
    56     9    12    1
    57    46    47    1
    58    11    10    2
    59    13    12    1
    60    10    16   am
    61    12    14    1
    62    50    47    1
    63    16    17    1
    64    47    48    1
    65    17    18    1
    66    49    48    2
    67    48    56   am
    68    80    81   ar
    69    80    78   ar
    70    81    79   ar
    71    18    19    2
    72    18    20   am
    73    26    20    1
    74    26    25    1
    75    78    77   ar
    76    20    21    1
    77    56    57    1
    78    79    77   ar
    79    77    76    1
    80    25    24    1
    81    59    58    2
    82    22    21    1
    83    22    23    2
    84    71    70    1
    85    21    24    1
    86    69    70   ar
    87    69    67   ar
    88    76    73    1
    89    57    58    1
    90    70    68   ar
    91    67    65   ar
    92    73    74    1
    93    73    72    1
    94    75    74    2
    95    68    66   ar
    96    72    62   am
    97    65    66   ar
    98    65    64    1
    99    63    62    2
   100    62    61    1
   101    64    61    1
   102    61    60    1
