@<TRIPOS>MOLECULE
tmp/3pp9B00.pdb
 160 157 0 0 0
SMALL
GASTEIGER

@<TRIPOS>ATOM
      1  N          8.5170   30.6690   35.5750 N.3    22  ASP22      -0.1239
      2  CA         7.9090   30.2510   36.8330 C.3    22  ASP22       0.1674
      3  C          7.6280   31.4460   37.7430 C.2    22  ASP22       0.2266
      4  O          7.3320   31.2720   38.9230 O.2    22  ASP22      -0.2867
      5  CB         8.8130   29.2490   37.5690 C.3    22  ASP22       0.1410
      6  CG        10.1380   29.8550   38.0110 C.2    22  ASP22       0.3668
      7  OD1       10.8810   29.1700   38.7520 O.co2  22  ASP22      -0.2456
      8  OD2       10.4370   31.0090   37.6360 O.co2  22  ASP22      -0.2456
      9  N          5.6700   34.7880   39.3100 N.3    24  PHE24      -0.1241
     10  CA         4.2770   35.0610   39.6440 C.3    24  PHE24       0.1605
     11  C          4.1980   36.4110   40.3200 C.2    24  PHE24       0.2264
     12  O          5.2070   36.9290   40.8070 O.2    24  PHE24      -0.2867
     13  CB         3.6480   33.9500   40.5040 C.3    24  PHE24       0.0534
     14  CG         4.3160   33.7330   41.8320 C.ar   24  PHE24      -0.0203
     15  CD1        5.3950   32.8680   41.9440 C.ar   24  PHE24      -0.0042
     16  CD2        3.8440   34.3590   42.9760 C.ar   24  PHE24      -0.0042
     17  CE1        6.0070   32.6510   43.1670 C.ar   24  PHE24      -0.0003
     18  CE2        4.4520   34.1430   44.2050 C.ar   24  PHE24      -0.0003
     19  CZ         5.5350   33.2890   44.2970 C.ar   24  PHE24      -0.0000
     20  N          6.5050   22.6330   41.5090 N.3    92  ILE92      -0.1231
     21  CA         5.5250   22.4240   40.4420 C.3    92  ILE92       0.1692
     22  C          5.4870   23.7570   39.7340 C.2    92  ILE92       0.2593
     23  O          5.4020   24.7940   40.3720 O.2    92  ILE92      -0.2718
     24  CB         4.1160   21.9580   40.8680 C.3    92  ILE92       0.0266
     25  CG1        3.2270   21.7790   39.6230 C.3    92  ILE92       0.0019
     26  CG2        3.4620   22.9280   41.8660 C.3    92  ILE92       0.0020
     27  CD1        1.8320   21.2770   39.9280 C.3    92  ILE92       0.0001
     28  N          5.6110   23.7240   38.4060 N.am   93  THR93      -0.1939
     29  CA         5.5930   24.9380   37.6280 C.3    93  THR93       0.2028
     30  C          4.9330   24.7270   36.2830 C.2    93  THR93       0.2642
     31  O          5.1710   23.7270   35.6240 O.2    93  THR93      -0.2714
     32  CB         7.0280   25.4470   37.3180 C.3    93  THR93       0.1808
     33  OG1        7.7240   25.7590   38.5330 O.3    93  THR93      -0.2208
     34  CG2        6.9930   26.6930   36.4680 C.3    93  THR93       0.0379
     35  N          4.1010   25.6800   35.9020 N.am   94  VAL94      -0.1977
     36  CA         3.4770   25.7110   34.5930 C.3    94  VAL94       0.1596
     37  C          3.9220   27.0320   33.9740 C.2    94  VAL94       0.2287
     38  O          3.8670   28.0900   34.6240 O.2    94  VAL94      -0.2864
     39  CB         1.9600   25.5420   34.6240 C.3    94  VAL94       0.0276
     40  CG1        1.3620   25.7940   33.2280 C.3    94  VAL94       0.0022
     41  CG2        1.6040   24.1200   35.1470 C.3    94  VAL94       0.0022
     42  N          0.5680   29.4890   29.8790 N.3    98  TYR98      -0.1227
     43  CA        -0.3570   28.3510   29.8620 C.3    98  TYR98       0.1736
     44  C         -1.1280   28.1440   31.1710 C.2    98  TYR98       0.2595
     45  O         -1.8980   27.1840   31.2770 O.2    98  TYR98      -0.2718
     46  CB         0.3820   27.0620   29.5170 C.3    98  TYR98       0.0548
     47  CG         0.9700   27.0580   28.1330 C.ar   98  TYR98      -0.0200
     48  CD1        0.1960   26.7260   27.0430 C.ar   98  TYR98      -0.0009
     49  CD2        2.2980   27.3820   27.9080 C.ar   98  TYR98      -0.0009
     50  CE1        0.7230   26.7360   25.7850 C.ar   98  TYR98       0.0417
     51  CE2        2.8380   27.3900   26.6390 C.ar   98  TYR98       0.0417
     52  CZ         2.0450   27.0610   25.5850 C.ar   98  TYR98       0.1957
     53  OH         2.5500   27.0630   24.3160 O.3    98  TYR98      -0.2866
     54  N         -0.9640   29.0290   32.1500 N.am   99  ARG99      -0.1966
     55  CA        -1.6610   28.8730   33.4280 C.3    99  ARG99       0.1729
     56  C         -3.1760   29.0810   33.3260 C.2    99  ARG99       0.2617
     57  O         -3.6600   29.8170   32.4710 O.2    99  ARG99      -0.2715
     58  CB        -1.0730   29.8000   34.4920 C.3    99  ARG99       0.0348
     59  CG         0.3430   29.4390   34.8350 C.3    99  ARG99       0.0492
     60  CD         0.9590   30.4340   35.8090 C.3    99  ARG99       0.2205
     61  NE         2.4140   30.2490   35.8390 N.pl3  99  ARG99      -0.0865
     62  CZ         3.2910   31.0890   36.3840 C.cat  99  ARG99       0.5346
     63  NH1        2.8910   32.1780   37.0380 N.pl3  99  ARG99       0.1354
     64  NH2        4.5880   30.8250   36.2750 N.pl3  99  ARG99       0.1354
     65  N         -3.8870   28.3940   34.2150 N.am  100  THR100     -0.1937
     66  CA        -5.3430   28.4020   34.3510 C.3   100  THR100      0.2028
     67  C         -6.0440   27.5240   33.2920 C.2   100  THR100      0.2642
     68  O         -7.2660   27.5810   33.1450 O.2   100  THR100     -0.2714
     69  CB        -5.9560   29.8520   34.4020 C.3   100  THR100      0.1808
     70  OG1       -6.1000   30.3980   33.0810 O.3   100  THR100     -0.2208
     71  CG2       -5.1040   30.7320   35.2790 C.3   100  THR100      0.0379
     72  N         -5.2760   26.6680   32.6070 N.am  101  LEU101     -0.1963
     73  CA        -5.8030   25.7850   31.5580 C.3   101  LEU101      0.1728
     74  C         -5.8150   24.2890   31.9290 C.2   101  LEU101      0.2617
     75  O         -5.9830   23.4130   31.0680 O.2   101  LEU101     -0.2715
     76  CB        -5.0910   26.0410   30.2170 C.3   101  LEU101      0.0311
     77  CG        -5.2480   27.4770   29.6810 C.3   101  LEU101      0.0022
     78  CD1       -4.3440   27.7540   28.4720 C.3   101  LEU101      0.0001
     79  CD2       -6.7130   27.7730   29.3530 C.3   101  LEU101      0.0001
     80  N         -5.6050   24.0060   33.2100 N.am  102  GLY102     -0.1940
     81  CA        -5.6790   22.6620   33.7270 C.3   102  GLY102      0.2014
     82  C         -4.4420   21.8130   33.7360 C.2   102  GLY102      0.2639
     83  O         -4.4880   20.6740   34.1710 O.2   102  GLY102     -0.2714
     84  N         -3.3320   22.3660   33.2700 N.am  103  VAL103     -0.1963
     85  CA        -2.0930   21.6170   33.1950 C.3   103  VAL103      0.1727
     86  C         -1.5780   21.2550   34.5930 C.2   103  VAL103      0.2617
     87  O         -1.1610   20.1250   34.8310 O.2   103  VAL103     -0.2715
     88  CB        -1.0310   22.3700   32.3880 C.3   103  VAL103      0.0290
     89  CG1        0.2430   21.5510   32.3400 C.3   103  VAL103      0.0023
     90  CG2       -1.5370   22.6430   30.9700 C.3   103  VAL103      0.0023
     91  N         -1.6410   22.2030   35.5130 N.am  104  GLY104     -0.1940
     92  CA        -1.1840   21.9740   36.8820 C.3   104  GLY104      0.2014
     93  C         -1.9330   20.8280   37.5300 C.2   104  GLY104      0.2638
     94  O         -1.3270   19.9490   38.1320 O.2   104  GLY104     -0.2714
     95  N         -3.2550   20.8390   37.3950 N.am  105  LYS105     -0.1977
     96  CA        -4.1010   19.8050   37.9710 C.3   105  LYS105      0.1596
     97  C         -3.7510   18.4430   37.3690 C.2   105  LYS105      0.2287
     98  O         -3.7720   17.4350   38.0720 O.2   105  LYS105     -0.2864
     99  CB        -5.5700   20.1440   37.7390 C.3   105  LYS105      0.0298
    100  CG        -6.5520   19.2550   38.5100 C.3   105  LYS105      0.0038
    101  CD        -8.0210   19.6770   38.3230 C.3   105  LYS105      0.0206
    102  CE        -8.2980   21.0790   38.8730 C.3   105  LYS105      0.1093
    103  NZ        -9.7340   21.5470   38.7860 N.3   105  LYS105     -0.1314
    104  N         -1.9720   32.4560   44.6180 N.3   131  ALA131     -0.1231
    105  CA        -2.3460   31.6470   43.4550 C.3   131  ALA131      0.1694
    106  C         -2.0920   30.1680   43.7450 C.2   131  ALA131      0.2591
    107  O         -2.9370   29.3130   43.4640 O.2   131  ALA131     -0.2718
    108  CB        -1.5590   32.0720   42.2000 C.3   131  ALA131      0.0304
    109  N         -0.9180   29.8570   44.2900 N.am  132  ALA132     -0.1980
    110  CA        -0.5910   28.4720   44.6180 C.3   132  ALA132      0.1597
    111  C         -1.5100   27.9250   45.7100 C.2   132  ALA132      0.2287
    112  O         -1.9890   26.7990   45.6090 O.2   132  ALA132     -0.2864
    113  CB         0.8820   28.3280   45.0210 C.3   132  ALA132      0.0319
    114  N         -4.5780   28.8220   46.4290 N.3   134  LYS134     -0.1231
    115  CA        -5.9070   28.5960   45.8550 C.3   134  LYS134      0.1693
    116  C         -5.9060   27.3490   44.9550 C.2   134  LYS134      0.2592
    117  O         -6.8610   26.5830   44.9320 O.2   134  LYS134     -0.2718
    118  CB        -6.4180   29.8470   45.1330 C.3   134  LYS134      0.0285
    119  CG        -6.7230   31.0290   46.0560 C.3   134  LYS134      0.0035
    120  CD        -7.8830   30.7270   46.9940 C.3   134  LYS134      0.0206
    121  CE        -8.1880   31.8950   47.9160 C.3   134  LYS134      0.1093
    122  NZ        -9.2980   31.5550   48.8240 N.3   134  LYS134     -0.1314
    123  N         -4.8260   27.1630   44.2200 N.am  135  PHE135     -0.1962
    124  CA        -4.6550   25.9870   43.3780 C.3   135  PHE135      0.1771
    125  C         -4.6770   24.7160   44.2170 C.2   135  PHE135      0.2619
    126  O         -5.4130   23.7850   43.9080 O.2   135  PHE135     -0.2715
    127  CB        -3.3660   26.1120   42.5760 C.3   135  PHE135      0.0574
    128  CG        -2.9060   24.8310   41.9280 C.ar  135  PHE135     -0.0200
    129  CD1       -3.4670   24.3960   40.7320 C.ar  135  PHE135     -0.0042
    130  CD2       -1.8540   24.1120   42.4760 C.ar  135  PHE135     -0.0042
    131  CE1       -3.0290   23.2330   40.1420 C.ar  135  PHE135     -0.0003
    132  CE2       -1.3960   22.9540   41.8750 C.ar  135  PHE135     -0.0003
    133  CZ        -1.9810   22.5200   40.7060 C.ar  135  PHE135     -0.0000
    134  N         -3.9240   24.6870   45.3220 N.am  136  TYR136     -0.1974
    135  CA        -3.9050   23.4810   46.1450 C.3   136  TYR136      0.1639
    136  C         -5.2630   23.2110   46.7750 C.2   136  TYR136      0.2290
    137  O         -5.6890   22.0590   46.8630 O.2   136  TYR136     -0.2864
    138  CB        -2.7760   23.4940   47.1840 C.3   136  TYR136      0.0560
    139  CG        -1.4170   23.3840   46.5340 C.ar  136  TYR136     -0.0198
    140  CD1       -1.0560   22.2270   45.8370 C.ar  136  TYR136     -0.0009
    141  CD2       -0.4870   24.4050   46.6210 C.ar  136  TYR136     -0.0009
    142  CE1        0.1750   22.1040   45.2290 C.ar  136  TYR136      0.0417
    143  CE2        0.7600   24.2860   45.9970 C.ar  136  TYR136      0.0417
    144  CZ         1.0780   23.1360   45.3150 C.ar  136  TYR136      0.1957
    145  OH         2.3110   23.0020   44.7050 O.3   136  TYR136     -0.2866
    146  N         -8.1620   24.0250   45.5330 N.3   138  LYS138     -0.1231
    147  CA        -9.0480   23.5050   44.4690 C.3   138  LYS138      0.1693
    148  C         -8.7250   22.0440   44.1230 C.2   138  LYS138      0.2592
    149  O         -9.6010   21.3150   43.6630 O.2   138  LYS138     -0.2718
    150  CB        -9.0320   24.3750   43.2060 C.3   138  LYS138      0.0285
    151  CG        -9.4940   25.8340   43.3830 C.3   138  LYS138      0.0035
    152  CD       -10.8710   26.0040   44.0070 C.3   138  LYS138      0.0206
    153  CE       -11.9770   25.4240   43.1800 C.3   138  LYS138      0.1093
    154  NZ       -13.2990   25.6010   43.8600 N.3   138  LYS138     -0.1314
    155  N         -7.4750   21.6230   44.3270 N.am  139  CYS139     -0.1970
    156  CA        -7.0540   20.2350   44.0770 C.3   139  CYS139      0.1712
    157  C         -7.3490   19.2930   45.2600 C.2   139  CYS139      0.2296
    158  O         -6.9860   18.1120   45.2230 O.2   139  CYS139     -0.2864
    159  CB        -5.5610   20.1570   43.7250 C.3   139  CYS139      0.0983
    160  SG        -5.1000   20.8320   42.1190 S.3   139  CYS139     -0.0798
@<TRIPOS>BOND
     1    53    52    1
     2    52    50   ar
     3    52    51   ar
     4    50    48   ar
     5    51    49   ar
     6    48    47   ar
     7    49    47   ar
     8    47    46    1
     9    78    77    1
    10    79    77    1
    11    46    43    1
    12    77    76    1
    13    43    42    1
    14    43    44    1
    15    76    73    1
    16    90    88    1
    17    75    74    2
    18    44    45    2
    19    44    54   am
    20    73    74    1
    21    73    72    1
    22    74    80   am
    23    54    55    1
    24    89    88    1
    25    88    85    1
    26    57    56    2
    27    72    67   am
    28    70    69    1
    29    68    67    2
    30    85    84    1
    31    85    86    1
    32    80    81    1
    33    40    39    1
    34    84    82   am
    35    67    66    1
    36    56    55    1
    37    56    65   am
    38    55    58    1
    39    81    82    1
    40    82    83    2
    41    37    36    1
    42    37    38    2
    43    65    66    1
    44    66    69    1
    45    69    71    1
    46    58    59    1
    47    36    39    1
    48    36    35    1
    49    86    87    2
    50    86    91   am
    51    39    41    1
    52    59    60    1
    53    91    92    1
    54     1     2    1
    55    31    30    2
    56    60    61    1
    57    61    62    2
    58    35    30   am
    59    64    62    1
    60    30    29    1
    61    62    63    1
    62    34    32    1
    63     2     5    1
    64     2     3    1
    65    92    93    1
    66    32    29    1
    67    32    33    1
    68    97    96    1
    69    97    98    2
    70    95    93   am
    71    95    96    1
    72    93    94    2
    73     5     6    1
    74    29    28    1
    75     8     6   ar
    76    99    96    1
    77    99   100    1
    78     3     4    2
    79     6     7   ar
    80   101   100    1
    81   101   102    1
    82    28    22   am
    83   103   102    1
    84     9    10    1
    85    25    27    1
    86    25    24    1
    87    10    11    1
    88    10    13    1
    89    22    23    2
    90    22    21    1
    91   131   133   ar
    92   131   129   ar
    93    11    12    2
    94    21    24    1
    95    21    20    1
    96    13    14    1
    97   133   132   ar
    98   129   128   ar
    99    24    26    1
   100    14    15   ar
   101    14    16   ar
   102   132   130   ar
   103   128   130   ar
   104   128   127    1
   105    15    17   ar
   106   160   159    1
   107   108   105    1
   108   127   124    1
   109    16    18   ar
   110    17    19   ar
   111   153   154    1
   112   153   152    1
   113   150   151    1
   114   150   147    1
   115   124   125    1
   116   124   123    1
   117   151   152    1
   118   105   106    1
   119   105   104    1
   120   107   106    2
   121   149   148    2
   122   159   156    1
   123   106   109   am
   124   126   125    2
   125   156   155    1
   126   156   157    1
   127   148   155   am
   128   148   147    1
   129    18    19   ar
   130   125   134   am
   131   123   116   am
   132   109   110    1
   133   147   146    1
   134   110   113    1
   135   110   111    1
   136   145   144    1
   137   117   116    2
   138   116   115    1
   139   118   115    1
   140   118   119    1
   141   158   157    2
   142   142   144   ar
   143   142   140   ar
   144   144   143   ar
   145   134   135    1
   146   112   111    2
   147   140   139   ar
   148   115   114    1
   149   143   141   ar
   150   119   120    1
   151   135   136    1
   152   135   138    1
   153   139   141   ar
   154   139   138    1
   155   136   137    2
   156   120   121    1
   157   121   122    1
