@<TRIPOS>MOLECULE
tmp/3pp9A00.pdb
 229 224 0 0 0
SMALL
GASTEIGER

@<TRIPOS>ATOM
      1  N         43.7460   30.0680   12.5680 N.3    20  ASP20      -0.1239
      2  CA        42.6050   29.2000   12.2460 C.3    20  ASP20       0.1674
      3  C         43.0360   28.0180   11.3990 C.2    20  ASP20       0.2266
      4  O         42.1870   27.3240   10.8320 O.2    20  ASP20      -0.2867
      5  CB        41.4180   29.9260   11.5520 C.3    20  ASP20       0.1410
      6  CG        41.7040   30.3320   10.1000 C.2    20  ASP20       0.3668
      7  OD1       42.8500   30.2150    9.6420 O.co2  20  ASP20      -0.2456
      8  OD2       40.7480   30.7740    9.4010 O.co2  20  ASP20      -0.2456
      9  N         44.5040   24.2510   10.5450 N.3    22  PHE22      -0.1241
     10  CA        44.3210   22.9360   11.1270 C.3    22  PHE22       0.1605
     11  C         44.9770   21.9000   10.2520 C.2    22  PHE22       0.2264
     12  O         45.3340   22.1600    9.1040 O.2    22  PHE22      -0.2867
     13  CB        42.8470   22.6120   11.3560 C.3    22  PHE22       0.0534
     14  CG        42.0120   22.6400   10.1210 C.ar   22  PHE22      -0.0203
     15  CD1       41.4610   23.8370    9.6800 C.ar   22  PHE22      -0.0042
     16  CD2       41.7290   21.4780    9.4240 C.ar   22  PHE22      -0.0042
     17  CE1       40.6650   23.8890    8.5510 C.ar   22  PHE22      -0.0003
     18  CE2       40.9320   21.5220    8.2900 C.ar   22  PHE22      -0.0003
     19  CZ        40.4150   22.7260    7.8480 C.ar   22  PHE22      -0.0000
     20  N         41.2370   27.6380    7.4630 N.3    52  TYR52      -0.1241
     21  CA        39.8260   27.5600    7.1720 C.3    52  TYR52       0.1605
     22  C         39.4450   28.6610    6.1690 C.2    52  TYR52       0.2264
     23  O         38.7400   28.4070    5.1890 O.2    52  TYR52      -0.2867
     24  CB        39.0020   27.6780    8.4440 C.3    52  TYR52       0.0534
     25  CG        37.5480   27.7310    8.1120 C.ar   52  TYR52      -0.0201
     26  CD1       36.9230   26.6410    7.5480 C.ar   52  TYR52      -0.0009
     27  CD2       36.7850   28.8550    8.3830 C.ar   52  TYR52      -0.0009
     28  CE1       35.5840   26.6750    7.2340 C.ar   52  TYR52       0.0417
     29  CE2       35.4500   28.8940    8.0710 C.ar   52  TYR52       0.0417
     30  CZ        34.8520   27.7980    7.5020 C.ar   52  TYR52       0.1957
     31  OH        33.5190   27.8100    7.1860 O.3    52  TYR52      -0.2866
     32  N         26.1510   28.9220   11.0830 N.3    93  ILE93      -0.1231
     33  CA        27.5010   29.2510   11.5140 C.3    93  ILE93       0.1692
     34  C         28.3700   29.4370   10.2800 C.2    93  ILE93       0.2592
     35  O         28.6930   28.4810    9.5840 O.2    93  ILE93      -0.2718
     36  CB        28.1140   28.1490   12.3870 C.3    93  ILE93       0.0266
     37  CG1       27.2490   27.8530   13.6120 C.3    93  ILE93       0.0019
     38  CG2       29.5600   28.5650   12.7660 C.3    93  ILE93       0.0020
     39  CD1       27.7470   26.6580   14.4530 C.3    93  ILE93       0.0001
     40  N         28.7460   30.6800   10.0200 N.am   94  GLU94      -0.1966
     41  CA        29.5940   31.0120    8.8950 C.3    94  GLU94       0.1733
     42  C         31.0360   30.6280    9.1760 C.2    94  GLU94       0.2616
     43  O         31.7690   30.2640    8.2450 O.2    94  GLU94      -0.2715
     44  CB        29.5410   32.5040    8.6280 C.3    94  GLU94       0.0429
     45  CG        28.2000   32.9950    8.1190 C.3    94  GLU94       0.1163
     46  CD        27.9210   32.6350    6.6800 C.2    94  GLU94       0.3649
     47  OE1       28.8090   32.1130    5.9780 O.co2  94  GLU94      -0.2457
     48  OE2       26.7930   32.8900    6.2370 O.co2  94  GLU94      -0.2457
     49  N         31.4390   30.7290   10.4520 N.am   95  ASP95      -0.1957
     50  CA        32.7970   30.4090   10.8750 C.3    95  ASP95       0.1840
     51  C         32.8640   30.3100   12.3770 C.2    95  ASP95       0.2622
     52  O         32.2430   31.1200   13.0800 O.2    95  ASP95      -0.2715
     53  CB        33.7480   31.5440   10.4060 C.3    95  ASP95       0.1450
     54  CG        35.2360   31.3420   10.7700 C.2    95  ASP95       0.3671
     55  OD1       35.5990   30.5070   11.6140 O.co2  95  ASP95      -0.2456
     56  OD2       36.0790   32.1150   10.1920 O.co2  95  ASP95      -0.2456
     57  N         33.5240   29.2680   12.8560 N.am   96  ILE96      -0.1963
     58  CA        33.8140   29.1390   14.2750 C.3    96  ILE96       0.1727
     59  C         35.3060   28.8440   14.3050 C.2    96  ILE96       0.2617
     60  O         35.7880   27.9540   13.6000 O.2    96  ILE96      -0.2715
     61  CB        32.9760   28.1240   15.0610 C.3    96  ILE96       0.0290
     62  CG1       33.4410   28.0940   16.5360 C.3    96  ILE96       0.0022
     63  CG2       33.0740   26.6960   14.4410 C.3    96  ILE96       0.0023
     64  CD1       32.6540   27.1560   17.4430 C.3    96  ILE96       0.0001
     65  N         36.0420   29.6330   15.0770 N.am   97  THR97      -0.1937
     66  CA        37.4750   29.4360   15.1930 C.3    97  THR97       0.2028
     67  C         37.9590   29.6460   16.6070 C.2    97  THR97       0.2642
     68  O         37.5780   30.6050   17.2650 O.2    97  THR97      -0.2714
     69  CB        38.2640   30.4250   14.3210 C.3    97  THR97       0.1808
     70  OG1       38.0300   30.1490   12.9300 O.3    97  THR97      -0.2208
     71  CG2       39.7770   30.3130   14.5710 C.3    97  THR97       0.0379
     72  N         38.7910   28.7160   17.0690 N.am   98  VAL98      -0.1977
     73  CA        39.4720   28.8480   18.3430 C.3    98  VAL98       0.1596
     74  C         40.9710   28.8650   17.9640 C.2    98  VAL98       0.2287
     75  O         41.4450   28.0270   17.1670 O.2    98  VAL98      -0.2864
     76  CB        39.1280   27.7200   19.3350 C.3    98  VAL98       0.0276
     77  CG1       40.0730   27.7440   20.5520 C.3    98  VAL98       0.0022
     78  CG2       37.6740   27.8460   19.7790 C.3    98  VAL98       0.0022
     79  N         44.8810   27.0520   21.8600 N.3   102  TYR102     -0.1227
     80  CA        43.8910   26.8500   22.9040 C.3   102  TYR102      0.1736
     81  C         42.8200   25.8080   22.6070 C.2   102  TYR102      0.2595
     82  O         41.8450   25.6980   23.3610 O.2   102  TYR102     -0.2718
     83  CB        43.1890   28.1730   23.2320 C.3   102  TYR102      0.0548
     84  CG        44.1040   29.2340   23.7790 C.ar  102  TYR102     -0.0200
     85  CD1       44.5340   29.1710   25.0790 C.ar  102  TYR102     -0.0009
     86  CD2       44.5260   30.3080   23.0050 C.ar  102  TYR102     -0.0009
     87  CE1       45.3710   30.1330   25.5960 C.ar  102  TYR102      0.0417
     88  CE2       45.3800   31.2800   23.5220 C.ar  102  TYR102      0.0417
     89  CZ        45.7920   31.1790   24.8200 C.ar  102  TYR102      0.1957
     90  OH        46.6380   32.1150   25.3850 O.3   102  TYR102     -0.2866
     91  N         42.9640   25.0690   21.5160 N.am  103  ARG103     -0.1966
     92  CA        41.9520   24.0620   21.1770 C.3   103  ARG103      0.1729
     93  C         41.9670   22.8570   22.0980 C.2   103  ARG103      0.2617
     94  O         42.9840   22.5290   22.7110 O.2   103  ARG103     -0.2715
     95  CB        42.1170   23.6110   19.7480 C.3   103  ARG103      0.0348
     96  CG        41.8590   24.7110   18.7420 C.3   103  ARG103      0.0492
     97  CD        42.0820   24.2360   17.3150 C.3   103  ARG103      0.2205
     98  NE        42.2180   25.4000   16.4420 N.pl3 103  ARG103     -0.0865
     99  CZ        42.8080   25.3930   15.2630 C.cat 103  ARG103      0.5346
    100  NH1       43.2770   24.2560   14.7530 N.pl3 103  ARG103      0.1354
    101  NH2       42.9600   26.5290   14.6100 N.pl3 103  ARG103      0.1354
    102  N         40.8060   22.2010   22.1360 N.am  104  THR104     -0.1937
    103  CA        40.4850   21.0010   22.9250 C.3   104  THR104      0.2028
    104  C         40.3000   21.2780   24.4280 C.2   104  THR104      0.2642
    105  O         40.2460   20.3400   25.2430 O.2   104  THR104     -0.2714
    106  CB        41.4960   19.8460   22.7290 C.3   104  THR104      0.1808
    107  OG1       42.6950   20.0840   23.4610 O.3   104  THR104     -0.2208
    108  CG2       41.7890   19.6320   21.2260 C.3   104  THR104      0.0379
    109  N         40.1760   22.5560   24.7670 N.am  105  LEU105     -0.1963
    110  CA        40.0120   23.0240   26.1530 C.3   105  LEU105      0.1728
    111  C         38.6110   23.5820   26.4510 C.2   105  LEU105      0.2617
    112  O         38.4120   24.2690   27.4650 O.2   105  LEU105     -0.2715
    113  CB        41.0890   24.0700   26.4740 C.3   105  LEU105      0.0311
    114  CG        42.5250   23.5400   26.3790 C.3   105  LEU105      0.0022
    115  CD1       43.5340   24.6830   26.5610 C.3   105  LEU105      0.0001
    116  CD2       42.7960   22.4000   27.3690 C.3   105  LEU105      0.0001
    117  N         37.6440   23.2480   25.5990 N.am  106  GLY106     -0.1940
    118  CA        36.2460   23.6290   25.7810 C.3   106  GLY106      0.2014
    119  C         35.7450   24.9750   25.3030 C.2   106  GLY106      0.2639
    120  O         34.5590   25.3030   25.4700 O.2   106  GLY106     -0.2714
    121  N         36.6170   25.7680   24.6970 N.am  107  VAL107     -0.1963
    122  CA        36.2330   27.0910   24.2290 C.3   107  VAL107      0.1727
    123  C         35.1840   27.0170   23.1090 C.2   107  VAL107      0.2617
    124  O         34.1740   27.7390   23.1150 O.2   107  VAL107     -0.2715
    125  CB        37.4630   27.9090   23.7960 C.3   107  VAL107      0.0290
    126  CG1       37.0230   29.2700   23.2760 C.3   107  VAL107      0.0023
    127  CG2       38.4200   28.0890   24.9530 C.3   107  VAL107      0.0023
    128  N         35.3970   26.1290   22.1620 N.am  108  GLY108     -0.1940
    129  CA        34.4550   25.9520   21.0550 C.3   108  GLY108      0.2014
    130  C         33.0560   25.5880   21.5410 C.2   108  GLY108      0.2638
    131  O         32.0560   26.1310   21.0490 O.2   108  GLY108     -0.2714
    132  N         32.9700   24.6630   22.4880 N.am  109  LYS109     -0.1977
    133  CA        31.6570   24.2840   23.0160 C.3   109  LYS109      0.1596
    134  C         30.9440   25.4770   23.6380 C.2   109  LYS109      0.2287
    135  O         29.7120   25.6000   23.5380 O.2   109  LYS109     -0.2864
    136  CB        31.7950   23.1570   24.0470 C.3   109  LYS109      0.0298
    137  CG        30.4730   22.7110   24.6440 C.3   109  LYS109      0.0038
    138  CD        30.6530   21.5810   25.6750 C.3   109  LYS109      0.0206
    139  CE        31.1890   20.2980   25.0650 C.3   109  LYS109      0.1093
    140  NZ        31.2120   19.1850   26.0640 N.3   109  LYS109     -0.1314
    141  N         25.3190   24.2980    9.6940 N.3   127  LEU127     -0.1231
    142  CA        26.5670   24.7610    9.1050 C.3   127  LEU127      0.1693
    143  C         27.0280   23.7790    8.0480 C.2   127  LEU127      0.2592
    144  O         26.4270   22.7290    7.8570 O.2   127  LEU127     -0.2718
    145  CB        27.6400   24.9510   10.1910 C.3   127  LEU127      0.0284
    146  CG        28.1660   23.7920   11.0510 C.3   127  LEU127      0.0019
    147  CD1       27.1480   23.2310   11.9870 C.3   127  LEU127      0.0001
    148  CD2       28.8700   22.6840   10.2520 C.3   127  LEU127      0.0001
    149  N         28.0360   24.1990    7.2870 N.am  128  GLU128     -0.1966
    150  CA        28.6510   23.3700    6.2640 C.3   128  GLU128      0.1733
    151  C         30.1110   23.2720    6.6030 C.2   128  GLU128      0.2617
    152  O         30.7120   24.2340    7.0930 O.2   128  GLU128     -0.2715
    153  CB        28.5270   23.9860    4.8660 C.3   128  GLU128      0.0429
    154  CG        29.2020   23.1820    3.7320 C.3   128  GLU128      0.1163
    155  CD        30.7440   23.2850    3.6520 C.2   128  GLU128      0.3649
    156  OE1       31.3720   24.0670    4.4000 O.co2 128  GLU128     -0.2457
    157  OE2       31.3270   22.5910    2.7940 O.co2 128  GLU128     -0.2457
    158  N         30.6600   22.0890    6.3850 N.am  129  THR129     -0.1951
    159  CA        32.0720   21.8490    6.5800 C.3   129  THR129      0.1897
    160  C         32.4600   20.8990    5.4300 C.2   129  THR129      0.2313
    161  O         31.6030   20.5210    4.6270 O.2   129  THR129     -0.2863
    162  CB        32.4200   21.3960    8.0510 C.3   129  THR129      0.1794
    163  OG1       33.8530   21.3380    8.2350 O.3   129  THR129     -0.2208
    164  CG2       31.7580   20.0810    8.4110 C.3   129  THR129      0.0378
    165  N         37.7290   17.8510    7.0880 N.3   133  ASN133     -0.1240
    166  CA        37.9180   18.5070    8.3810 C.3   133  ASN133      0.1653
    167  C         37.3000   17.5960    9.4420 C.2   133  ASN133      0.2266
    168  O         36.2540   17.8870   10.0040 O.2   133  ASN133     -0.2867
    169  CB        37.2950   19.8940    8.3790 C.3   133  ASN133      0.1155
    170  CG        37.7080   20.7270    9.5620 C.2   133  ASN133      0.2627
    171  OD1       38.3130   20.2240   10.5200 O.2   133  ASN133     -0.2716
    172  ND2       37.4180   22.0390    9.4840 N.am  133  ASN133     -0.0877
    173  N         38.3710   16.9330   12.4160 N.3   135  ALA135     -0.1231
    174  CA        38.3750   17.5400   13.7520 C.3   135  ALA135      0.1694
    175  C         37.0640   18.2840   13.9630 C.2   135  ALA135      0.2591
    176  O         36.4090   18.1300   14.9910 O.2   135  ALA135     -0.2718
    177  CB        39.5270   18.5240   13.9070 C.3   135  ALA135      0.0304
    178  N         36.6880   19.1080   12.9900 N.am  136  ALA136     -0.1980
    179  CA        35.4390   19.8760   13.0710 C.3   136  ALA136      0.1597
    180  C         34.2200   18.9500   13.0820 C.2   136  ALA136      0.2287
    181  O         33.2660   19.1640   13.8460 O.2   136  ALA136     -0.2864
    182  CB        35.3380   20.8600   11.9180 C.3   136  ALA136      0.0319
    183  N         33.9660   15.8400   14.1800 N.3   138  LYS138     -0.1231
    184  CA        33.8550   15.2020   15.4960 C.3   138  LYS138      0.1693
    185  C         33.3700   16.2090   16.5310 C.2   138  LYS138      0.2592
    186  O         32.5660   15.8740   17.3980 O.2   138  LYS138     -0.2718
    187  CB        35.1840   14.5840   15.9100 C.3   138  LYS138      0.0285
    188  CG        35.5870   13.3790   15.0710 C.3   138  LYS138      0.0035
    189  CD        34.6210   12.2230   15.2670 C.3   138  LYS138      0.0206
    190  CE        35.0440   11.0030   14.4630 C.3   138  LYS138      0.1093
    191  NZ        34.1740    9.8310   14.7210 N.3   138  LYS138     -0.1314
    192  N         33.8490   17.4440   16.4370 N.am  139  PHE139     -0.1962
    193  CA        33.4260   18.5020   17.3540 C.3   139  PHE139      0.1771
    194  C         31.9070   18.7390   17.2300 C.2   139  PHE139      0.2619
    195  O         31.1880   18.7740   18.2350 O.2   139  PHE139     -0.2715
    196  CB        34.1840   19.7910   17.0120 C.3   139  PHE139      0.0574
    197  CG        33.6160   21.0380   17.6670 C.ar  139  PHE139     -0.0200
    198  CD1       33.8000   21.2780   19.0120 C.ar  139  PHE139     -0.0042
    199  CD2       32.9350   21.9810   16.9180 C.ar  139  PHE139     -0.0042
    200  CE1       33.2830   22.4250   19.5940 C.ar  139  PHE139     -0.0003
    201  CE2       32.4170   23.1330   17.4960 C.ar  139  PHE139     -0.0003
    202  CZ        32.6020   23.3560   18.8380 C.ar  139  PHE139     -0.0000
    203  N         31.4010   18.8850   16.0070 N.am  140  TYR140     -0.1974
    204  CA        29.9510   19.0980   15.8340 C.3   140  TYR140      0.1639
    205  C         29.1490   17.9030   16.3560 C.2   140  TYR140      0.2290
    206  O         28.0850   18.0770   16.9680 O.2   140  TYR140     -0.2864
    207  CB        29.5880   19.4490   14.3830 C.3   140  TYR140      0.0560
    208  CG        30.2200   20.7350   13.9310 C.ar  140  TYR140     -0.0198
    209  CD1       29.9400   21.9290   14.5660 C.ar  140  TYR140     -0.0009
    210  CD2       31.0390   20.7730   12.8120 C.ar  140  TYR140     -0.0009
    211  CE1       30.5320   23.1200   14.1520 C.ar  140  TYR140      0.0417
    212  CE2       31.6100   21.9540   12.3950 C.ar  140  TYR140      0.0417
    213  CZ        31.3460   23.1210   13.0650 C.ar  140  TYR140      0.1957
    214  OH        31.9350   24.3130   12.6490 O.3   140  TYR140     -0.2866
    215  N         29.9640   15.9030   18.7880 N.3   142  LYS142     -0.1231
    216  CA        29.9920   15.9940   20.2480 C.3   142  LYS142      0.1693
    217  C         29.0200   17.0520   20.7660 C.2   142  LYS142      0.2592
    218  O         28.4730   16.9150   21.8750 O.2   142  LYS142     -0.2718
    219  CB        31.4030   16.2740   20.7850 C.3   142  LYS142      0.0285
    220  CG        32.3500   15.1040   20.7840 C.3   142  LYS142      0.0035
    221  CD        31.8980   14.0360   21.7670 C.3   142  LYS142      0.0206
    222  CE        32.8960   12.9000   21.8460 C.3   142  LYS142      0.1093
    223  NZ        32.4240   11.8480   22.7720 N.3   142  LYS142     -0.1314
    224  N         28.7820   18.0830   19.9560 N.am  143  CYS143     -0.1970
    225  CA        27.8680   19.1670   20.2870 C.3   143  CYS143      0.1712
    226  C         26.3950   18.8450   19.9760 C.2   143  CYS143      0.2296
    227  O         25.5190   19.6840   20.2020 O.2   143  CYS143     -0.2864
    228  CB        28.2990   20.4740   19.6000 C.3   143  CYS143      0.0983
    229  SG        29.8330   21.1720   20.2290 S.3   143  CYS143     -0.0798
@<TRIPOS>BOND
     1   157   155   ar
     2   155   154    1
     3   155   156   ar
     4   154   153    1
     5   161   160    2
     6   153   150    1
     7    23    22    2
     8   160   159    1
     9    47    46   ar
    10    22    21    1
    11    48    46   ar
    12   150   151    1
    13   150   149    1
    14   158   159    1
    15   158   151   am
    16   159   162    1
    17   151   152    2
    18    46    45    1
    19   165   166    1
    20    21    20    1
    21    21    24    1
    22    31    30    1
    23    28    30   ar
    24    28    26   ar
    25   149   143   am
    26    30    29   ar
    27    26    25   ar
    28    19    18   ar
    29    19    17   ar
    30   144   143    2
    31   143   142    1
    32   162   163    1
    33   162   164    1
    34    29    27   ar
    35    25    27   ar
    36    25    24    1
    37    45    44    1
    38    43    42    2
    39    18    16   ar
    40   169   166    1
    41   169   170    1
    42   166   167    1
    43    17    15   ar
    44    44    41    1
    45    41    42    1
    46    41    40    1
    47    12    11    2
    48   142   141    1
    49   142   145    1
    50    42    49   am
    51     8     6   ar
    52    16    14   ar
    53   167   168    2
    54   172   170   am
    55   170   171    2
    56    35    34    2
    57     7     6   ar
    58    15    14   ar
    59    40    34   am
    60     6     5    1
    61    14    13    1
    62   145   146    1
    63    56    54   ar
    64    11    10    1
    65   148   146    1
    66    34    33    1
    67    53    54    1
    68    53    50    1
    69    49    50    1
    70     9    10    1
    71    54    55   ar
    72     4     3    2
    73    50    51    1
    74   146   147    1
    75    32    33    1
    76    10    13    1
    77     3     2    1
    78    33    36    1
    79     5     2    1
    80   182   179    1
    81     2     1    1
    82    51    57   am
    83    51    52    2
    84    36    38    1
    85    36    37    1
    86   212   210   ar
    87   212   213   ar
    88   173   174    1
    89   214   213    1
    90   210   208   ar
    91    57    58    1
    92    70    69    1
    93   178   179    1
    94   178   175   am
    95   213   211   ar
    96   179   180    1
    97   180   181    2
    98    60    59    2
    99    37    39    1
   100   174   177    1
   101   174   175    1
   102   208   207    1
   103   208   209   ar
   104   175   176    2
   105   211   209   ar
   106   183   184    1
   107    58    59    1
   108    58    61    1
   109    59    65   am
   110    69    71    1
   111    69    66    1
   112   207   204    1
   113    63    61    1
   114   190   191    1
   115   190   189    1
   116   101    99    1
   117   100    99    1
   118    61    62    1
   119   188   189    1
   120   188   187    1
   121    65    66    1
   122    66    67    1
   123    99    98    2
   124   184   187    1
   125   184   185    1
   126   204   203    1
   127   204   205    1
   128   203   194   am
   129   205   206    2
   130   192   185   am
   131   192   193    1
   132    98    97    1
   133   185   186    2
   134    62    64    1
   135    67    72   am
   136    67    68    2
   137   199   201   ar
   138   199   197   ar
   139   196   193    1
   140   196   197    1
   141    72    73    1
   142    75    74    2
   143   194   193    1
   144   194   195    2
   145    97    96    1
   146   201   202   ar
   147   197   198   ar
   148    74    73    1
   149    73    76    1
   150    96    95    1
   151   215   216    1
   152   202   200   ar
   153   198   200   ar
   154    76    78    1
   155    76    77    1
   156   228   229    1
   157   228   225    1
   158    95    92    1
   159   224   225    1
   160   224   217   am
   161   226   227    2
   162   226   225    1
   163   216   217    1
   164   216   219    1
   165   217   218    2
   166   220   219    1
   167   220   221    1
   168   131   130    2
   169   129   130    1
   170   129   128    1
   171    92    91    1
   172    92    93    1
   173   108   106    1
   174    91    81   am
   175   130   132   am
   176   221   222    1
   177   222   223    1
   178    79    80    1
   179    93   102   am
   180    93    94    2
   181   102   103    1
   182   128   123   am
   183   132   133    1
   184    81    80    1
   185    81    82    2
   186   106   103    1
   187   106   107    1
   188    80    83    1
   189   103   104    1
   190    86    88   ar
   191    86    84   ar
   192   133   134    1
   193   133   136    1
   194   123   124    2
   195   123   122    1
   196    83    84    1
   197   126   125    1
   198    88    89   ar
   199   135   134    2
   200    84    85   ar
   201   125   122    1
   202   125   127    1
   203   136   137    1
   204   122   121    1
   205   104   109   am
   206   104   105    2
   207   137   138    1
   208   121   119   am
   209   109   110    1
   210    89    90    1
   211    89    87   ar
   212   139   138    1
   213   139   140    1
   214    85    87   ar
   215   119   120    2
   216   119   118    1
   217   117   118    1
   218   117   111   am
   219   110   111    1
   220   110   113    1
   221   114   113    1
   222   114   115    1
   223   114   116    1
   224   111   112    2
