@<TRIPOS>MOLECULE
tmp/3ppbB03.pdb
 170 163 0 0 0
SMALL
GASTEIGER

@<TRIPOS>ATOM
      1  N          8.5470    0.6130   63.5700 N.3    58  LYS58      -0.1245
      2  CA         9.0210    1.1210   64.8810 C.3    58  LYS58       0.1561
      3  C          7.8660    1.0840   65.9140 C.2    58  LYS58       0.2260
      4  O          8.0800    0.6220   67.0260 O.2    58  LYS58      -0.2867
      5  CB         9.5810    2.5530   64.7640 C.3    58  LYS58       0.0271
      6  CG        10.9410    2.6670   64.0760 C.3    58  LYS58       0.0035
      7  CD        12.1070    2.3440   65.0170 C.3    58  LYS58       0.0206
      8  CE        13.4200    2.2640   64.2740 C.3    58  LYS58       0.1093
      9  NZ        14.5750    2.3860   65.2000 N.3    58  LYS58      -0.1314
     10  N          7.2200   -2.5630   67.0080 N.3    61  PHE61      -0.1241
     11  CA         8.3130   -2.9510   67.9020 C.3    61  PHE61       0.1605
     12  C          8.0860   -2.3730   69.3120 C.2    61  PHE61       0.2264
     13  O          8.1430   -3.1090   70.3010 O.2    61  PHE61      -0.2867
     14  CB         9.6390   -2.4360   67.3140 C.3    61  PHE61       0.0534
     15  CG        10.8690   -2.6250   68.1770 C.ar   61  PHE61      -0.0203
     16  CD1       11.4650   -3.8730   68.3020 C.ar   61  PHE61      -0.0042
     17  CD2       11.4540   -1.5440   68.8320 C.ar   61  PHE61      -0.0042
     18  CE1       12.6350   -4.0330   69.0490 C.ar   61  PHE61      -0.0003
     19  CE2       12.6230   -1.7050   69.5740 C.ar   61  PHE61      -0.0003
     20  CZ        13.2010   -2.9470   69.6840 C.ar   61  PHE61      -0.0000
     21  N          7.2840   -4.7130   72.7550 N.3    65  ILE65      -0.1245
     22  CA         8.1970   -4.7640   73.8910 C.3    65  ILE65       0.1561
     23  C          7.5430   -4.1830   75.1490 C.2    65  ILE65       0.2260
     24  O          7.7210   -4.7640   76.2270 O.2    65  ILE65      -0.2867
     25  CB         9.6020   -4.1710   73.5740 C.3    65  ILE65       0.0252
     26  CG1        9.6060   -2.6530   73.3840 C.3    65  ILE65       0.0019
     27  CG2       10.1960   -4.8960   72.3460 C.3    65  ILE65       0.0019
     28  CD1       11.0260   -2.0110   73.3330 C.3    65  ILE65       0.0001
     29  N         13.7760   -0.9720   88.2190 N.3    75  LEU75      -0.1245
     30  CA        14.2270   -0.4980   86.9260 C.3    75  LEU75       0.1561
     31  C         15.0760   -1.5460   86.1910 C.2    75  LEU75       0.2260
     32  O         14.8540   -1.7610   85.0030 O.2    75  LEU75      -0.2867
     33  CB        14.9960    0.8380   87.0520 C.3    75  LEU75       0.0270
     34  CG        15.5560    1.3560   85.7090 C.3    75  LEU75       0.0019
     35  CD1       14.4740    1.9790   84.8240 C.3    75  LEU75       0.0001
     36  CD2       16.7440    2.2350   85.9330 C.3    75  LEU75       0.0001
     37  N         14.1930   -3.1510   82.6840 N.3    79  ALA79      -0.1245
     38  CA        15.1520   -3.0140   81.5830 C.3    79  ALA79       0.1562
     39  C         15.4800   -4.4080   81.0160 C.2    79  ALA79       0.2260
     40  O         15.5590   -4.5700   79.8070 O.2    79  ALA79      -0.2867
     41  CB        16.4070   -2.3210   82.0770 C.3    79  ALA79       0.0290
     42  N         12.4450   -5.6300   79.0210 N.3    82  LEU82      -0.1231
     43  CA        12.3740   -4.8810   77.7600 C.3    82  LEU82       0.1693
     44  C         13.4240   -5.3630   76.7680 C.2    82  LEU82       0.2592
     45  O         13.1320   -5.5050   75.5860 O.2    82  LEU82      -0.2718
     46  CB        12.5520   -3.3600   77.9950 C.3    82  LEU82       0.0284
     47  CG        11.3220   -2.6190   78.5220 C.3    82  LEU82       0.0019
     48  CD1       11.7190   -1.3430   79.1780 C.3    82  LEU82       0.0001
     49  CD2       10.2850   -2.3750   77.3980 C.3    82  LEU82       0.0001
     50  N         14.6490   -5.6040   77.2570 N.am   83  TRP83      -0.1976
     51  CA        15.7530   -6.0590   76.4380 C.3    83  TRP83       0.1640
     52  C         15.4530   -7.4480   75.8440 C.2    83  TRP83       0.2290
     53  O         15.5950   -7.6340   74.6400 O.2    83  TRP83      -0.2864
     54  CB        17.0200   -6.1070   77.3010 C.3    83  TRP83       0.0576
     55  CG        18.1970   -6.7050   76.6010 C.ar   83  TRP83       0.0006
     56  CD1       18.7140   -7.9450   76.7920 C.ar   83  TRP83       0.0946
     57  CD2       19.0030   -6.0830   75.5920 C.ar   83  TRP83       0.0152
     58  NE1       19.8290   -8.1140   76.0110 N.ar   83  TRP83      -0.2442
     59  CE2       20.0250   -6.9910   75.2570 C.ar   83  TRP83       0.0810
     60  CE3       18.9470   -4.8390   74.9200 C.ar   83  TRP83       0.0012
     61  CZ2       21.0140   -6.6910   74.3100 C.ar   83  TRP83       0.0191
     62  CZ3       19.9210   -4.5450   73.9790 C.ar   83  TRP83       0.0001
     63  CH2       20.9550   -5.4580   73.6970 C.ar   83  TRP83       0.0015
     64  N         12.6720   -7.2410   73.2590 N.3    86  ALA86      -0.1245
     65  CA        13.1810   -6.6530   72.0130 C.3    86  ALA86       0.1562
     66  C         13.9040   -7.7260   71.1890 C.2    86  ALA86       0.2260
     67  O         13.6370   -7.8710   70.0000 O.2    86  ALA86      -0.2867
     68  CB        14.1150   -5.4820   72.3100 C.3    86  ALA86       0.0290
     69  N          9.6660    5.8300   70.6300 N.3   119  LEU119     -0.1245
     70  CA        10.4740    5.1900   71.6600 C.3   119  LEU119      0.1561
     71  C         10.8810    6.1990   72.7530 C.2   119  LEU119      0.2260
     72  O         11.9060    6.0140   73.4210 O.2   119  LEU119     -0.2867
     73  CB        11.6880    4.4840   71.0340 C.3   119  LEU119      0.0270
     74  CG        11.3160    3.3490   70.0610 C.3   119  LEU119      0.0019
     75  CD1       12.4080    3.1100   69.0600 C.3   119  LEU119      0.0001
     76  CD2       10.9800    2.0720   70.7940 C.3   119  LEU119      0.0001
     77  N         11.9480    5.2110   76.3830 N.3   122  ILE122     -0.1245
     78  CA        13.3290    4.7840   76.6660 C.3   122  ILE122      0.1561
     79  C         14.0590    5.9010   77.3980 C.2   122  ILE122      0.2260
     80  O         14.6810    5.6350   78.4250 O.2   122  ILE122     -0.2867
     81  CB        14.1000    4.3080   75.4050 C.3   122  ILE122      0.0252
     82  CG1       13.4820    2.9850   74.8630 C.3   122  ILE122      0.0019
     83  CG2       15.6160    4.1380   75.7110 C.3   122  ILE122      0.0019
     84  CD1       14.0620    2.4850   73.4760 C.3   122  ILE122      0.0001
     85  N         12.8350    6.1640   80.9920 N.3   125  LEU125     -0.1231
     86  CA        13.4160    5.1540   81.8730 C.3   125  LEU125      0.1693
     87  C         14.8460    5.5120   82.2400 C.2   125  LEU125      0.2591
     88  O         15.2280    5.3090   83.3960 O.2   125  LEU125     -0.2718
     89  CB        13.3570    3.7490   81.2500 C.3   125  LEU125      0.0284
     90  CG        11.9440    3.1340   81.2200 C.3   125  LEU125      0.0019
     91  CD1       11.8930    1.9020   80.3650 C.3   125  LEU125      0.0001
     92  CD2       11.4040    2.8530   82.6360 C.3   125  LEU125      0.0001
     93  N         15.6250    6.0860   81.2780 N.am  126  ILE126     -0.1980
     94  CA        17.0120    6.4950   81.5610 C.3   126  ILE126      0.1595
     95  C         16.9950    7.6260   82.6160 C.2   126  ILE126      0.2287
     96  O         17.7470    7.5510   83.5880 O.2   126  ILE126     -0.2864
     97  CB        17.8270    6.8760   80.3060 C.3   126  ILE126      0.0276
     98  CG1       17.9270    5.6840   79.3070 C.3   126  ILE126      0.0022
     99  CG2       19.2350    7.3900   80.7000 C.3   126  ILE126      0.0022
    100  CD1       18.3220    6.1210   77.8440 C.3   126  ILE126      0.0001
    101  N         21.7470    4.6810   87.1200 N.3   135  LEU135     -0.1245
    102  CA        22.3620    4.9110   85.8110 C.3   135  LEU135      0.1561
    103  C         23.2850    6.1260   85.8230 C.2   135  LEU135      0.2260
    104  O         23.0250    7.1200   86.5160 O.2   135  LEU135     -0.2867
    105  CB        21.3130    5.0650   84.7030 C.3   135  LEU135      0.0270
    106  CG        20.3150    3.8810   84.5550 C.3   135  LEU135      0.0019
    107  CD1       19.3240    4.1510   83.4100 C.3   135  LEU135      0.0001
    108  CD2       21.0510    2.5140   84.3860 C.3   135  LEU135      0.0001
    109  N         20.7220    6.8480   74.4760 N.3   143  GLN143     -0.1245
    110  CA        19.6580    6.2290   73.6950 C.3   143  GLN143      0.1566
    111  C         20.2350    5.6640   72.3630 C.2   143  GLN143      0.2260
    112  O         19.9200    4.5260   72.0080 O.2   143  GLN143     -0.2867
    113  CB        18.5020    7.2120   73.4720 C.3   143  GLN143      0.0367
    114  CG        17.3070    6.5270   72.8080 C.3   143  GLN143      0.0905
    115  CD        15.9960    7.2700   72.9100 C.2   143  GLN143      0.2608
    116  OE1       15.8860    8.3640   73.5250 O.2   143  GLN143     -0.2717
    117  NE2       14.9670    6.6540   72.3010 N.am  143  GLN143     -0.0878
    118  N         21.9400    2.4660   73.3250 N.3   146  CYS146     -0.1221
    119  CA        20.9580    1.3690   73.5010 C.3   146  CYS146      0.1808
    120  C         20.6520    0.7680   72.1420 C.2   146  CYS146      0.2601
    121  O         20.6380   -0.4530   71.9910 O.2   146  CYS146     -0.2717
    122  CB        19.6750    1.8530   74.1750 C.3   146  CYS146      0.0970
    123  SG        19.8820    2.3660   75.8990 S.3   146  CYS146     -0.0800
    124  N         20.4010    1.6410   71.1650 N.am  147  HIS147     -0.1975
    125  CA        20.0810    1.2900   69.7830 C.3   147  HIS147      0.1656
    126  C         21.2400    0.5100   69.1130 C.2   147  HIS147      0.2291
    127  O         20.9920   -0.5310   68.5170 O.2   147  HIS147     -0.2864
    128  CB        19.7610    2.5780   69.0030 C.3   147  HIS147      0.0771
    129  CG        19.1320    2.3590   67.6540 C.ar  147  HIS147      0.0820
    130  ND1       18.6600    1.1180   67.2570 N.ar  147  HIS147     -0.2267
    131  CD2       18.8620    3.2580   66.6810 C.ar  147  HIS147      0.1154
    132  CE1       18.1600    1.2970   66.0440 C.ar  147  HIS147      0.1986
    133  NE2       18.2290    2.5740   65.6740 N.ar  147  HIS147     -0.2212
    134  N         21.5470   -2.9550   70.7850 N.3   150  TYR150     -0.1241
    135  CA        20.4520   -3.8210   70.3270 C.3   150  TYR150      0.1605
    136  C         20.7970   -4.3800   68.9310 C.2   150  TYR150      0.2264
    137  O         20.6490   -5.5670   68.6710 O.2   150  TYR150     -0.2867
    138  CB        19.1220   -3.0220   70.2740 C.3   150  TYR150      0.0534
    139  CG        18.0300   -3.7320   69.5040 C.ar  150  TYR150     -0.0201
    140  CD1       17.2940   -4.7520   70.0870 C.ar  150  TYR150     -0.0009
    141  CD2       17.7570   -3.4060   68.1750 C.ar  150  TYR150     -0.0009
    142  CE1       16.3020   -5.4370   69.3710 C.ar  150  TYR150      0.0417
    143  CE2       16.7790   -4.0980   67.4410 C.ar  150  TYR150      0.0417
    144  CZ        16.0420   -5.1000   68.0560 C.ar  150  TYR150      0.1957
    145  OH        15.0690   -5.7920   67.3650 O.3   150  TYR150     -0.2866
    146  N         24.6220   -4.6320   77.8160 N.3   177  PHE177     -0.1227
    147  CA        23.6470   -3.5450   77.6750 C.3   177  PHE177      0.1736
    148  C         23.5210   -2.7110   78.9930 C.2   177  PHE177      0.2595
    149  O         23.6600   -1.4920   78.9640 O.2   177  PHE177     -0.2718
    150  CB        22.2850   -4.1350   77.2750 C.3   177  PHE177      0.0547
    151  CG        21.1550   -3.1380   77.2290 C.ar  177  PHE177     -0.0202
    152  CD1       21.0690   -2.2070   76.2000 C.ar  177  PHE177     -0.0042
    153  CD2       20.1600   -3.1440   78.2030 C.ar  177  PHE177     -0.0042
    154  CE1       20.0060   -1.3020   76.1400 C.ar  177  PHE177     -0.0003
    155  CE2       19.1040   -2.2270   78.1500 C.ar  177  PHE177     -0.0003
    156  CZ        19.0400   -1.3080   77.1240 C.ar  177  PHE177     -0.0000
    157  N         23.2460   -3.3710   80.1180 N.am  178  TRP178     -0.1976
    158  CA        23.0860   -2.7180   81.4190 C.3   178  TRP178      0.1640
    159  C         24.3740   -2.0460   81.9030 C.2   178  TRP178      0.2290
    160  O         24.3280   -0.8940   82.3280 O.2   178  TRP178     -0.2864
    161  CB        22.6060   -3.7340   82.4950 C.3   178  TRP178      0.0576
    162  CG        22.3290   -3.0780   83.8160 C.ar  178  TRP178      0.0006
    163  CD1       23.1120   -3.1180   84.9330 C.ar  178  TRP178      0.0946
    164  CD2       21.2130   -2.2370   84.1330 C.ar  178  TRP178      0.0152
    165  NE1       22.5440   -2.3560   85.9370 N.ar  178  TRP178     -0.2442
    166  CE2       21.3850   -1.7930   85.4660 C.ar  178  TRP178      0.0810
    167  CE3       20.0880   -1.7880   83.4030 C.ar  178  TRP178      0.0012
    168  CZ2       20.4590   -0.9480   86.1020 C.ar  178  TRP178      0.0191
    169  CZ3       19.1760   -0.9490   84.0320 C.ar  178  TRP178      0.0001
    170  CH2       19.3650   -0.5390   85.3630 C.ar  178  TRP178      0.0015
@<TRIPOS>BOND
     1     1     2    1
     2     6     5    1
     3     6     7    1
     4     8     7    1
     5     8     9    1
     6     5     2    1
     7     2     3    1
     8   133   132   ar
     9   133   131   ar
    10     3     4    2
    11   132   130   ar
    12   131   129   ar
    13    10    11    1
    14   130   129   ar
    15    14    11    1
    16    14    15    1
    17   145   144    1
    18   143   144   ar
    19   143   141   ar
    20   129   128    1
    21    11    12    1
    22   144   142   ar
    23   141   139   ar
    24    15    16   ar
    25    15    17   ar
    26    16    18   ar
    27   127   126    2
    28   137   136    2
    29    17    19   ar
    30   136   135    1
    31   128   125    1
    32    18    20   ar
    33    75    74    1
    34   126   125    1
    35    12    13    2
    36   142   140   ar
    37   139   140   ar
    38   139   138    1
    39    19    20   ar
    40   125   124    1
    41    67    66    2
    42    74    76    1
    43    74    73    1
    44   138   135    1
    45   135   134    1
    46    69    70    1
    47    73    70    1
    48   124   120   am
    49    66    65    1
    50    70    71    1
    51   121   120    2
    52   112   111    2
    53    65    68    1
    54    65    64    1
    55   120   119    1
    56   117   115   am
    57    27    25    1
    58   111   110    1
    59    71    72    2
    60    21    22    1
    61   114   115    1
    62   114   113    1
    63   115   116    2
    64   118   119    1
    65    28    26    1
    66    26    25    1
    67   113   110    1
    68    84    82    1
    69   119   122    1
    70    25    22    1
    71   110   109    1
    72    63    62   ar
    73    63    61   ar
    74    22    23    1
    75    62    60   ar
    76   122   123    1
    77    61    59   ar
    78    53    52    2
    79    82    81    1
    80    60    57   ar
    81    23    24    2
    82    59    57   ar
    83    59    58   ar
    84    81    83    1
    85    81    78    1
    86    45    44    2
    87    57    55   ar
    88    52    51    1
    89    58    56   ar
    90   154   152   ar
    91   154   156   ar
    92   152   151   ar
    93    77    78    1
    94    51    50    1
    95    51    54    1
    96    55    56   ar
    97    55    54    1
    98    78    79    1
    99    44    50   am
   100    44    43    1
   101   156   155   ar
   102   151   150    1
   103   151   153   ar
   104   150   147    1
   105    49    47    1
   106    79    80    2
   107   147   146    1
   108   147   148    1
   109    43    46    1
   110    43    42    1
   111   100    98    1
   112    46    47    1
   113   155   153   ar
   114    47    48    1
   115   149   148    2
   116   148   157   am
   117    98    97    1
   118    40    39    2
   119   157   158    1
   120    97    99    1
   121    97    94    1
   122    91    90    1
   123    85    86    1
   124    39    38    1
   125    90    89    1
   126    90    92    1
   127    89    86    1
   128    93    94    1
   129    93    87   am
   130   158   159    1
   131   158   161    1
   132    94    95    1
   133    38    41    1
   134    38    37    1
   135    86    87    1
   136   159   160    2
   137    87    88    2
   138   161   162    1
   139    95    96    2
   140   167   169   ar
   141   167   164   ar
   142   107   106    1
   143   162   164   ar
   144   162   163   ar
   145   169   170   ar
   146   164   166   ar
   147   108   106    1
   148   106   105    1
   149   105   102    1
   150    35    34    1
   151   163   165   ar
   152    32    31    2
   153   170   168   ar
   154   166   165   ar
   155   166   168   ar
   156    34    36    1
   157    34    33    1
   158   102   103    1
   159   102   101    1
   160   103   104    2
   161    31    30    1
   162    30    33    1
   163    30    29    1
