@<TRIPOS>MOLECULE
tmp/3ppjB00.pdb
 178 169 0 0 0
SMALL
GASTEIGER

@<TRIPOS>ATOM
      1  N         60.1390   32.8690    5.0250 N.3    16  ILE16      -0.1231
      2  CA        60.9400   33.4980    3.9850 C.3    16  ILE16       0.1692
      3  C         60.1430   33.8460    2.7260 C.2    16  ILE16       0.2593
      4  O         60.6430   34.5370    1.8410 O.2    16  ILE16      -0.2718
      5  CB        62.1340   32.6020    3.6080 C.3    16  ILE16       0.0266
      6  CG1       61.6350   31.2930    2.9970 C.3    16  ILE16       0.0019
      7  CG2       62.9650   32.3100    4.8500 C.3    16  ILE16       0.0020
      8  CD1       62.7390   30.4460    2.4070 C.3    16  ILE16       0.0001
      9  N         58.9010   33.3760    2.6530 N.am   17  GLY17      -0.1942
     10  CA        58.0590   33.6820    1.5070 C.3    17  GLY17       0.2014
     11  C         56.9600   32.6570    1.2800 C.2    17  GLY17       0.2640
     12  O         56.7670   31.7460    2.0880 O.2    17  GLY17      -0.2714
     13  N         56.2270   32.7990    0.1840 N.am   18  SER18      -0.1935
     14  CA        55.2010   31.8230   -0.1430 C.3    18  SER18       0.2055
     15  C         55.6060   31.0010   -1.3590 C.2    18  SER18       0.2643
     16  O         56.3390   31.4740   -2.2230 O.2    18  SER18      -0.2714
     17  CB        53.8650   32.5260   -0.4110 C.3    18  SER18       0.2130
     18  OG        53.9870   33.4840   -1.4490 O.3    18  SER18      -0.2179
     19  N         55.1350   29.7620   -1.4090 N.am   19  GLY19      -0.1954
     20  CA        55.2100   28.9910   -2.6350 C.3    19  GLY19       0.1869
     21  C         53.7970   28.7080   -3.0940 C.2    19  GLY19       0.2309
     22  O         52.8390   29.2000   -2.4970 O.2    19  GLY19      -0.2863
     23  N         56.5970   29.1700    2.7140 N.3    24  VAL24      -0.1245
     24  CA        57.9090   28.5490    2.7860 C.3    24  VAL24       0.1561
     25  C         58.6840   29.0650    3.9980 C.2    24  VAL24       0.2260
     26  O         58.6500   30.2550    4.3090 O.2    24  VAL24      -0.2867
     27  CB        58.7150   28.8450    1.5010 C.3    24  VAL24       0.0252
     28  CG1       60.0930   28.2380    1.5940 C.3    24  VAL24       0.0019
     29  CG2       57.9880   28.2910    0.2920 C.3    24  VAL24       0.0019
     30  N         64.5080   23.6220    3.3910 N.3    34  ALA34      -0.1245
     31  CA        63.3680   24.4910    3.1220 C.3    34  ALA34       0.1562
     32  C         62.0840   23.7420    3.4250 C.2    34  ALA34       0.2260
     33  O         61.9230   22.5890    3.0190 O.2    34  ALA34      -0.2867
     34  CB        63.3760   24.9270    1.6760 C.3    34  ALA34       0.0290
     35  N         57.8290   23.8680    3.2540 N.3    36  LYS36      -0.1245
     36  CA        56.6260   24.5000    2.7330 C.3    36  LYS36       0.1561
     37  C         55.4100   23.9190    3.4550 C.2    36  LYS36       0.2260
     38  O         55.1020   22.7370    3.3130 O.2    36  LYS36      -0.2867
     39  CB        56.5230   24.2420    1.2250 C.3    36  LYS36       0.0271
     40  CG        55.5630   25.1720    0.4920 C.3    36  LYS36       0.0035
     41  CD        55.6730   25.0260   -1.0190 C.3    36  LYS36       0.0206
     42  CE        55.0520   23.7320   -1.4930 C.3    36  LYS36       0.1093
     43  NZ        54.9810   23.7010   -2.9700 N.3    36  LYS36      -0.1314
     44  N         51.7860   16.6720   -5.0390 N.3    54  GLU54      -0.1245
     45  CA        53.1300   17.2310   -5.0940 C.3    54  GLU54       0.1567
     46  C         54.1870   16.2420   -4.6050 C.2    54  GLU54       0.2260
     47  O         55.1760   15.9710   -5.2970 O.2    54  GLU54      -0.2867
     48  CB        53.2010   18.5180   -4.2650 C.3    54  GLU54       0.0388
     49  CG        54.5700   19.1900   -4.3070 C.3    54  GLU54       0.1160
     50  CD        54.5210   20.6560   -3.9320 C.2    54  GLU54       0.3649
     51  OE1       55.2820   21.4460   -4.5360 O.co2  54  GLU54      -0.2457
     52  OE2       53.7270   21.0190   -3.0360 O.co2  54  GLU54      -0.2457
     53  N         57.5270   14.8040   -6.5670 N.3    58  LEU58      -0.1245
     54  CA        58.8800   15.0040   -6.0720 C.3    58  LEU58       0.1561
     55  C         59.6160   13.6740   -5.9220 C.2    58  LEU58       0.2260
     56  O         60.7610   13.5300   -6.3530 O.2    58  LEU58      -0.2867
     57  CB        58.8260   15.7330   -4.7310 C.3    58  LEU58       0.0270
     58  CG        58.2770   17.1560   -4.8210 C.3    58  LEU58       0.0019
     59  CD1       57.9420   17.6570   -3.4340 C.3    58  LEU58       0.0001
     60  CD2       59.3030   18.0660   -5.4980 C.3    58  LEU58       0.0001
     61  N         65.1800   20.5220   -7.3980 N.3    67  LEU67      -0.1245
     62  CA        65.3180   20.7760   -5.9640 C.3    67  LEU67       0.1561
     63  C         65.0710   19.4810   -5.2100 C.2    67  LEU67       0.2260
     64  O         64.0480   18.8200   -5.4070 O.2    67  LEU67      -0.2867
     65  CB        64.3220   21.8380   -5.4960 C.3    67  LEU67       0.0270
     66  CG        64.5260   22.3480   -4.0640 C.3    67  LEU67       0.0019
     67  CD1       65.7890   23.1910   -4.0110 C.3    67  LEU67       0.0001
     68  CD2       63.3240   23.1700   -3.6130 C.3    67  LEU67       0.0001
     69  N         56.2880   20.0640    3.3120 N.3    80  ILE80      -0.1245
     70  CA        57.2100   19.4260    2.3860 C.3    80  ILE80       0.1561
     71  C         58.6410   19.8890    2.6340 C.2    80  ILE80       0.2260
     72  O         58.9610   21.0590    2.4500 O.2    80  ILE80      -0.2867
     73  CB        56.8180   19.7390    0.9360 C.3    80  ILE80       0.0252
     74  CG1       55.4750   19.0840    0.6270 C.3    80  ILE80       0.0019
     75  CG2       57.8820   19.2420   -0.0150 C.3    80  ILE80       0.0019
     76  CD1       55.1080   19.1110   -0.8300 C.3    80  ILE80       0.0001
     77  N         62.4820   20.0390    1.6860 N.3    82  THR82      -0.1203
     78  CA        63.5120   19.8670    0.6680 C.3    82  THR82       0.1994
     79  C         64.8450   20.3750    1.1820 C.2    82  THR82       0.2618
     80  O         64.9170   20.9690    2.2500 O.2    82  THR82      -0.2717
     81  CB        63.1800   20.6430   -0.6040 C.3    82  THR82       0.1784
     82  OG1       63.0350   22.0310   -0.2900 O.3    82  THR82      -0.2211
     83  CG2       61.9000   20.1230   -1.2190 C.3    82  THR82       0.0376
     84  N         65.9000   20.1450    0.4160 N.am   83  GLN83      -0.1965
     85  CA        67.1890   20.7110    0.7610 C.3    83  GLN83       0.1733
     86  C         67.0590   22.2250    0.8460 C.2    83  GLN83       0.2616
     87  O         66.0150   22.7830    0.5080 O.2    83  GLN83      -0.2715
     88  CB        68.2300   20.3400   -0.2920 C.3    83  GLN83       0.0408
     89  CG        68.0430   21.0220   -1.6260 C.3    83  GLN83       0.0908
     90  CD        69.1660   20.7090   -2.5910 C.2    83  GLN83       0.2608
     91  OE1       68.9350   20.1480   -3.6580 O.2    83  GLN83      -0.2717
     92  NE2       70.3910   21.0710   -2.2230 N.am   83  GLN83      -0.0878
     93  N         68.1180   22.8840    1.3070 N.am   84  TRP84      -0.1960
     94  CA        68.1430   24.3390    1.3760 C.3    84  TRP84       0.1771
     95  C         69.2590   24.8990    0.5120 C.2    84  TRP84       0.2619
     96  O         70.3420   24.3200    0.4210 O.2    84  TRP84      -0.2715
     97  CB        68.3360   24.8040    2.8180 C.3    84  TRP84       0.0590
     98  CG        68.5770   26.2750    2.9300 C.ar   84  TRP84       0.0006
     99  CD1       69.7840   26.9050    3.0430 C.ar   84  TRP84       0.0946
    100  CD2       67.5850   27.3040    2.9530 C.ar   84  TRP84       0.0152
    101  NE1       69.6030   28.2620    3.1380 N.ar   84  TRP84      -0.2442
    102  CE2       68.2610   28.5330    3.0860 C.ar   84  TRP84       0.0810
    103  CE3       66.1890   27.3070    2.8740 C.ar   84  TRP84       0.0012
    104  CZ2       67.5870   29.7520    3.1440 C.ar   84  TRP84       0.0191
    105  CZ3       65.5220   28.5200    2.9320 C.ar   84  TRP84       0.0001
    106  CH2       66.2200   29.7230    3.0650 C.ar   84  TRP84       0.0015
    107  N         68.9820   26.0340   -0.1210 N.am   85  CYS85      -0.1968
    108  CA        69.9320   26.6740   -1.0220 C.3    85  CYS85       0.1712
    109  C         70.3070   28.0570   -0.5260 C.2    85  CYS85       0.2296
    110  O         69.4630   28.9520   -0.4810 O.2    85  CYS85      -0.2864
    111  CB        69.3310   26.8100   -2.4140 C.3    85  CYS85       0.0983
    112  SG        68.7840   25.2590   -3.1160 S.3    85  CYS85      -0.0798
    113  N         71.6200   31.6330   -1.0690 N.3    87  GLY87      -0.1210
    114  CA        71.5680   32.4740   -2.2560 C.3    87  GLY87       0.1956
    115  C         70.3170   32.2000   -3.0650 C.2    87  GLY87       0.2613
    116  O         69.9490   31.0440   -3.2840 O.2    87  GLY87      -0.2717
    117  N         69.6800   33.2670   -3.5340 N.am   88  SER88      -0.1938
    118  CA        68.2480   33.2420   -3.8110 C.3    88  SER88       0.2055
    119  C         67.8650   32.6870   -5.1840 C.2    88  SER88       0.2643
    120  O         68.6570   32.0060   -5.8400 O.2    88  SER88      -0.2714
    121  CB        67.6710   34.6540   -3.6380 C.3    88  SER88       0.2130
    122  OG        66.3760   34.6040   -3.0590 O.3    88  SER88      -0.2179
    123  N         66.6320   32.9810   -5.5910 N.am   89  SER89      -0.1949
    124  CA        66.0740   32.5300   -6.8630 C.3    89  SER89       0.1924
    125  C         66.4780   33.4450   -8.0060 C.2    89  SER89       0.2314
    126  O         66.6970   34.6390   -7.8140 O.2    89  SER89      -0.2863
    127  CB        64.5500   32.5000   -6.7830 C.3    89  SER89       0.2116
    128  OG        64.0400   33.8020   -6.5550 O.3    89  SER89      -0.2180
    129  N         61.2510   32.5050  -10.5790 N.3   133  ASN133     -0.1225
    130  CA        60.9620   32.4250   -9.1470 C.3   133  ASN133      0.1785
    131  C         61.2270   31.0300   -8.6000 C.2   133  ASN133      0.2597
    132  O         61.6330   30.8700   -7.4570 O.2   133  ASN133     -0.2718
    133  CB        59.5040   32.7800   -8.8730 C.3   133  ASN133      0.1169
    134  CG        59.2590   34.2680   -8.8730 C.2   133  ASN133      0.2627
    135  OD1       59.7040   34.9780   -7.9680 O.2   133  ASN133     -0.2716
    136  ND2       58.5430   34.7560   -9.8880 N.am  133  ASN133     -0.0877
    137  N         60.9750   30.0210   -9.4220 N.am  134  ASN134     -0.1974
    138  CA        61.1330   28.6420   -9.0060 C.3   134  ASN134      0.1688
    139  C         62.4560   28.0790   -9.4820 C.2   134  ASN134      0.2292
    140  O         62.7220   26.8960   -9.3080 O.2   134  ASN134     -0.2864
    141  CB        59.9940   27.7930   -9.5550 C.3   134  ASN134      0.1181
    142  CG        58.6450   28.2140   -9.0210 C.2   134  ASN134      0.2629
    143  OD1       58.5560   28.8930   -7.9980 O.2   134  ASN134     -0.2716
    144  ND2       57.5850   27.8140   -9.7090 N.am  134  ASN134     -0.0877
    145  N         66.1450   28.1720   -8.5680 N.3   136  PHE136     -0.1241
    146  CA        66.9960   28.5820   -7.4590 C.3   136  PHE136      0.1605
    147  C         68.4710   28.3460   -7.7390 C.2   136  PHE136      0.2264
    148  O         68.8750   27.2740   -8.1850 O.2   136  PHE136     -0.2867
    149  CB        66.5990   27.8380   -6.1880 C.3   136  PHE136      0.0534
    150  CG        65.1720   28.0430   -5.7920 C.ar  136  PHE136     -0.0203
    151  CD1       64.1870   27.1730   -6.2250 C.ar  136  PHE136     -0.0042
    152  CD2       64.8120   29.1050   -4.9850 C.ar  136  PHE136     -0.0042
    153  CE1       62.8630   27.3630   -5.8590 C.ar  136  PHE136     -0.0003
    154  CE2       63.4910   29.3000   -4.6130 C.ar  136  PHE136     -0.0003
    155  CZ        62.5160   28.4310   -5.0490 C.ar  136  PHE136     -0.0000
    156  N         62.5450   24.3940   -8.6840 N.3   146  GLY146     -0.1210
    157  CA        61.7730   24.1960   -7.4720 C.3   146  GLY146      0.1956
    158  C         60.2640   24.3390   -7.5730 C.2   146  GLY146      0.2612
    159  O         59.7450   24.9280   -8.5200 O.2   146  GLY146     -0.2717
    160  N         59.5670   23.7850   -6.5840 N.am  147  ASP147     -0.1959
    161  CA        58.1370   24.0130   -6.3880 C.3   147  ASP147      0.1840
    162  C         57.2790   23.3250   -7.4380 C.2   147  ASP147      0.2622
    163  O         57.0000   23.8900   -8.4920 O.2   147  ASP147     -0.2715
    164  CB        57.8340   25.5100   -6.3870 C.3   147  ASP147      0.1450
    165  CG        56.4230   25.8160   -5.9430 C.2   147  ASP147      0.3671
    166  OD1       55.5460   24.9430   -6.1250 O.co2 147  ASP147     -0.2456
    167  OD2       56.1910   26.9200   -5.4100 O.co2 147  ASP147     -0.2456
    168  N         56.8460   22.1070   -7.1350 N.am  148  PHE148     -0.1974
    169  CA        56.0610   21.3310   -8.0810 C.3   148  PHE148      0.1639
    170  C         54.6070   21.2480   -7.6510 C.2   148  PHE148      0.2290
    171  O         53.9430   20.2330   -7.8650 O.2   148  PHE148     -0.2864
    172  CB        56.6450   19.9280   -8.2120 C.3   148  PHE148      0.0560
    173  CG        57.9950   19.9020   -8.8610 C.ar  148  PHE148     -0.0200
    174  CD1       59.0710   20.5550   -8.2860 C.ar  148  PHE148     -0.0042
    175  CD2       58.1870   19.2300  -10.0530 C.ar  148  PHE148     -0.0042
    176  CE1       60.3120   20.5370   -8.8880 C.ar  148  PHE148     -0.0003
    177  CE2       59.4280   19.2110  -10.6580 C.ar  148  PHE148     -0.0003
    178  CZ        60.4910   19.8640  -10.0740 C.ar  148  PHE148     -0.0000
@<TRIPOS>BOND
     1   177   178   ar
     2   177   175   ar
     3   129   130    1
     4   178   176   ar
     5   175   173   ar
     6   136   134   am
     7   144   142   am
     8   141   142    1
     9   141   138    1
    10   139   140    2
    11   139   138    1
    12   137   138    1
    13   137   131   am
    14   130   133    1
    15   130   131    1
    16   142   143    2
    17   176   174   ar
    18   133   134    1
    19   134   135    2
    20   173   174   ar
    21   173   172    1
    22   156   157    1
    23   131   132    2
    24   145   146    1
    25   159   158    2
    26   163   162    2
    27   172   169    1
    28   148   147    2
    29   169   170    1
    30   169   168    1
    31   125   126    2
    32   125   124    1
    33   171   170    2
    34   147   146    1
    35   158   157    1
    36   158   160   am
    37   146   149    1
    38   162   168   am
    39   162   161    1
    40    61    62    1
    41   124   127    1
    42   124   123    1
    43   127   128    1
    44   160   161    1
    45    53    54    1
    46   161   164    1
    47   164   165    1
    48    56    55    2
    49   151   153   ar
    50   151   150   ar
    51   149   150    1
    52   166   165   ar
    53    54    55    1
    54    54    57    1
    55    62    65    1
    56    62    63    1
    57   165   167   ar
    58   153   155   ar
    59   120   119    2
    60   150   152   ar
    61   123   119   am
    62    60    58    1
    63    65    66    1
    64    64    63    2
    65    47    46    2
    66   119   118    1
    67    45    44    1
    68    45    46    1
    69    45    48    1
    70   155   154   ar
    71   152   154   ar
    72    58    57    1
    73    58    59    1
    74    51    50   ar
    75    49    48    1
    76    49    50    1
    77    66    67    1
    78    66    68    1
    79    50    52   ar
    80   118   121    1
    81   118   117    1
    82    91    90    2
    83   121   122    1
    84   117   115   am
    85   116   115    2
    86   112   111    1
    87    21    20    1
    88    21    22    2
    89   115   114    1
    90    43    42    1
    91    20    19    1
    92    90    92   am
    93    90    89    1
    94   111   108    1
    95   114   113    1
    96    16    15    2
    97    89    88    1
    98    42    41    1
    99    18    17    1
   100    19    15   am
   101    15    14    1
   102    83    81    1
   103   108   109    1
   104   108   107    1
   105    41    40    1
   106    76    74    1
   107    81    82    1
   108    81    78    1
   109   109   110    2
   110    17    14    1
   111    88    85    1
   112    14    13    1
   113   107    95   am
   114    75    73    1
   115    13    11   am
   116    29    27    1
   117    84    85    1
   118    84    79   am
   119    96    95    2
   120    40    39    1
   121    87    86    2
   122    95    94    1
   123    74    73    1
   124    78    79    1
   125    78    77    1
   126    85    86    1
   127    86    93   am
   128    73    70    1
   129    79    80    2
   130    39    36    1
   131    11    10    1
   132    11    12    2
   133    93    94    1
   134    94    97    1
   135    27    28    1
   136    27    24    1
   137    10     9    1
   138    34    31    1
   139     4     3    2
   140    70    71    1
   141    70    69    1
   142     8     6    1
   143    72    71    2
   144     9     3   am
   145    23    24    1
   146     3     2    1
   147    36    35    1
   148    36    37    1
   149    24    25    1
   150    97    98    1
   151   103   105   ar
   152   103   100   ar
   153    98   100   ar
   154    98    99   ar
   155   105   106   ar
   156   100   102   ar
   157     6     5    1
   158    33    32    2
   159    99   101   ar
   160   106   104   ar
   161   102   101   ar
   162   102   104   ar
   163    31    30    1
   164    31    32    1
   165    38    37    2
   166     5     2    1
   167     5     7    1
   168     2     1    1
   169    25    26    2
