@<TRIPOS>MOLECULE
tmp/3ppkB00.pdb
 185 176 0 0 0
SMALL
GASTEIGER

@<TRIPOS>ATOM
      1  N         59.8450   33.1540    4.9010 N.3    16  ILE16      -0.1231
      2  CA        60.6150   33.8880    3.8900 C.3    16  ILE16       0.1692
      3  C         59.7960   34.3400    2.6670 C.2    16  ILE16       0.2593
      4  O         60.1540   35.3110    1.9970 O.2    16  ILE16      -0.2718
      5  CB        61.8840   33.1100    3.4400 C.3    16  ILE16       0.0266
      6  CG1       61.5050   31.8270    2.6950 C.3    16  ILE16       0.0019
      7  CG2       62.7970   32.8130    4.6400 C.3    16  ILE16       0.0020
      8  CD1       62.5050   31.4280    1.6400 C.3    16  ILE16       0.0001
      9  N         58.7060   33.6310    2.3860 N.am   17  GLY17      -0.1942
     10  CA        57.8410   33.9520    1.2550 C.3    17  GLY17       0.2014
     11  C         56.7250   32.9390    1.0860 C.2    17  GLY17       0.2640
     12  O         56.4700   32.1310    1.9800 O.2    17  GLY17      -0.2714
     13  N         56.0580   32.9860   -0.0630 N.am   18  SER18      -0.1935
     14  CA        54.9880   32.0390   -0.3680 C.3    18  SER18       0.2055
     15  C         55.2860   31.2170   -1.6200 C.2    18  SER18       0.2643
     16  O         56.0670   31.6240   -2.4770 O.2    18  SER18      -0.2714
     17  CB        53.6440   32.7610   -0.5030 C.3    18  SER18       0.2130
     18  OG        53.7250   33.8290   -1.4240 O.3    18  SER18      -0.2179
     19  N         54.6710   30.0450   -1.7000 N.am   19  GLY19      -0.1954
     20  CA        54.7580   29.1970   -2.8790 C.3    19  GLY19       0.1869
     21  C         53.3600   28.7750   -3.2730 C.2    19  GLY19       0.2309
     22  O         52.3900   29.1270   -2.6000 O.2    19  GLY19      -0.2863
     23  N         56.0710   29.4970    2.5560 N.3    24  VAL24      -0.1245
     24  CA        57.3880   28.8620    2.5970 C.3    24  VAL24       0.1561
     25  C         58.2050   29.3220    3.8050 C.2    24  VAL24       0.2260
     26  O         58.2920   30.5210    4.0920 O.2    24  VAL24      -0.2867
     27  CB        58.1760   29.1010    1.2750 C.3    24  VAL24       0.0252
     28  CG1       59.6300   28.6420    1.3970 C.3    24  VAL24       0.0019
     29  CG2       57.4940   28.3860    0.1120 C.3    24  VAL24       0.0019
     30  N         64.1330   23.7520    3.4020 N.3    34  ALA34      -0.1245
     31  CA        63.0250   24.6410    3.0840 C.3    34  ALA34       0.1562
     32  C         61.7200   23.8680    3.2100 C.2    34  ALA34       0.2260
     33  O         61.5980   22.7520    2.6950 O.2    34  ALA34      -0.2867
     34  CB        63.1800   25.2040    1.6880 C.3    34  ALA34       0.0290
     35  N         57.4560   24.1260    2.7880 N.3    36  LYS36      -0.1245
     36  CA        56.2340   24.7920    2.3680 C.3    36  LYS36       0.1561
     37  C         55.0610   24.2130    3.1400 C.2    36  LYS36       0.2260
     38  O         54.8570   22.9970    3.1640 O.2    36  LYS36      -0.2867
     39  CB        56.0090   24.6550    0.8610 C.3    36  LYS36       0.0271
     40  CG        54.8960   25.5560    0.3160 C.3    36  LYS36       0.0035
     41  CD        54.7780   25.4850   -1.2010 C.3    36  LYS36       0.0206
     42  CE        54.0960   24.2110   -1.6510 C.3    36  LYS36       0.1093
     43  NZ        54.0620   24.1230   -3.1300 N.3    36  LYS36      -0.1314
     44  N         51.8940   17.1070   -5.3260 N.3    54  GLU54      -0.1245
     45  CA        53.2790   17.5750   -5.3150 C.3    54  GLU54       0.1567
     46  C         54.2450   16.5210   -4.7690 C.2    54  GLU54       0.2260
     47  O         55.2940   16.2670   -5.3670 O.2    54  GLU54      -0.2867
     48  CB        53.4070   18.8860   -4.5320 C.3    54  GLU54       0.0388
     49  CG        54.7430   19.5880   -4.7460 C.3    54  GLU54       0.1160
     50  CD        54.8270   20.9660   -4.1070 C.2    54  GLU54       0.3649
     51  OE1       55.9430   21.5250   -4.0750 O.co2  54  GLU54      -0.2457
     52  OE2       53.7950   21.4910   -3.6390 O.co2  54  GLU54      -0.2457
     53  N         57.3030   14.9510   -6.8270 N.3    58  LEU58      -0.1245
     54  CA        58.6510   15.1420   -6.3030 C.3    58  LEU58       0.1561
     55  C         59.4010   13.8300   -6.0540 C.2    58  LEU58       0.2260
     56  O         60.6110   13.7480   -6.2830 O.2    58  LEU58      -0.2867
     57  CB        58.6160   15.9860   -5.0290 C.3    58  LEU58       0.0270
     58  CG        58.4410   17.5000   -5.1890 C.3    58  LEU58       0.0019
     59  CD1       57.9890   18.1220   -3.8810 C.3    58  LEU58       0.0001
     60  CD2       59.7200   18.1740   -5.6950 C.3    58  LEU58       0.0001
     61  N         65.1140   20.7360   -7.5010 N.3    67  LEU67      -0.1245
     62  CA        65.1260   20.9020   -6.0470 C.3    67  LEU67       0.1561
     63  C         64.9320   19.5580   -5.3510 C.2    67  LEU67       0.2260
     64  O         63.9900   18.8230   -5.6610 O.2    67  LEU67      -0.2867
     65  CB        64.0250   21.8750   -5.6220 C.3    67  LEU67       0.0270
     66  CG        64.2070   22.6380   -4.3120 C.3    67  LEU67       0.0019
     67  CD1       65.3620   23.6210   -4.4210 C.3    67  LEU67       0.0001
     68  CD2       62.9150   23.3660   -3.9370 C.3    67  LEU67       0.0001
     69  N         55.8640   20.1190    3.1370 N.3    80  ILE80      -0.1245
     70  CA        56.7670   19.5420    2.1390 C.3    80  ILE80       0.1561
     71  C         58.1930   20.0450    2.3530 C.2    80  ILE80       0.2260
     72  O         58.4500   21.2440    2.2870 O.2    80  ILE80      -0.2867
     73  CB        56.2940   19.8210    0.6900 C.3    80  ILE80       0.0252
     74  CG1       54.9790   19.0840    0.4150 C.3    80  ILE80       0.0019
     75  CG2       57.3520   19.3800   -0.3170 C.3    80  ILE80       0.0019
     76  CD1       54.2700   19.5150   -0.8450 C.3    80  ILE80       0.0001
     77  N         62.1500   20.2410    1.3920 N.3    82  THR82      -0.1203
     78  CA        63.1750   20.1520    0.3560 C.3    82  THR82       0.1994
     79  C         64.4920   20.6830    0.9060 C.2    82  THR82       0.2618
     80  O         64.5290   21.2460    1.9990 O.2    82  THR82      -0.2717
     81  CB        62.8160   20.9800   -0.9080 C.3    82  THR82       0.1784
     82  OG1       62.9340   22.3800   -0.6230 O.3    82  THR82      -0.2211
     83  CG2       61.4060   20.6770   -1.3990 C.3    82  THR82       0.0376
     84  N         65.5690   20.5130    0.1430 N.am   83  GLN83      -0.1965
     85  CA        66.8440   21.1420    0.4750 C.3    83  GLN83       0.1733
     86  C         66.6840   22.6610    0.5720 C.2    83  GLN83       0.2616
     87  O         65.7910   23.2370   -0.0520 O.2    83  GLN83      -0.2715
     88  CB        67.9140   20.7880   -0.5630 C.3    83  GLN83       0.0408
     89  CG        67.6680   21.3470   -1.9600 C.3    83  GLN83       0.0908
     90  CD        68.7470   20.9590   -2.9460 C.2    83  GLN83       0.2608
     91  OE1       68.4570   20.5300   -4.0630 O.2    83  GLN83      -0.2717
     92  NE2       70.0020   21.1090   -2.5400 N.am   83  GLN83      -0.0878
     93  N         67.5330   23.2990    1.3720 N.am   84  TRP84      -0.1960
     94  CA        67.5800   24.7520    1.4160 C.3    84  TRP84       0.1771
     95  C         68.6530   25.2530    0.4610 C.2    84  TRP84       0.2619
     96  O         69.7880   24.7740    0.4880 O.2    84  TRP84      -0.2715
     97  CB        67.8530   25.2570    2.8340 C.3    84  TRP84       0.0590
     98  CG        68.1230   26.7350    2.8810 C.ar   84  TRP84       0.0006
     99  CD1       69.3400   27.3420    2.9800 C.ar   84  TRP84       0.0946
    100  CD2       67.1550   27.7870    2.8040 C.ar   84  TRP84       0.0152
    101  NE1       69.1910   28.7060    2.9770 N.ar   84  TRP84      -0.2442
    102  CE2       67.8600   29.0070    2.8680 C.ar   84  TRP84       0.0810
    103  CE3       65.7590   27.8160    2.6890 C.ar   84  TRP84       0.0012
    104  CZ2       67.2200   30.2460    2.8230 C.ar   84  TRP84       0.0191
    105  CZ3       65.1220   29.0480    2.6450 C.ar   84  TRP84       0.0001
    106  CH2       65.8550   30.2480    2.7130 C.ar   84  TRP84       0.0015
    107  N         68.2880   26.2160   -0.3830 N.am   85  CYS85      -0.1968
    108  CA        69.2360   26.8160   -1.3160 C.3    85  CYS85       0.1712
    109  C         69.7340   28.1600   -0.8210 C.2    85  CYS85       0.2296
    110  O         68.9440   29.0690   -0.5590 O.2    85  CYS85      -0.2864
    111  CB        68.6180   26.9650   -2.7050 C.3    85  CYS85       0.0983
    112  SG        68.3140   25.3880   -3.5350 S.3    85  CYS85      -0.0798
    113  N         71.7950   31.6770   -1.4930 N.3    87  GLY87      -0.1210
    114  CA        71.6080   32.5760   -2.6290 C.3    87  GLY87       0.1956
    115  C         70.1150   32.6350   -2.8880 C.2    87  GLY87       0.2613
    116  O         69.3450   31.8840   -2.2790 O.2    87  GLY87      -0.2717
    117  N         69.6820   33.5180   -3.7790 N.am   88  SER88      -0.1938
    118  CA        68.2520   33.6190   -4.0370 C.3    88  SER88       0.2055
    119  C         67.8690   33.0320   -5.3980 C.2    88  SER88       0.2643
    120  O         68.7060   32.4330   -6.0760 O.2    88  SER88      -0.2714
    121  CB        67.7740   35.0630   -3.8710 C.3    88  SER88       0.2130
    122  OG        66.4200   35.0960   -3.4350 O.3    88  SER88      -0.2179
    123  N         66.5990   33.1880   -5.7710 N.am   89  SER89      -0.1949
    124  CA        66.0760   32.7120   -7.0520 C.3    89  SER89       0.1924
    125  C         66.5340   33.5960   -8.2100 C.2    89  SER89       0.2314
    126  O         67.0220   34.7090   -7.9970 O.2    89  SER89      -0.2863
    127  CB        64.5470   32.6660   -7.0170 C.3    89  SER89       0.2116
    128  OG        64.0060   33.9650   -6.8530 O.3    89  SER89      -0.2180
    129  N         64.7180   35.1520  -10.4040 N.3    91  TYR91      -0.1227
    130  CA        63.8960   36.3530  -10.4320 C.3    91  TYR91       0.1736
    131  C         64.4890   37.4280   -9.5350 C.2    91  TYR91       0.2595
    132  O         64.6620   38.5720   -9.9570 O.2    91  TYR91      -0.2718
    133  CB        62.4710   36.0290   -9.9860 C.3    91  TYR91       0.0548
    134  CG        61.5410   37.2230   -9.9510 C.ar   91  TYR91      -0.0200
    135  CD1       61.3380   37.9360   -8.7700 C.ar   91  TYR91      -0.0009
    136  CD2       60.8560   37.6300  -11.0940 C.ar   91  TYR91      -0.0009
    137  CE1       60.4810   39.0300   -8.7300 C.ar   91  TYR91       0.0417
    138  CE2       59.9980   38.7220  -11.0660 C.ar   91  TYR91       0.0417
    139  CZ        59.8160   39.4170   -9.8810 C.ar   91  TYR91       0.1957
    140  OH        58.9670   40.4980   -9.8430 O.3    91  TYR91      -0.2866
    141  N         64.7990   37.0460   -8.2990 N.am   92  HIS92      -0.1975
    142  CA        65.3800   37.9570   -7.3240 C.3    92  HIS92       0.1656
    143  C         66.6840   38.5560   -7.8400 C.2    92  HIS92       0.2291
    144  O         66.9070   39.7620   -7.7250 O.2    92  HIS92      -0.2864
    145  CB        65.6190   37.2280   -6.0060 C.3    92  HIS92       0.0771
    146  CG        65.9220   38.1400   -4.8610 C.ar   92  HIS92       0.0820
    147  ND1       67.2040   38.3610   -4.4050 N.ar   92  HIS92      -0.2267
    148  CD2       65.1090   38.8920   -4.0820 C.ar   92  HIS92       0.1154
    149  CE1       67.1680   39.2080   -3.3920 C.ar   92  HIS92       0.1986
    150  NE2       65.9090   39.5460   -3.1770 N.ar   92  HIS92      -0.2212
    151  N         61.0790   32.8560  -10.7510 N.3   133  ASN133     -0.1225
    152  CA        60.7650   32.6920   -9.3320 C.3   133  ASN133      0.1785
    153  C         61.0680   31.2890   -8.8210 C.2   133  ASN133      0.2597
    154  O         61.4830   31.1150   -7.6760 O.2   133  ASN133     -0.2718
    155  CB        59.2850   32.9830   -9.0860 C.3   133  ASN133      0.1169
    156  CG        58.9270   34.4290   -9.3260 C.2   133  ASN133      0.2627
    157  OD1       59.3870   35.3190   -8.6090 O.2   133  ASN133     -0.2716
    158  ND2       58.0880   34.6740  -10.3300 N.am  133  ASN133     -0.0877
    159  N         60.8420   30.2970   -9.6770 N.am  134  ASN134     -0.1974
    160  CA        61.0310   28.8950   -9.3220 C.3   134  ASN134      0.1688
    161  C         62.3720   28.3230   -9.7870 C.2   134  ASN134      0.2292
    162  O         62.5880   27.1100   -9.7470 O.2   134  ASN134     -0.2864
    163  CB        59.8650   28.0600   -9.8590 C.3   134  ASN134      0.1181
    164  CG        58.5330   28.4570   -9.2490 C.2   134  ASN134      0.2629
    165  OD1       58.4850   29.0890   -8.1980 O.2   134  ASN134     -0.2716
    166  ND2       57.4430   28.0840   -9.9090 N.am  134  ASN134     -0.0877
    167  N         66.1920   28.4660   -8.8260 N.3   136  PHE136     -0.1241
    168  CA        67.0400   28.8500   -7.7020 C.3   136  PHE136      0.1605
    169  C         68.5100   28.6170   -8.0130 C.2   136  PHE136      0.2264
    170  O         68.8810   27.5950   -8.5910 O.2   136  PHE136     -0.2867
    171  CB        66.6380   28.0850   -6.4360 C.3   136  PHE136      0.0534
    172  CG        65.1930   28.2590   -6.0540 C.ar  136  PHE136     -0.0203
    173  CD1       64.2280   27.3510   -6.4870 C.ar  136  PHE136     -0.0042
    174  CD2       64.7930   29.3320   -5.2630 C.ar  136  PHE136     -0.0042
    175  CE1       62.8870   27.5090   -6.1400 C.ar  136  PHE136     -0.0003
    176  CE2       63.4570   29.4990   -4.9150 C.ar  136  PHE136     -0.0003
    177  CZ        62.5020   28.5830   -5.3540 C.ar  136  PHE136     -0.0000
    178  N         59.2280   24.1070   -6.8080 N.3   147  ASP147     -0.1239
    179  CA        57.7590   24.2130   -6.7570 C.3   147  ASP147      0.1674
    180  C         57.0360   23.3700   -7.8030 C.2   147  ASP147      0.2266
    181  O         56.8870   23.7700   -8.9550 O.2   147  ASP147     -0.2867
    182  CB        57.2750   25.6690   -6.8020 C.3   147  ASP147      0.1410
    183  CG        55.8560   25.8290   -6.2750 C.2   147  ASP147      0.3668
    184  OD1       55.0890   24.8440   -6.2890 O.co2 147  ASP147     -0.2456
    185  OD2       55.5040   26.9460   -5.8420 O.co2 147  ASP147     -0.2456
@<TRIPOS>BOND
     1   136   138   ar
     2   136   134   ar
     3   138   139   ar
     4   151   152    1
     5   130   129    1
     6   130   133    1
     7   130   131    1
     8   158   156   am
     9   133   134    1
    10   132   131    2
    11   134   135   ar
    12   166   164   am
    13   139   140    1
    14   139   137   ar
    15   163   160    1
    16   163   164    1
    17   161   162    2
    18   161   160    1
    19   159   160    1
    20   159   153   am
    21   131   141   am
    22   152   155    1
    23   152   153    1
    24   156   155    1
    25   156   157    2
    26   164   165    2
    27   181   180    2
    28   167   168    1
    29   153   154    2
    30   135   137   ar
    31   170   169    2
    32   141   142    1
    33   125   126    2
    34   125   124    1
    35   169   168    1
    36   143   144    2
    37   143   142    1
    38   180   179    1
    39   168   171    1
    40    61    62    1
    41   142   145    1
    42   124   127    1
    43   124   123    1
    44   127   128    1
    45    53    54    1
    46   178   179    1
    47   182   179    1
    48   182   183    1
    49   173   175   ar
    50   173   172   ar
    51   171   172    1
    52    54    55    1
    53    54    57    1
    54   184   183   ar
    55    56    55    2
    56   183   185   ar
    57   175   177   ar
    58   120   119    2
    59   172   174   ar
    60    62    65    1
    61    62    63    1
    62   145   146    1
    63   123   119   am
    64    60    58    1
    65    64    63    2
    66    65    66    1
    67   119   118    1
    68    47    46    2
    69   177   176   ar
    70    44    45    1
    71    45    46    1
    72    45    48    1
    73   174   176   ar
    74    58    57    1
    75    58    59    1
    76   146   147   ar
    77   146   148   ar
    78    49    48    1
    79    49    50    1
    80    67    66    1
    81   147   149   ar
    82    66    68    1
    83    50    51   ar
    84    50    52   ar
    85   148   150   ar
    86    91    90    2
    87   118   121    1
    88   118   117    1
    89   121   122    1
    90   117   115   am
    91   112   111    1
    92   149   150   ar
    93    21    20    1
    94    21    22    2
    95    43    42    1
    96    90    92   am
    97    90    89    1
    98   115   114    1
    99   115   116    2
   100    20    19    1
   101   111   108    1
   102   114   113    1
   103    16    15    2
   104    89    88    1
   105    19    15   am
   106    42    41    1
   107    15    14    1
   108    18    17    1
   109    83    81    1
   110   108   109    1
   111   108   107    1
   112    41    40    1
   113    81    82    1
   114    81    78    1
   115    76    74    1
   116   109   110    2
   117    88    85    1
   118    17    14    1
   119   107    95   am
   120    14    13    1
   121    75    73    1
   122    13    11   am
   123    87    86    2
   124    29    27    1
   125    84    85    1
   126    84    79   am
   127    40    39    1
   128    78    79    1
   129    78    77    1
   130    74    73    1
   131    95    96    2
   132    95    94    1
   133    85    86    1
   134    86    93   am
   135    73    70    1
   136    39    36    1
   137    79    80    2
   138    11    10    1
   139    11    12    2
   140    10     9    1
   141    27    28    1
   142    27    24    1
   143    93    94    1
   144    94    97    1
   145     8     6    1
   146    34    31    1
   147     4     3    2
   148    70    71    1
   149    70    69    1
   150    72    71    2
   151    36    35    1
   152    36    37    1
   153     9     3   am
   154    23    24    1
   155    24    25    1
   156   105   103   ar
   157   105   106   ar
   158     3     2    1
   159   103   100   ar
   160     6     5    1
   161    33    32    2
   162   106   104   ar
   163   100   102   ar
   164   100    98   ar
   165   104   102   ar
   166    97    98    1
   167   102   101   ar
   168    98    99   ar
   169   101    99   ar
   170    31    32    1
   171    31    30    1
   172    37    38    2
   173     5     2    1
   174     5     7    1
   175    25    26    2
   176     2     1    1
