@<TRIPOS>MOLECULE
tmp/3pplA00.pdb
 117 109 0 0 0
SMALL
GASTEIGER

@<TRIPOS>ATOM
      1  N         12.1720   13.5360   62.3540 N.3    39  GLY39      -0.1225
      2  CA        12.2750   12.0770   62.3960 C.3    39  GLY39       0.1811
      3  C         13.2030   11.5680   61.3190 C.2    39  GLY39       0.2280
      4  O         12.7820   10.9410   60.3290 O.2    39  GLY39      -0.2866
      5  N         14.5970    4.5770   45.7120 N.3   101  ALA101     -0.1231
      6  CA        14.9830    5.0180   47.0530 C.3   101  ALA101      0.1694
      7  C         13.8200    5.4910   47.9060 C.2   101  ALA101      0.2593
      8  O         14.0370    6.1190   48.9540 O.2   101  ALA101     -0.2718
      9  CB        16.0620    6.1060   46.9900 C.3   101  ALA101      0.0304
     10  N         12.6010    5.1100   47.5790 N.am  102  SER102     -0.1938
     11  CA        11.4570    5.4980   48.3560 C.3   102  SER102      0.2055
     12  C         10.4080    4.3970   48.4030 C.2   102  SER102      0.2644
     13  O          9.7850    4.0970   47.3970 O.2   102  SER102     -0.2714
     14  CB        10.8450    6.7640   47.8010 C.3   102  SER102      0.2130
     15  OG         9.5680    7.0160   48.3560 O.3   102  SER102     -0.2179
     16  N         10.1650    3.8320   49.5710 N.am  103  SER103     -0.1935
     17  CA         9.0540    2.9140   49.7290 C.3   103  SER103      0.2055
     18  C          7.7100    3.6490   49.6940 C.2   103  SER103      0.2642
     19  O          6.7130    3.0810   49.1940 O.2   103  SER103     -0.2714
     20  CB         9.1750    2.0290   50.9550 C.3   103  SER103      0.2130
     21  OG         9.1550    2.7760   52.1480 O.3   103  SER103     -0.2179
     22  N          7.6560    4.8850   50.1940 N.am  104  LEU104     -0.1977
     23  CA         6.4210    5.6600   50.0490 C.3   104  LEU104      0.1596
     24  C          5.9800    5.7680   48.6070 C.2   104  LEU104      0.2287
     25  O          4.7870    5.7150   48.3110 O.2   104  LEU104     -0.2864
     26  CB         6.5510    7.0520   50.6750 C.3   104  LEU104      0.0297
     27  CG         6.4490    7.1280   52.1930 C.3   104  LEU104      0.0022
     28  CD1        6.8710    8.5230   52.6610 C.3   104  LEU104      0.0001
     29  CD2        5.0060    6.8070   52.6690 C.3   104  LEU104      0.0001
     30  N          1.1110    7.4140   61.0780 N.3   140  TYR140     -0.1241
     31  CA         2.0900    8.1420   60.2720 C.3   140  TYR140      0.1605
     32  C          1.4390    9.1620   59.3550 C.2   140  TYR140      0.2264
     33  O          0.6730    8.7930   58.4710 O.2   140  TYR140     -0.2867
     34  CB         2.9310    7.1550   59.4810 C.3   140  TYR140      0.0534
     35  CG         4.0720    7.7110   58.6460 C.ar  140  TYR140     -0.0201
     36  CD1        4.8090    8.8220   59.0560 C.ar  140  TYR140     -0.0009
     37  CD2        4.4330    7.0940   57.4670 C.ar  140  TYR140     -0.0009
     38  CE1        5.8980    9.2900   58.3200 C.ar  140  TYR140      0.0417
     39  CE2        5.5160    7.5320   56.7390 C.ar  140  TYR140      0.0417
     40  CZ         6.2480    8.6050   57.1700 C.ar  140  TYR140      0.1957
     41  OH         7.3490    9.0040   56.4050 O.3   140  TYR140     -0.2866
     42  N          1.7990    0.0850   60.5180 N.3   180  VAL180     -0.1245
     43  CA         3.2460   -0.0090   60.6930 C.3   180  VAL180      0.1561
     44  C          3.3980   -1.0820   61.7820 C.2   180  VAL180      0.2260
     45  O          3.0930   -0.8030   62.9600 O.2   180  VAL180     -0.2867
     46  CB         3.9090    1.3390   61.0460 C.3   180  VAL180      0.0252
     47  CG1        5.4130    1.1170   61.2260 C.3   180  VAL180      0.0019
     48  CG2        3.6030    2.3300   59.9610 C.3   180  VAL180      0.0019
     49  N          5.1800    3.7200   63.9900 N.3   185  ASN185     -0.1240
     50  CA         5.3490    5.1630   64.0020 C.3   185  ASN185      0.1653
     51  C          4.0190    5.8050   64.4000 C.2   185  ASN185      0.2266
     52  O          3.0840    5.7780   63.6000 O.2   185  ASN185     -0.2867
     53  CB         5.7650    5.6070   62.5900 C.3   185  ASN185      0.1155
     54  CG         5.9680    7.0780   62.4930 C.2   185  ASN185      0.2627
     55  OD1        5.6020    7.8160   63.4100 O.2   185  ASN185     -0.2716
     56  ND2        6.5840    7.5430   61.4080 N.am  185  ASN185     -0.0877
     57  N          3.4380   -1.6930   56.2900 N.3   213  ASP213     -0.1239
     58  CA         4.6260   -0.8730   56.0630 C.3   213  ASP213      0.1674
     59  C          5.6020   -1.1160   57.1790 C.2   213  ASP213      0.2266
     60  O          5.5940   -0.4140   58.1900 O.2   213  ASP213     -0.2867
     61  CB         4.2540    0.5970   55.9560 C.3   213  ASP213      0.1410
     62  CG         5.4480    1.4870   55.7300 C.2   213  ASP213      0.3668
     63  OD1        6.5550    0.9400   55.5540 O.co2 213  ASP213     -0.2456
     64  OD2        5.2480    2.7200   55.7230 O.co2 213  ASP213     -0.2456
     65  N          8.5270   -0.4290   58.0780 N.3   215  ALA215     -0.1231
     66  CA         9.5920    0.5440   57.9510 C.3   215  ALA215      0.1694
     67  C         10.6530    0.3550   59.0060 C.2   215  ALA215      0.2592
     68  O         11.8110    0.7540   58.8050 O.2   215  ALA215     -0.2718
     69  CB         9.0160    1.9380   58.0660 C.3   215  ALA215      0.0304
     70  N         10.3280   -0.2750   60.1270 N.am  216  TYR216     -0.1976
     71  CA        11.2520   -0.4060   61.2540 C.3   216  TYR216      0.1639
     72  C         11.5660   -1.8870   61.5490 C.2   216  TYR216      0.2290
     73  O         11.8850   -2.2530   62.6710 O.2   216  TYR216     -0.2864
     74  CB        10.7010    0.3330   62.4780 C.3   216  TYR216      0.0560
     75  CG        10.5350    1.7850   62.2060 C.ar  216  TYR216     -0.0198
     76  CD1       11.6230    2.6280   62.0900 C.ar  216  TYR216     -0.0009
     77  CD2        9.2990    2.3160   61.9470 C.ar  216  TYR216     -0.0009
     78  CE1       11.4730    3.9380   61.7300 C.ar  216  TYR216      0.0417
     79  CE2        9.1550    3.6380   61.5630 C.ar  216  TYR216      0.0417
     80  CZ        10.2570    4.4510   61.4570 C.ar  216  TYR216      0.1957
     81  OH        10.1520    5.7590   61.0190 O.3   216  TYR216     -0.2866
     82  N         12.4060   -0.5740   53.6980 N.3   249  SER249     -0.1217
     83  CA        13.4240    0.1660   52.9730 C.3   249  SER249      0.1889
     84  C         14.6590    0.3220   53.7970 C.2   249  SER249      0.2288
     85  O         14.7220   -0.0550   54.9880 O.2   249  SER249     -0.2866
     86  CB        13.0130    1.5930   52.5880 C.3   249  SER249      0.2089
     87  OG        13.1860    2.4760   53.7070 O.3   249  SER249     -0.2183
     88  N         16.0810    3.4100   54.0930 N.3   251  SER251     -0.1202
     89  CA        16.2650    4.8390   54.3330 C.3   251  SER251      0.2020
     90  C         16.8350    5.1620   55.7160 C.2   251  SER251      0.2618
     91  O         17.5690    6.1500   55.8470 O.2   251  SER251     -0.2717
     92  CB        14.9320    5.5610   54.2140 C.3   251  SER251      0.2103
     93  OG        14.5010    5.4870   52.8860 O.3   251  SER251     -0.2182
     94  N         16.5070    4.3720   56.7190 N.am  252  LYS252     -0.1979
     95  CA        16.9980    4.5680   58.0860 C.3   252  LYS252      0.1596
     96  C         17.9930    3.4490   58.4190 C.2   252  LYS252      0.2287
     97  O         18.1950    3.0890   59.5780 O.2   252  LYS252     -0.2864
     98  CB        15.8450    4.6950   59.0760 C.3   252  LYS252      0.0298
     99  CG        15.0800    6.0030   58.8400 C.3   252  LYS252      0.0038
    100  CD        13.8910    6.1830   59.7530 C.3   252  LYS252      0.0206
    101  CE        13.2810    7.5700   59.5690 C.3   252  LYS252      0.1093
    102  NZ        12.1310    7.7990   60.4640 N.3   252  LYS252     -0.1314
    103  N         16.7200    8.8070   51.7220 N.3   257  GLY257     -0.1225
    104  CA        16.4120    9.3450   50.4200 C.3   257  GLY257      0.1811
    105  C         17.2730    8.8290   49.2880 C.2   257  GLY257      0.2280
    106  O         17.0620    9.2210   48.1190 O.2   257  GLY257     -0.2866
    107  N         10.5690    7.1020   67.4720 N.3   343  PHE343     -0.1241
    108  CA         9.7350    8.0820   68.1830 C.3   343  PHE343      0.1605
    109  C          9.3620    7.6340   69.5720 C.2   343  PHE343      0.2264
    110  O          9.3640    6.4390   69.8880 O.2   343  PHE343     -0.2867
    111  CB         8.4350    8.3330   67.3780 C.3   343  PHE343      0.0534
    112  CG         8.7280    8.8050   65.9810 C.ar  343  PHE343     -0.0203
    113  CD1        9.1040   10.1140   65.7290 C.ar  343  PHE343     -0.0042
    114  CD2        8.7360    7.9070   64.9060 C.ar  343  PHE343     -0.0042
    115  CE1        9.4620   10.5090   64.4360 C.ar  343  PHE343     -0.0003
    116  CE2        9.0790    8.3280   63.6150 C.ar  343  PHE343     -0.0003
    117  CZ         9.4460    9.6290   63.4020 C.ar  343  PHE343     -0.0000
@<TRIPOS>BOND
     1     5     6    1
     2     9     6    1
     3     6     7    1
     4    13    12    2
     5    10     7   am
     6    10    11    1
     7    14    11    1
     8    14    15    1
     9     7     8    2
    10   106   105    2
    11    25    24    2
    12    11    12    1
    13    12    16   am
    14    24    23    1
    15    19    18    2
    16   105   104    1
    17    16    17    1
    18    18    17    1
    19    18    22   am
    20    17    20    1
    21    23    22    1
    22    23    26    1
    23   104   103    1
    24    26    27    1
    25    20    21    1
    26    27    28    1
    27    27    29    1
    28    86    83    1
    29    86    87    1
    30    93    92    1
    31    83    82    1
    32    83    84    1
    33    84    85    2
    34    88    89    1
    35    92    89    1
    36    89    90    1
    37    63    62   ar
    38    90    91    2
    39    90    94   am
    40    64    62   ar
    41    62    61    1
    42    61    58    1
    43    58    57    1
    44    58    59    1
    45    41    40    1
    46    94    95    1
    47    39    40   ar
    48    39    37   ar
    49    40    38   ar
    50    59    60    2
    51    37    35   ar
    52    66    69    1
    53    66    65    1
    54    66    67    1
    55    95    96    1
    56    95    98    1
    57    38    36   ar
    58    96    97    2
    59    33    32    2
    60    35    36   ar
    61    35    34    1
    62    68    67    2
    63    99    98    1
    64    99   100    1
    65    67    70   am
    66    32    31    1
    67    34    31    1
    68   101   100    1
    69   101   102    1
    70    48    46    1
    71    70    71    1
    72    31    30    1
    73     4     3    2
    74    42    43    1
    75    43    46    1
    76    43    44    1
    77    81    80    1
    78    46    47    1
    79    71    72    1
    80    71    74    1
    81     3     2    1
    82    56    54   am
    83    80    79   ar
    84    80    78   ar
    85    72    73    2
    86    79    77   ar
    87    78    76   ar
    88    44    45    2
    89    77    75   ar
    90    76    75   ar
    91    75    74    1
    92     1     2    1
    93    54    53    1
    94    54    55    2
    95    53    50    1
    96   117   116   ar
    97   117   115   ar
    98    52    51    2
    99   116   114   ar
   100    49    50    1
   101    50    51    1
   102   115   113   ar
   103   114   112   ar
   104   113   112   ar
   105   112   111    1
   106   111   108    1
   107   107   108    1
   108   108   109    1
   109   109   110    2
