@<TRIPOS>MOLECULE
tmp/3ppmB01.pdb
 75 72 0 0 0
SMALL
GASTEIGER

@<TRIPOS>ATOM
      1  N         40.8980  -37.3240   44.4770 N.3   114  SER114     -0.1217
      2  CA        42.3080  -37.3240   44.8460 C.3   114  SER114      0.1889
      3  C         42.7060  -36.0530   45.5810 C.2   114  SER114      0.2288
      4  O         42.4070  -34.9380   45.1430 O.2   114  SER114     -0.2866
      5  CB        43.1840  -37.5310   43.6080 C.3   114  SER114      0.2089
      6  OG        42.9410  -38.8130   43.0620 O.3   114  SER114     -0.2183
      7  N         43.2270  -42.7060   48.3090 N.3   120  SER120     -0.1217
      8  CA        41.8560  -42.8820   47.8530 C.3   120  SER120      0.1889
      9  C         41.6580  -44.3970   47.8000 C.2   120  SER120      0.2288
     10  O         41.8370  -45.0100   46.7570 O.2   120  SER120     -0.2866
     11  CB        41.6430  -42.2240   46.4820 C.3   120  SER120      0.2089
     12  OG        41.5430  -40.8070   46.6200 O.3   120  SER120     -0.2183
     13  N         48.8300  -45.8670   49.5040 N.3   130  MET130     -0.1231
     14  CA        49.2400  -45.3650   48.1940 C.3   130  MET130      0.1687
     15  C         48.7190  -43.9460   48.0270 C.2   130  MET130      0.2434
     16  O         47.7630  -43.7170   47.2840 O.2   130  MET130     -0.2733
     17  CB        48.6630  -46.2530   47.0930 C.3   130  MET130      0.0400
     18  CG        49.0700  -47.7050   47.2160 C.3   130  MET130      0.0596
     19  SD        50.7460  -47.9540   46.6090 S.3   130  MET130     -0.1393
     20  CE        50.4590  -47.8070   44.8460 C.3   130  MET130      0.0692
     21  N         49.3310  -42.9870   48.7300 N.am  131  PRO131     -0.2718
     22  CA        48.7280  -41.6480   48.7490 C.3   131  PRO131      0.1535
     23  C         48.8080  -40.9150   47.4270 C.2   131  PRO131      0.2599
     24  O         49.7890  -41.0380   46.6780 O.2   131  PRO131     -0.2715
     25  CB        49.5340  -40.9040   49.8210 C.3   131  PRO131      0.0310
     26  CG        50.7810  -41.7000   50.0110 C.3   131  PRO131      0.0237
     27  CD        50.4270  -43.1240   49.7030 C.3   131  PRO131      0.0939
     28  N         47.7560  -40.1500   47.1530 N.am  132  SER132     -0.1936
     29  CA        47.7370  -39.2620   46.0020 C.3   132  SER132      0.2055
     30  C         48.9080  -38.3030   46.0410 C.2   132  SER132      0.2642
     31  O         49.3530  -37.8730   47.1130 O.2   132  SER132     -0.2714
     32  CB        46.4320  -38.4590   45.9820 C.3   132  SER132      0.2130
     33  OG        46.5660  -37.3290   45.1350 O.3   132  SER132     -0.2179
     34  N         49.4120  -37.9490   44.8660 N.am  133  GLU133     -0.1976
     35  CA        50.5310  -37.0220   44.8090 C.3   133  GLU133      0.1602
     36  C         50.1220  -35.6510   44.2950 C.2   133  GLU133      0.2287
     37  O         50.9540  -34.7600   44.1700 O.2   133  GLU133     -0.2864
     38  CB        51.7050  -37.6220   44.0240 C.3   133  GLU133      0.0415
     39  CG        52.3460  -38.7400   44.8500 C.3   133  GLU133      0.1163
     40  CD        53.4190  -39.5110   44.1250 C.2   133  GLU133      0.3649
     41  OE1       53.6340  -39.2630   42.9200 O.co2 133  GLU133     -0.2457
     42  OE2       54.0530  -40.3700   44.7830 O.co2 133  GLU133     -0.2457
     43  N         41.7980  -36.8310   37.8250 N.3   233  GLY233     -0.1210
     44  CA        42.2270  -37.1020   39.1860 C.3   233  GLY233      0.1956
     45  C         41.2100  -37.8380   40.0450 C.2   233  GLY233      0.2612
     46  O         41.3960  -37.9570   41.2520 O.2   233  GLY233     -0.2717
     47  N         40.1250  -38.3230   39.4510 N.am  234  LEU234     -0.1965
     48  CA        39.1900  -39.1570   40.2140 C.3   234  LEU234      0.1728
     49  C         39.6490  -40.6060   40.2040 C.2   234  LEU234      0.2616
     50  O         39.8900  -41.1950   39.1440 O.2   234  LEU234     -0.2715
     51  CB        37.7700  -39.0730   39.6550 C.3   234  LEU234      0.0311
     52  CG        36.8740  -37.9360   40.1440 C.3   234  LEU234      0.0022
     53  CD1       37.6060  -36.6050   40.1160 C.3   234  LEU234      0.0001
     54  CD2       35.5940  -37.8810   39.2990 C.3   234  LEU234      0.0001
     55  N         39.7760  -41.1790   41.3920 N.am  235  LYS235     -0.1977
     56  CA        40.2170  -42.5580   41.5260 C.3   235  LYS235      0.1596
     57  C         39.0400  -43.4970   41.3020 C.2   235  LYS235      0.2287
     58  O         37.9700  -43.3080   41.8870 O.2   235  LYS235     -0.2864
     59  CB        40.7800  -42.7700   42.9390 C.3   235  LYS235      0.0298
     60  CG        41.1470  -44.2050   43.2650 C.3   235  LYS235      0.0038
     61  CD        42.4650  -44.5930   42.6360 C.3   235  LYS235      0.0206
     62  CE        42.8350  -46.0250   42.9980 C.3   235  LYS235      0.1093
     63  NZ        44.0380  -46.4800   42.2380 N.3   235  LYS235     -0.1314
     64  N         38.7620  -48.2370   34.2570 N.3   239  TYR239     -0.1241
     65  CA        39.0540  -47.0640   33.4450 C.3   239  TYR239      0.1605
     66  C         38.8220  -47.3760   31.9750 C.2   239  TYR239      0.2264
     67  O         39.0040  -48.5180   31.5410 O.2   239  TYR239     -0.2867
     68  CB        40.5020  -46.6270   33.6420 C.3   239  TYR239      0.0534
     69  CG        40.8200  -46.1630   35.0500 C.ar  239  TYR239     -0.0201
     70  CD1       40.5380  -44.8660   35.4590 C.ar  239  TYR239     -0.0009
     71  CD2       41.3980  -47.0300   35.9720 C.ar  239  TYR239     -0.0009
     72  CE1       40.8370  -44.4360   36.7660 C.ar  239  TYR239      0.0417
     73  CE2       41.6970  -46.6120   37.2730 C.ar  239  TYR239      0.0417
     74  CZ        41.4160  -45.3130   37.6560 C.ar  239  TYR239      0.1957
     75  OH        41.7070  -44.8900   38.9430 O.3   239  TYR239     -0.2866
@<TRIPOS>BOND
     1    67    66    2
     2    66    65    1
     3    65    68    1
     4    65    64    1
     5    68    69    1
     6    69    70   ar
     7    69    71   ar
     8    70    72   ar
     9    71    73   ar
    10    72    74   ar
    11    73    74   ar
    12    74    75    1
    13    43    44    1
    14    50    49    2
    15    44    45    1
    16    54    52    1
    17    47    45   am
    18    47    48    1
    19    51    52    1
    20    51    48    1
    21    45    46    2
    22    53    52    1
    23    49    48    1
    24    49    55   am
    25    57    56    1
    26    57    58    2
    27    55    56    1
    28    56    59    1
    29    63    62    1
    30    61    62    1
    31    61    60    1
    32    41    40   ar
    33    59    60    1
    34     6     5    1
    35     5     2    1
    36    38    35    1
    37    38    39    1
    38    40    42   ar
    39    40    39    1
    40    37    36    2
    41    36    35    1
    42     1     2    1
    43    35    34    1
    44     2     3    1
    45    20    19    1
    46    34    30   am
    47    33    32    1
    48     4     3    2
    49    32    29    1
    50    29    30    1
    51    29    28    1
    52    30    31    2
    53    11    12    1
    54    11     8    1
    55    19    18    1
    56    24    23    2
    57    10     9    2
    58    17    18    1
    59    17    14    1
    60    28    23   am
    61    16    15    2
    62    23    22    1
    63     9     8    1
    64     8     7    1
    65    15    14    1
    66    15    21   am
    67    14    13    1
    68    21    22    1
    69    21    27    1
    70    22    25    1
    71    27    26    1
    72    25    26    1
