@<TRIPOS>MOLECULE
tmp/3ppoA00.pdb
 122 114 0 0 0
SMALL
GASTEIGER

@<TRIPOS>ATOM
      1  N        -10.7910   34.4080    4.9220 N.3     8  GLN8       -0.1245
      2  CA        -9.4420   34.8680    4.7510 C.3     8  GLN8        0.1566
      3  C         -8.9860   34.6270    3.3110 C.2     8  GLN8        0.2260
      4  O         -9.5100   33.7790    2.6040 O.2     8  GLN8       -0.2867
      5  CB        -8.5390   34.1630    5.7590 C.3     8  GLN8        0.0367
      6  CG        -7.1420   34.6680    5.7710 C.3     8  GLN8        0.0905
      7  CD        -6.4830   34.5300    7.1060 C.2     8  GLN8        0.2608
      8  OE1       -7.1370   34.4090    8.1390 O.2     8  GLN8       -0.2717
      9  NE2       -5.1690   34.5520    7.1010 N.am    8  GLN8       -0.0878
     10  N         -7.2600   32.8450    1.6760 N.3    10  MET10      -0.1245
     11  CA        -6.6390   31.5550    1.4330 C.3    10  MET10       0.1570
     12  C         -7.6390   30.5930    0.8080 C.2    10  MET10       0.2261
     13  O         -8.7860   30.5010    1.2180 O.2    10  MET10      -0.2867
     14  CB        -6.1390   30.9480    2.7150 C.3    10  MET10       0.0387
     15  CG        -5.0560   31.6720    3.3630 C.3    10  MET10       0.0595
     16  SD        -4.7450   30.9910    4.9630 S.3    10  MET10      -0.1393
     17  CE        -6.1860   31.4420    5.8990 C.3    10  MET10       0.0692
     18  N         -7.1420   39.8720    5.1620 N.3    39  GLY39      -0.1210
     19  CA        -5.7210   39.5900    4.9870 C.3    39  GLY39       0.1956
     20  C         -5.0720   38.6470    5.9860 C.2    39  GLY39       0.2613
     21  O         -4.0550   38.0230    5.6720 O.2    39  GLY39      -0.2717
     22  N         -5.6350   38.5440    7.1880 N.am   40  SER40      -0.1938
     23  CA        -4.9780   37.7950    8.2700 C.3    40  SER40       0.2055
     24  C         -5.9580   37.5190    9.3850 C.2    40  SER40       0.2643
     25  O         -7.1040   37.9870    9.3390 O.2    40  SER40      -0.2714
     26  CB        -3.7710   38.5740    8.8460 C.3    40  SER40       0.2130
     27  OG        -4.1810   39.7870    9.4730 O.3    40  SER40      -0.2179
     28  N         -5.4900   36.7730   10.3940 N.am   41  ASN41      -0.1971
     29  CA        -6.2500   36.5020   11.6200 C.3    41  ASN41       0.1688
     30  C         -6.6150   37.7940   12.3380 C.2    41  ASN41       0.2292
     31  O         -7.7310   37.9330   12.8380 O.2    41  ASN41      -0.2864
     32  CB        -5.4730   35.5780   12.5570 C.3    41  ASN41       0.1181
     33  CG        -4.2300   36.2500   13.1660 C.2    41  ASN41       0.2629
     34  OD1       -3.3350   36.7310   12.4380 O.2    41  ASN41      -0.2716
     35  ND2       -4.1630   36.2770   14.5150 N.am   41  ASN41      -0.0877
     36  N         -6.6220   29.4960   13.4170 N.3    60  TYR60      -0.1241
     37  CA        -5.5970   28.5000   13.7800 C.3    60  TYR60       0.1605
     38  C         -5.0090   28.7530   15.1650 C.2    60  TYR60       0.2264
     39  O         -4.6790   29.8960   15.5070 O.2    60  TYR60      -0.2867
     40  CB        -4.4950   28.4670   12.7210 C.3    60  TYR60       0.0534
     41  CG        -5.0360   28.4300   11.3100 C.ar   60  TYR60      -0.0201
     42  CD1       -5.2290   27.2150   10.6370 C.ar   60  TYR60      -0.0009
     43  CD2       -5.3600   29.6110   10.6560 C.ar   60  TYR60      -0.0009
     44  CE1       -5.7350   27.1840    9.3320 C.ar   60  TYR60       0.0417
     45  CE2       -5.8600   29.6010    9.3580 C.ar   60  TYR60       0.0417
     46  CZ        -6.0490   28.3840    8.6960 C.ar   60  TYR60       0.1957
     47  OH        -6.5420   28.3950    7.4120 O.3    60  TYR60      -0.2866
     48  N         -1.6670   30.7040   15.7580 N.3    63  THR63      -0.1218
     49  CA        -1.6610   32.0490   15.2100 C.3    63  THR63       0.1862
     50  C         -2.2920   33.0460   16.1650 C.2    63  THR63       0.2287
     51  O         -1.7090   34.0990   16.4380 O.2    63  THR63      -0.2866
     52  CB        -2.4000   32.0960   13.8470 C.3    63  THR63       0.1770
     53  OG1       -1.8030   31.1460   12.9730 O.3    63  THR63      -0.2211
     54  CG2       -2.3400   33.4900   13.1830 C.3    63  THR63       0.0375
     55  N         -2.9490   23.1960   10.0870 N.3   104  ASN104     -0.1240
     56  CA        -2.3050   23.8380    8.9590 C.3   104  ASN104      0.1653
     57  C         -1.0970   24.6740    9.4030 C.2   104  ASN104      0.2266
     58  O         -1.2200   25.8880    9.6610 O.2   104  ASN104     -0.2867
     59  CB        -3.3000   24.6760    8.1710 C.3   104  ASN104      0.1155
     60  CG        -2.7020   25.2470    6.8860 C.2   104  ASN104      0.2627
     61  OD1       -1.6090   24.8570    6.4480 O.2   104  ASN104     -0.2716
     62  ND2       -3.4290   26.1700    6.2660 N.am  104  ASN104     -0.0877
     63  N          3.0440   26.1330    9.3770 N.3   106  TYR106     -0.1241
     64  CA         4.1570   26.5810    8.5560 C.3   106  TYR106      0.1605
     65  C          5.1180   25.4070    8.4310 C.2   106  TYR106      0.2264
     66  O          5.4430   24.7470    9.4390 O.2   106  TYR106     -0.2867
     67  CB         4.9170   27.7380    9.2030 C.3   106  TYR106      0.0534
     68  CG         4.1250   28.9880    9.4500 C.ar  106  TYR106     -0.0201
     69  CD1        3.7320   29.8090    8.3900 C.ar  106  TYR106     -0.0009
     70  CD2        3.8030   29.3840   10.7570 C.ar  106  TYR106     -0.0009
     71  CE1        3.0230   30.9840    8.6240 C.ar  106  TYR106      0.0417
     72  CE2        3.0940   30.5500   10.9950 C.ar  106  TYR106      0.0417
     73  CZ         2.7110   31.3450    9.9240 C.ar  106  TYR106      0.1957
     74  OH         1.9900   32.4960   10.1470 O.3   106  TYR106     -0.2866
     75  N          5.3840   34.2830    3.1960 N.3   138  ASP138     -0.1239
     76  CA         4.1650   35.0770    2.9940 C.3   138  ASP138      0.1674
     77  C          4.3250   36.5460    3.4270 C.2   138  ASP138      0.2266
     78  O          5.3030   36.9210    4.1000 O.2   138  ASP138     -0.2867
     79  CB         2.9170   34.3890    3.5950 C.3   138  ASP138      0.1410
     80  CG         2.9120   34.3470    5.1320 C.2   138  ASP138      0.3668
     81  OD1        3.3520   35.3310    5.7860 O.co2 138  ASP138     -0.2456
     82  OD2        2.4240   33.3250    5.6940 O.co2 138  ASP138     -0.2456
     83  N          3.2300   38.3840    5.7150 N.3   140  ALA140     -0.1245
     84  CA         3.1490   38.7680    7.1420 C.3   140  ALA140      0.1562
     85  C          4.1530   38.0950    8.0950 C.2   140  ALA140      0.2260
     86  O          4.5330   38.6930    9.1120 O.2   140  ALA140     -0.2867
     87  CB         1.7460   38.5760    7.6660 C.3   140  ALA140      0.0290
     88  N          5.8600   38.9460   12.2900 N.3   144  ARG144     -0.1245
     89  CA         5.1550   38.2810   13.3720 C.3   144  ARG144      0.1563
     90  C          5.9760   38.0630   14.6530 C.2   144  ARG144      0.2260
     91  O          7.1370   37.6190   14.6070 O.2   144  ARG144     -0.2867
     92  CB         4.5790   36.9660   12.8720 C.3   144  ARG144      0.0307
     93  CG         3.3880   37.1450   11.9470 C.3   144  ARG144      0.0489
     94  CD         2.6330   35.8270   11.7870 C.3   144  ARG144      0.2205
     95  NE         2.3070   35.2810   13.1020 N.pl3 144  ARG144     -0.0865
     96  CZ         1.1810   35.5370   13.7670 C.cat 144  ARG144      0.5346
     97  NH1        0.2470   36.3140   13.2240 N.pl3 144  ARG144      0.1354
     98  NH2        0.9790   35.0080   14.9730 N.pl3 144  ARG144      0.1354
     99  N          2.3870   26.3250    3.4850 N.3   186  TYR186     -0.1241
    100  CA         1.3720   25.8870    4.4440 C.3   186  TYR186      0.1605
    101  C          1.1690   24.3970    4.2000 C.2   186  TYR186      0.2264
    102  O          1.0100   23.9540    3.0610 O.2   186  TYR186     -0.2867
    103  CB         0.0430   26.6520    4.2810 C.3   186  TYR186      0.0534
    104  CG         0.0780   28.1370    4.6110 C.ar  186  TYR186     -0.0201
    105  CD1        1.2620   28.7780    4.9830 C.ar  186  TYR186     -0.0009
    106  CD2       -1.0740   28.9110    4.5050 C.ar  186  TYR186     -0.0009
    107  CE1        1.2980   30.1460    5.2670 C.ar  186  TYR186      0.0417
    108  CE2       -1.0620   30.2810    4.7850 C.ar  186  TYR186      0.0417
    109  CZ         0.1310   30.8980    5.1630 C.ar  186  TYR186      0.1957
    110  OH         0.1540   32.2580    5.4510 O.3   186  TYR186     -0.2866
    111  N         -1.0310   24.4880   14.9680 N.3   210  TYR210     -0.1241
    112  CA        -1.9130   25.2960   14.1910 C.3   210  TYR210      0.1605
    113  C         -3.1630   24.5700   13.8110 C.2   210  TYR210      0.2264
    114  O         -3.4520   24.4940   12.6830 O.2   210  TYR210     -0.2867
    115  CB        -1.1560   25.7210   12.9790 C.3   210  TYR210      0.0534
    116  CG        -0.1020   26.7700   13.2650 C.ar  210  TYR210     -0.0201
    117  CD1       -0.4410   28.0310   13.5670 C.ar  210  TYR210     -0.0009
    118  CD2        1.2340   26.4790   13.2460 C.ar  210  TYR210     -0.0009
    119  CE1        0.4570   28.8930   13.8180 C.ar  210  TYR210      0.0417
    120  CE2        2.1220   27.4020   13.5090 C.ar  210  TYR210      0.0417
    121  CZ         1.7290   28.5960   13.7910 C.ar  210  TYR210      0.1957
    122  OH         2.6600   29.5040   14.0510 O.3   210  TYR210     -0.2866
@<TRIPOS>BOND
     1    12    13    2
     2    12    11    1
     3    11    10    1
     4    11    14    1
     5     4     3    2
     6    14    15    1
     7    76    75    1
     8    76    77    1
     9    76    79    1
    10   102   101    2
    11     3     2    1
    12    15    16    1
    13    77    78    2
    14    99   100    1
    15    79    80    1
    16   101   100    1
    17   103   100    1
    18   103   104    1
    19   106   104   ar
    20   106   108   ar
    21   104   105   ar
    22     2     1    1
    23     2     5    1
    24   108   109   ar
    25    16    17    1
    26   105   107   ar
    27    19    18    1
    28    19    20    1
    29    80    82   ar
    30    80    81   ar
    31   109   107   ar
    32   109   110    1
    33    21    20    2
    34    83    84    1
    35     5     6    1
    36     6     7    1
    37    20    22   am
    38    62    60   am
    39    61    60    2
    40    60    59    1
    41     9     7   am
    42     7     8    2
    43    84    87    1
    44    84    85    1
    45    22    23    1
    46    47    46    1
    47    85    86    2
    48    59    56    1
    49    23    26    1
    50    23    24    1
    51    69    71   ar
    52    69    68   ar
    53    65    64    1
    54    65    66    2
    55    64    67    1
    56    64    63    1
    57    71    73   ar
    58    46    44   ar
    59    46    45   ar
    60    26    27    1
    61    56    57    1
    62    56    55    1
    63    67    68    1
    64    44    42   ar
    65    25    24    2
    66    45    43   ar
    67    24    28   am
    68    57    58    2
    69    68    70   ar
    70    73    74    1
    71    73    72   ar
    72    28    29    1
    73    42    41   ar
    74    43    41   ar
    75    70    72   ar
    76    41    40    1
    77    29    30    1
    78    29    32    1
    79    94    93    1
    80    94    95    1
    81    93    92    1
    82    88    89    1
    83    30    31    2
    84    34    33    2
    85    32    33    1
    86   114   113    2
    87    40    37    1
    88    92    89    1
    89    53    52    1
    90   115   116    1
    91   115   112    1
    92    95    96    2
    93    33    35   am
    94    54    52    1
    95    97    96    1
    96   118   116   ar
    97   118   120   ar
    98   116   117   ar
    99    89    90    1
   100    36    37    1
   101   120   121   ar
   102   117   119   ar
   103    96    98    1
   104    37    38    1
   105   121   119   ar
   106   121   122    1
   107   113   112    1
   108    52    49    1
   109   112   111    1
   110    91    90    2
   111    38    39    2
   112    49    48    1
   113    49    50    1
   114    50    51    2
