@<TRIPOS>MOLECULE
tmp/3pppB00.pdb
 112 107 0 0 0
SMALL
GASTEIGER

@<TRIPOS>ATOM
      1  N        -54.7110   -4.8180   33.7040 N.3     8  GLN8       -0.1245
      2  CA       -53.5110   -4.0990   33.4660 C.3     8  GLN8        0.1566
      3  C        -53.8290   -2.9270   32.5550 C.2     8  GLN8        0.2260
      4  O        -54.7840   -2.9140   31.8450 O.2     8  GLN8       -0.2867
      5  CB       -52.4310   -4.9820   32.8560 C.3     8  GLN8        0.0367
      6  CG       -51.0100   -4.5300   33.2020 C.3     8  GLN8        0.0905
      7  CD       -49.9180   -5.4290   32.7380 C.2     8  GLN8        0.2608
      8  OE1      -49.7940   -6.5160   33.1870 O.2     8  GLN8       -0.2717
      9  NE2      -49.1140   -4.9570   31.8690 N.am    8  GLN8       -0.0878
     10  N        -53.3890   -1.8210   29.7420 N.3    10  MET10      -0.1196
     11  CA       -53.2870   -2.0840   28.3420 C.3    10  MET10       0.1786
     12  C        -54.7140   -2.1650   27.8620 C.2    10  MET10       0.2306
     13  O        -55.5700   -2.5380   28.5750 O.2    10  MET10      -0.2863
     14  CB       -52.5890   -3.4060   28.0600 C.2    10  MET10       0.0070
     15  CG       -51.0670   -3.4710   28.2250 C.2    10  MET10       0.0282
     16  SD       -50.3190   -5.1010   27.9870 S.3    10  MET10      -0.1125
     17  CE       -51.2840   -6.1180   28.9820 C.3    10  MET10       0.0742
     18  N        -48.4360   -2.9930   35.9270 N.3    40  SER40      -0.1202
     19  CA       -47.5310   -4.0800   35.4780 C.3    40  SER40       0.2020
     20  C        -47.9640   -5.4110   36.1090 C.2    40  SER40       0.2618
     21  O        -48.8080   -5.4360   37.0130 O.2    40  SER40      -0.2717
     22  CB       -46.0790   -3.8090   35.9120 C.3    40  SER40       0.2103
     23  OG       -45.9860   -3.8820   37.3440 O.3    40  SER40      -0.2182
     24  N        -47.3600   -6.5150   35.6650 N.am   41  ASN41      -0.1974
     25  CA       -47.6420   -7.8160   36.2530 C.3    41  ASN41       0.1688
     26  C        -47.2400   -7.7840   37.7360 C.2    41  ASN41       0.2292
     27  O        -47.8630   -8.4800   38.5830 O.2    41  ASN41      -0.2864
     28  CB       -46.8980   -8.9320   35.5120 C.3    41  ASN41       0.1181
     29  CG       -45.4220   -8.9440   35.8230 C.2    41  ASN41       0.2629
     30  OD1      -44.6760   -7.9730   35.5160 O.2    41  ASN41      -0.2716
     31  ND2      -44.9780  -10.0280   36.4620 N.am   41  ASN41      -0.0877
     32  N        -48.9260  -13.0050   31.1150 N.3    60  TYR60      -0.1241
     33  CA       -48.0850  -13.4020   29.9650 C.3    60  TYR60       0.1605
     34  C        -46.9560  -14.2960   30.4280 C.2    60  TYR60       0.2264
     35  O        -46.1990  -13.9170   31.3000 O.2    60  TYR60      -0.2867
     36  CB       -47.5720  -12.1460   29.2540 C.3    60  TYR60       0.0534
     37  CG       -48.7540  -11.2820   28.8490 C.ar   60  TYR60      -0.0201
     38  CD1      -49.3480  -11.4160   27.5980 C.ar   60  TYR60      -0.0009
     39  CD2      -49.3170  -10.3950   29.7470 C.ar   60  TYR60      -0.0009
     40  CE1      -50.4470  -10.6760   27.2500 C.ar   60  TYR60       0.0417
     41  CE2      -50.4060   -9.6520   29.4080 C.ar   60  TYR60       0.0417
     42  CZ       -50.9670   -9.7910   28.1520 C.ar   60  TYR60       0.1957
     43  OH       -52.0640   -9.0570   27.8160 O.3    60  TYR60      -0.2866
     44  N        -43.3980  -13.1410   30.8380 N.3    63  THR63      -0.1218
     45  CA       -43.2900  -11.9830   31.7590 C.3    63  THR63       0.1862
     46  C        -43.1700  -12.3330   33.2660 C.2    63  THR63       0.2287
     47  O        -42.2600  -11.8160   33.9830 O.2    63  THR63      -0.2866
     48  CB       -44.4650  -10.9970   31.5470 C.3    63  THR63       0.1770
     49  OG1      -44.2970  -10.3850   30.2560 O.3    63  THR63      -0.2211
     50  CG2      -44.4680   -9.8980   32.6340 C.3    63  THR63       0.0375
     51  N        -48.8190  -12.2420   22.9970 N.3   104  ASN104     -0.1225
     52  CA       -48.5020  -10.7840   22.8050 C.3   104  ASN104      0.1785
     53  C        -47.0550  -10.5380   23.1810 C.2   104  ASN104      0.2598
     54  O        -46.7230  -10.2580   24.3500 O.2   104  ASN104     -0.2718
     55  CB       -49.4160   -9.9260   23.6440 C.3   104  ASN104      0.1169
     56  CG       -49.1650   -8.4310   23.4270 C.2   104  ASN104      0.2627
     57  OD1      -48.3990   -8.0360   22.5230 O.2   104  ASN104     -0.2716
     58  ND2      -49.8230   -7.5800   24.2480 N.am  104  ASN104     -0.0877
     59  N        -46.1760  -10.7050   22.2260 N.am  105  THR105     -0.1939
     60  CA       -44.7530  -10.5170   22.5030 C.3   105  THR105      0.2028
     61  C        -44.2620   -9.0710   22.2070 C.2   105  THR105      0.2642
     62  O        -44.9060   -8.3180   21.4630 O.2   105  THR105     -0.2714
     63  CB       -43.9100  -11.5340   21.7480 C.3   105  THR105      0.1808
     64  OG1      -42.5170  -11.3010   22.0370 O.3   105  THR105     -0.2208
     65  CG2      -44.1590  -11.4360   20.2370 C.3   105  THR105      0.0379
     66  N        -43.1610   -8.6900   22.8400 N.am  106  TYR106     -0.1973
     67  CA       -42.3950   -7.5600   22.4460 C.3   106  TYR106      0.1639
     68  C        -42.0230   -7.9000   21.0080 C.2   106  TYR106      0.2290
     69  O        -41.7540   -9.0970   20.6900 O.2   106  TYR106     -0.2864
     70  CB       -41.1450   -7.4560   23.3170 C.3   106  TYR106      0.0560
     71  CG       -41.4130   -7.2170   24.8020 C.ar  106  TYR106     -0.0198
     72  CD1      -41.8750   -5.9700   25.2530 C.ar  106  TYR106     -0.0009
     73  CD2      -41.2240   -8.2400   25.7530 C.ar  106  TYR106     -0.0009
     74  CE1      -42.1590   -5.7340   26.6050 C.ar  106  TYR106      0.0417
     75  CE2      -41.4920   -8.0230   27.1150 C.ar  106  TYR106      0.0417
     76  CZ       -41.9430   -6.7380   27.5330 C.ar  106  TYR106      0.1957
     77  OH       -42.2210   -6.4880   28.8640 O.3   106  TYR106     -0.2866
     78  N        -36.0410   -4.1300   33.0480 N.3   144  ARG144     -0.1245
     79  CA       -36.3910   -5.5540   33.2090 C.3   144  ARG144      0.1563
     80  C        -35.1840   -6.4940   33.1730 C.2   144  ARG144      0.2260
     81  O        -34.3230   -6.3780   32.3250 O.2   144  ARG144     -0.2867
     82  CB       -37.4170   -6.0150   32.1670 C.3   144  ARG144      0.0307
     83  CG       -38.8060   -5.4250   32.3010 C.3   144  ARG144      0.0489
     84  CD       -39.8740   -6.2030   31.5290 C.3   144  ARG144      0.2205
     85  NE       -40.3800   -7.2420   32.4140 N.pl3 144  ARG144     -0.0865
     86  CZ       -41.4740   -7.1160   33.1670 C.cat 144  ARG144      0.5346
     87  NH1      -42.2220   -6.0040   33.1110 N.pl3 144  ARG144      0.1354
     88  NH2      -41.8150   -8.1030   33.9760 N.pl3 144  ARG144      0.1354
     89  N        -45.9090   -4.1070   20.9140 N.3   186  TYR186     -0.1241
     90  CA       -46.5640   -5.3190   21.3890 C.3   186  TYR186      0.1605
     91  C        -47.2360   -5.9600   20.1580 C.2   186  TYR186      0.2264
     92  O        -47.9990   -5.2890   19.4210 O.2   186  TYR186     -0.2867
     93  CB       -47.6120   -4.9630   22.4450 C.3   186  TYR186      0.0534
     94  CG       -47.0450   -4.5010   23.7640 C.ar  186  TYR186     -0.0201
     95  CD1      -45.6690   -4.3350   23.9540 C.ar  186  TYR186     -0.0009
     96  CD2      -47.8930   -4.1950   24.8330 C.ar  186  TYR186     -0.0009
     97  CE1      -45.1540   -3.9300   25.1710 C.ar  186  TYR186      0.0417
     98  CE2      -47.3750   -3.7740   26.0710 C.ar  186  TYR186      0.0417
     99  CZ       -46.0190   -3.6510   26.2270 C.ar  186  TYR186      0.1957
    100  OH       -45.5180   -3.2260   27.4160 O.3   186  TYR186     -0.2866
    101  N        -44.8130  -15.2870   25.1030 N.3   210  TYR210     -0.1241
    102  CA       -45.6690  -14.3950   25.8550 C.3   210  TYR210      0.1605
    103  C        -47.1600  -14.7940   25.7410 C.2   210  TYR210      0.2264
    104  O        -48.0010  -13.9350   25.5650 O.2   210  TYR210     -0.2867
    105  CB       -45.4070  -12.9180   25.5190 C.3   210  TYR210      0.0534
    106  CG       -44.0790  -12.3910   25.9720 C.ar  210  TYR210     -0.0201
    107  CD1      -43.7860  -12.1730   27.2900 C.ar  210  TYR210     -0.0009
    108  CD2      -43.1060  -12.1920   25.1000 C.ar  210  TYR210     -0.0009
    109  CE1      -42.5750  -11.7260   27.6810 C.ar  210  TYR210      0.0417
    110  CE2      -41.8980  -11.7590   25.4730 C.ar  210  TYR210      0.0417
    111  CZ       -41.6390  -11.5150   26.7710 C.ar  210  TYR210      0.1957
    112  OH       -40.4260  -11.0870   27.1050 O.3   210  TYR210     -0.2866
@<TRIPOS>BOND
     1    92    91    2
     2    91    90    1
     3    65    63    1
     4    69    68    2
     5    89    90    1
     6    68    67    1
     7    90    93    1
     8    62    61    2
     9    63    64    1
    10    63    60    1
    11    61    60    1
    12    61    66   am
    13    59    60    1
    14    59    53   am
    15    93    94    1
    16    67    66    1
    17    67    70    1
    18    57    56    2
    19    52    51    1
    20    52    53    1
    21    52    55    1
    22    53    54    2
    23    70    71    1
    24    56    55    1
    25    56    58   am
    26    94    95   ar
    27    94    96   ar
    28    95    97   ar
    29    71    72   ar
    30    71    73   ar
    31    96    98   ar
    32   108   110   ar
    33   108   106   ar
    34   101   102    1
    35    97    99   ar
    36    72    74   ar
    37   110   111   ar
    38   105   102    1
    39   105   106    1
    40   104   103    2
    41   103   102    1
    42    73    75   ar
    43   106   107   ar
    44    98    99   ar
    45    99   100    1
    46    74    76   ar
    47   111   112    1
    48   111   109   ar
    49    75    76   ar
    50    40    38   ar
    51    40    42   ar
    52   107   109   ar
    53    76    77    1
    54    38    37   ar
    55    43    42    1
    56    12    11    1
    57    12    13    2
    58    16    15    1
    59    16    17    1
    60    14    15    2
    61    14    11    1
    62    42    41   ar
    63    11    10    1
    64    37    36    1
    65    37    39   ar
    66    36    33    1
    67    41    39   ar
    68    33    34    1
    69    33    32    1
    70    49    48    1
    71    34    35    2
    72    44    45    1
    73    84    83    1
    74    84    85    1
    75    48    45    1
    76    48    50    1
    77    45    46    1
    78     4     3    2
    79     9     7   am
    80    82    83    1
    81    82    79    1
    82    81    80    2
    83    85    86    2
    84     3     2    1
    85     7     8    2
    86     7     6    1
    87     5     6    1
    88     5     2    1
    89    78    79    1
    90    87    86    1
    91    86    88    1
    92    80    79    1
    93    46    47    2
    94     2     1    1
    95    19    22    1
    96    19    18    1
    97    19    20    1
    98    28    29    1
    99    28    25    1
   100    30    29    2
   101    24    20   am
   102    24    25    1
   103    29    31   am
   104    22    23    1
   105    20    21    2
   106    25    26    1
   107    26    27    2
