@<TRIPOS>MOLECULE
tmp/3pprB00.pdb
 112 107 0 0 0
SMALL
GASTEIGER

@<TRIPOS>ATOM
      1  N          7.3470   41.3680   34.4010 N.3     7  GLN7       -0.1245
      2  CA         8.5310   42.1930   34.2230 C.3     7  GLN7        0.1566
      3  C          8.1410   43.4200   33.3870 C.2     7  GLN7        0.2260
      4  O          7.1000   43.4240   32.7090 O.2     7  GLN7       -0.2867
      5  CB         9.6340   41.3940   33.5180 C.3     7  GLN7        0.0367
      6  CG        11.0590   41.8730   33.8030 C.3     7  GLN7        0.0905
      7  CD        12.1130   40.8510   33.4010 C.2     7  GLN7        0.2608
      8  OE1       12.1000   39.7110   33.8690 O.2     7  GLN7       -0.2717
      9  NE2       13.0370   41.2620   32.5430 N.am    7  GLN7       -0.0878
     10  N          8.4230   44.5380   30.5330 N.3     9  MET9       -0.1245
     11  CA         8.5430   44.2290   29.1210 C.3     9  MET9        0.1570
     12  C          7.1260   44.0220   28.6160 C.2     9  MET9        0.2261
     13  O          6.3020   43.3770   29.2830 O.2     9  MET9       -0.2867
     14  CB         9.3100   42.9110   28.9080 C.3     9  MET9        0.0387
     15  CG        10.8290   42.9630   29.1530 C.3     9  MET9        0.0595
     16  SD        11.6390   41.3310   29.1200 S.3     9  MET9       -0.1393
     17  CE        10.4140   40.2760   29.8960 C.3     9  MET9        0.0692
     18  N         13.5970   43.2010   36.6800 N.3    39  SER39      -0.1202
     19  CA        14.5240   42.1680   36.2260 C.3    39  SER39       0.2020
     20  C         14.0630   40.7970   36.7160 C.2    39  SER39       0.2618
     21  O         13.0910   40.7020   37.4700 O.2    39  SER39      -0.2717
     22  CB        15.9320   42.4610   36.7710 C.3    39  SER39       0.2103
     23  OG        15.9360   42.3190   38.1890 O.3    39  SER39      -0.2182
     24  N         14.7550   39.7350   36.2970 N.am   40  ASN40      -0.1974
     25  CA        14.4490   38.3970   36.8130 C.3    40  ASN40       0.1688
     26  C         14.7750   38.3220   38.3100 C.2    40  ASN40       0.2292
     27  O         14.1220   37.5960   39.0580 O.2    40  ASN40      -0.2864
     28  CB        15.1970   37.2920   36.0560 C.3    40  ASN40       0.1181
     29  CG        16.6900   37.2910   36.3520 C.2    40  ASN40       0.2629
     30  OD1       17.3910   38.2490   36.0210 O.2    40  ASN40      -0.2716
     31  ND2       17.1830   36.2230   36.9750 N.am   40  ASN40      -0.0877
     32  N         13.0480   33.2000   31.7080 N.3    59  TYR59      -0.1241
     33  CA        13.8470   32.7950   30.5540 C.3    59  TYR59       0.1605
     34  C         15.0130   31.9130   30.9980 C.2    59  TYR59       0.2264
     35  O         15.7840   32.3000   31.8830 O.2    59  TYR59      -0.2867
     36  CB        14.3280   34.0380   29.7850 C.3    59  TYR59       0.0534
     37  CG        13.1540   34.9560   29.4180 C.ar   59  TYR59      -0.0201
     38  CD1       12.5220   34.8470   28.1830 C.ar   59  TYR59      -0.0009
     39  CD2       12.6540   35.8780   30.3380 C.ar   59  TYR59      -0.0009
     40  CE1       11.4240   35.6470   27.8580 C.ar   59  TYR59       0.0417
     41  CE2       11.5530   36.6810   30.0350 C.ar   59  TYR59       0.0417
     42  CZ        10.9520   36.5650   28.7880 C.ar   59  TYR59       0.1957
     43  OH         9.8730   37.3620   28.4750 O.3    59  TYR59      -0.2866
     44  N         18.6440   33.2000   31.2870 N.3    62  THR62      -0.1218
     45  CA        18.7160   34.3250   32.2310 C.3    62  THR62       0.1862
     46  C         18.8320   33.8550   33.6830 C.2    62  THR62       0.2287
     47  O         19.7880   34.2140   34.3820 O.2    62  THR62      -0.2866
     48  CB        17.5070   35.2780   32.0790 C.3    62  THR62       0.1770
     49  OG1       17.4390   35.7210   30.7250 O.3    62  THR62      -0.2211
     50  CG2       17.6530   36.5180   33.0020 C.3    62  THR62       0.0375
     51  N         13.1620   33.9270   23.7840 N.3   103  ASN103     -0.1225
     52  CA        13.4280   35.3490   23.5860 C.3   103  ASN103      0.1785
     53  C         14.8850   35.6710   23.8670 C.2   103  ASN103      0.2598
     54  O         15.2540   36.0010   24.9890 O.2   103  ASN103     -0.2718
     55  CB        12.4870   36.2220   24.4050 C.3   103  ASN103      0.1169
     56  CG        12.6490   37.7080   24.0940 C.2   103  ASN103      0.2627
     57  OD1       13.3380   38.0870   23.1350 O.2   103  ASN103     -0.2716
     58  ND2       12.0050   38.5560   24.8990 N.am  103  ASN103     -0.0877
     59  N         15.7060   35.5670   22.8310 N.am  104  THR104     -0.1939
     60  CA        17.1510   35.6590   22.9870 C.3   104  THR104      0.2028
     61  C         17.6830   37.0590   22.7170 C.2   104  THR104      0.2642
     62  O         17.0590   37.8220   21.9690 O.2   104  THR104     -0.2714
     63  CB        17.9030   34.6120   22.1040 C.3   104  THR104      0.1808
     64  OG1       19.3030   34.7430   22.3230 O.3   104  THR104     -0.2208
     65  CG2       17.6260   34.7750   20.5830 C.3   104  THR104      0.0379
     66  N         18.8190   37.4010   23.3280 N.am  105  TYR105     -0.1973
     67  CA        19.6100   38.5400   22.8460 C.3   105  TYR105      0.1639
     68  C         19.9070   38.2570   21.3880 C.2   105  TYR105      0.2290
     69  O         20.2170   37.1200   21.0300 O.2   105  TYR105     -0.2864
     70  CB        20.9430   38.6750   23.5780 C.3   105  TYR105      0.0560
     71  CG        20.8320   38.9890   25.0520 C.ar  105  TYR105     -0.0198
     72  CD1       20.3120   40.2060   25.4930 C.ar  105  TYR105     -0.0009
     73  CD2       21.2580   38.0650   26.0060 C.ar  105  TYR105     -0.0009
     74  CE1       20.1930   40.4780   26.8610 C.ar  105  TYR105      0.0417
     75  CE2       21.1590   38.3300   27.3530 C.ar  105  TYR105      0.0417
     76  CZ        20.6260   39.5370   27.7810 C.ar  105  TYR105      0.1957
     77  OH        20.5330   39.7820   29.1310 O.3   105  TYR105     -0.2866
     78  N         26.3480   41.8290   33.1960 N.3   143  ARG143     -0.1245
     79  CA        25.9110   40.4470   33.4030 C.3   143  ARG143      0.1563
     80  C         27.1080   39.5190   33.4400 C.2   143  ARG143      0.2260
     81  O         28.0560   39.7000   32.6820 O.2   143  ARG143     -0.2867
     82  CB        24.9720   39.9850   32.2900 C.3   143  ARG143      0.0307
     83  CG        23.5890   40.5830   32.3150 C.3   143  ARG143      0.0489
     84  CD        22.5870   39.6550   31.6230 C.3   143  ARG143      0.2205
     85  NE        22.0560   38.6620   32.5530 N.pl3 143  ARG143     -0.0865
     86  CZ        21.0800   38.9140   33.4250 C.cat 143  ARG143      0.5346
     87  NH1       20.5170   40.1200   33.4700 N.pl3 143  ARG143      0.1354
     88  NH2       20.6610   37.9740   34.2510 N.pl3 143  ARG143      0.1354
     89  N         16.0530   42.0560   21.6020 N.3   185  TYR185     -0.1241
     90  CA        15.3660   40.8400   22.0270 C.3   185  TYR185      0.1605
     91  C         14.6180   40.2730   20.8250 C.2   185  TYR185      0.2264
     92  O         13.8490   40.9890   20.1710 O.2   185  TYR185     -0.2867
     93  CB        14.3700   41.1320   23.1600 C.3   185  TYR185      0.0534
     94  CG        14.9840   41.6050   24.4650 C.ar  185  TYR185     -0.0201
     95  CD1       16.3720   41.5810   24.6730 C.ar  185  TYR185     -0.0009
     96  CD2       14.1680   42.0640   25.5070 C.ar  185  TYR185     -0.0009
     97  CE1       16.9280   42.0180   25.8730 C.ar  185  TYR185      0.0417
     98  CE2       14.7130   42.4830   26.7220 C.ar  185  TYR185      0.0417
     99  CZ        16.0870   42.4600   26.8950 C.ar  185  TYR185      0.1957
    100  OH        16.6330   42.8890   28.0850 O.3   185  TYR185     -0.2866
    101  N         17.1710   31.0320   25.6350 N.3   209  TYR209     -0.1241
    102  CA        16.2800   31.8130   26.4470 C.3   209  TYR209      0.1605
    103  C         14.7740   31.3920   26.3150 C.2   209  TYR209      0.2264
    104  O         13.9080   32.1850   26.2350 O.2   209  TYR209     -0.2867
    105  CB        16.5050   33.3140   26.2300 C.3   209  TYR209      0.0534
    106  CG        17.8800   33.8240   26.5650 C.ar  209  TYR209     -0.0201
    107  CD1       18.2240   34.1290   27.8620 C.ar  209  TYR209     -0.0009
    108  CD2       18.8470   33.9860   25.5840 C.ar  209  TYR209     -0.0009
    109  CE1       19.4300   34.5870   28.1640 C.ar  209  TYR209      0.0417
    110  CE2       20.0600   34.4360   25.8860 C.ar  209  TYR209      0.0417
    111  CZ        20.3680   34.7270   27.1790 C.ar  209  TYR209      0.1957
    112  OH        21.5770   35.1640   27.5090 O.3   209  TYR209     -0.2866
@<TRIPOS>BOND
     1    92    91    2
     2    65    63    1
     3    91    90    1
     4    69    68    2
     5    68    67    1
     6    89    90    1
     7    62    61    2
     8    90    93    1
     9    63    64    1
    10    63    60    1
    11    61    60    1
    12    61    66   am
    13    59    60    1
    14    59    53   am
    15    67    66    1
    16    67    70    1
    17    57    56    2
    18    93    94    1
    19    70    71    1
    20    52    51    1
    21    52    53    1
    22    52    55    1
    23    53    54    2
    24    56    55    1
    25    56    58   am
    26    94    95   ar
    27    94    96   ar
    28    95    97   ar
    29    71    72   ar
    30    71    73   ar
    31    72    74   ar
    32    96    98   ar
    33   108   110   ar
    34   108   106   ar
    35   101   102    1
    36    97    99   ar
    37   110   111   ar
    38    73    75   ar
    39   105   102    1
    40   105   106    1
    41   104   103    2
    42   103   102    1
    43   106   107   ar
    44    98    99   ar
    45    74    76   ar
    46    99   100    1
    47   111   112    1
    48   111   109   ar
    49    75    76   ar
    50    76    77    1
    51    40    38   ar
    52    40    42   ar
    53   107   109   ar
    54    38    37   ar
    55    43    42    1
    56    12    11    1
    57    12    13    2
    58    42    41   ar
    59    14    11    1
    60    14    15    1
    61    16    15    1
    62    16    17    1
    63    11    10    1
    64    37    36    1
    65    37    39   ar
    66    36    33    1
    67    41    39   ar
    68    33    34    1
    69    33    32    1
    70    49    48    1
    71    34    35    2
    72    44    45    1
    73    84    83    1
    74    84    85    1
    75    48    45    1
    76    48    50    1
    77    45    46    1
    78    82    83    1
    79    82    79    1
    80     9     7   am
    81    85    86    2
    82    81    80    2
    83     4     3    2
    84    78    79    1
    85     3     2    1
    86     7     6    1
    87     7     8    2
    88    79    80    1
    89    86    87    1
    90    86    88    1
    91     5     6    1
    92     5     2    1
    93    46    47    2
    94     2     1    1
    95    30    29    2
    96    28    29    1
    97    28    25    1
    98    19    18    1
    99    19    20    1
   100    19    22    1
   101    24    20   am
   102    24    25    1
   103    29    31   am
   104    20    21    2
   105    22    23    1
   106    25    26    1
   107    26    27    2
