@<TRIPOS>MOLECULE
tmp/3ppsD01.pdb
 171 166 0 0 0
SMALL
GASTEIGER

@<TRIPOS>ATOM
      1  N         20.7750   48.8040  -36.8190 N.3     3  PRO3       -0.2116
      2  CA        19.7520   48.5920  -35.7910 C.3     3  PRO3        0.1372
      3  C         19.8140   49.6610  -34.7080 C.2     3  PRO3        0.2244
      4  O         20.8720   50.2480  -34.4820 O.2     3  PRO3       -0.2868
      5  CB        20.1500   47.2500  -35.1640 C.3     3  PRO3        0.0268
      6  CG        21.2870   46.7340  -35.9740 C.3     3  PRO3        0.0207
      7  CD        21.9230   47.9120  -36.6250 C.3     3  PRO3        0.0892
      8  N         17.7320   46.2660  -31.8860 N.3     6  ASN6       -0.1225
      9  CA        17.9440   44.8530  -32.1700 C.3     6  ASN6        0.1785
     10  C         18.8810   44.2360  -31.1380 C.2     6  ASN6        0.2598
     11  O         20.1070   44.3820  -31.2230 O.2     6  ASN6       -0.2718
     12  CB        18.5050   44.6780  -33.5780 C.3     6  ASN6        0.1169
     13  CG        18.6600   43.2220  -33.9700 C.2     6  ASN6        0.2627
     14  OD1       19.3100   42.4390  -33.2740 O.2     6  ASN6       -0.2716
     15  ND2       18.0650   42.8530  -35.0960 N.am    6  ASN6       -0.0877
     16  N         18.2970   43.5570  -30.1570 N.am    7  THR7       -0.1939
     17  CA        19.0680   42.9970  -29.0580 C.3     7  THR7        0.2013
     18  C         18.8140   41.4990  -28.9220 C.2     7  THR7        0.2484
     19  O         17.8280   40.9840  -29.4470 O.2     7  THR7       -0.2729
     20  CB        18.7320   43.7090  -27.7380 C.3     7  THR7        0.1807
     21  OG1       17.3040   43.7830  -27.5860 O.3     7  THR7       -0.2208
     22  CG2       19.3120   45.1190  -27.7420 C.3     7  THR7        0.0379
     23  N         19.7100   40.7990  -28.2120 N.am    8  PRO8       -0.2726
     24  CA        19.6120   39.3610  -27.9700 C.3     8  PRO8        0.1402
     25  C         18.2230   38.9240  -27.5490 C.2     8  PRO8        0.2269
     26  O         17.8050   37.8200  -27.8990 O.2     8  PRO8       -0.2865
     27  CB        20.5900   39.1550  -26.8130 C.3     8  PRO8        0.0296
     28  CG        21.6230   40.1470  -27.0530 C.3     8  PRO8        0.0237
     29  CD        20.9340   41.3550  -27.6100 C.3     8  PRO8        0.0939
     30  N         14.8950   40.4290  -30.9690 N.3    11  ARG11      -0.1245
     31  CA        15.3700   40.3740  -32.3510 C.3    11  ARG11       0.1563
     32  C         14.3090   40.8400  -33.3500 C.2    11  ARG11       0.2260
     33  O         14.6340   41.1830  -34.4830 O.2    11  ARG11      -0.2867
     34  CB        15.8500   38.9620  -32.7070 C.3    11  ARG11       0.0307
     35  CG        17.0600   38.4720  -31.9070 C.3    11  ARG11       0.0489
     36  CD        18.2320   39.4160  -32.0200 C.3    11  ARG11       0.2205
     37  NE        19.4740   38.7850  -31.5670 N.pl3  11  ARG11      -0.0865
     38  CZ        20.6670   39.3750  -31.5690 C.cat  11  ARG11       0.5346
     39  NH1       20.8070   40.6260  -31.9900 N.pl3  11  ARG11       0.1354
     40  NH2       21.7270   38.7110  -31.1450 N.pl3  11  ARG11       0.1354
     41  N         34.1110   35.9640  -50.8770 N.3    68  PRO68      -0.2102
     42  CA        33.7390   36.6170  -49.6190 C.3    68  PRO68       0.1504
     43  C         32.2230   36.7910  -49.5070 C.2    68  PRO68       0.2576
     44  O         31.4660   36.4270  -50.4220 O.2    68  PRO68      -0.2718
     45  CB        34.4190   37.9830  -49.7140 C.3    68  PRO68       0.0282
     46  CG        35.4630   37.8290  -50.7580 C.3    68  PRO68       0.0208
     47  CD        34.9140   36.8420  -51.7380 C.3    68  PRO68       0.0893
     48  N         31.7940   37.3310  -48.3710 N.am   69  THR69      -0.1953
     49  CA        30.3940   37.6000  -48.1120 C.3    69  THR69       0.1897
     50  C         30.0800   39.0400  -48.4490 C.2    69  THR69       0.2313
     51  O         30.7800   39.9610  -48.0220 O.2    69  THR69      -0.2863
     52  CB        30.0540   37.3920  -46.6320 C.3    69  THR69       0.1794
     53  OG1       30.2580   36.0170  -46.2850 O.3    69  THR69      -0.2208
     54  CG2       28.6080   37.7580  -46.3690 C.3    69  THR69       0.0378
     55  N         28.1320   41.7740  -47.4000 N.3    71  ARG71      -0.1245
     56  CA        27.4190   42.1200  -46.1830 C.3    71  ARG71       0.1563
     57  C         26.8980   43.5490  -46.2520 C.2    71  ARG71       0.2260
     58  O         27.4710   44.3840  -46.9420 O.2    71  ARG71      -0.2867
     59  CB        28.3420   41.9420  -44.9810 C.3    71  ARG71       0.0307
     60  CG        27.6350   41.9880  -43.6540 C.3    71  ARG71       0.0489
     61  CD        28.0240   40.7920  -42.8160 C.3    71  ARG71       0.2205
     62  NE        27.4720   40.8980  -41.4690 N.pl3  71  ARG71      -0.0865
     63  CZ        27.8550   40.1380  -40.4510 C.cat  71  ARG71       0.5346
     64  NH1       28.7860   39.2170  -40.6340 N.pl3  71  ARG71       0.1354
     65  NH2       27.3160   40.2990  -39.2530 N.pl3  71  ARG71       0.1354
     66  N         24.6910   38.3410  -47.0300 N.3   155  GLN155     -0.1245
     67  CA        24.0500   38.4170  -45.7220 C.3   155  GLN155      0.1566
     68  C         23.6640   39.8340  -45.3860 C.2   155  GLN155      0.2260
     69  O         24.5020   40.6280  -44.9640 O.2   155  GLN155     -0.2867
     70  CB        24.9300   37.8620  -44.6110 C.3   155  GLN155      0.0367
     71  CG        24.3540   38.0930  -43.2270 C.3   155  GLN155      0.0905
     72  CD        25.3070   37.6820  -42.1130 C.2   155  GLN155      0.2608
     73  OE1       26.3100   36.9930  -42.3450 O.2   155  GLN155     -0.2717
     74  NE2       24.9920   38.1050  -40.8840 N.am  155  GLN155     -0.0878
     75  N         21.4060   34.9320  -29.1760 N.3   165  ASP165     -0.1225
     76  CA        22.5230   35.6660  -28.5850 C.3   165  ASP165      0.1805
     77  C         23.7030   35.8410  -29.5410 C.2   165  ASP165      0.2598
     78  O         24.1300   36.9670  -29.8050 O.2   165  ASP165     -0.2718
     79  CB        22.9810   34.9720  -27.2960 C.3   165  ASP165      0.1424
     80  CG        21.8440   34.7620  -26.3090 C.2   165  ASP165      0.3668
     81  OD1       21.1020   35.7290  -26.0290 O.co2 165  ASP165     -0.2456
     82  OD2       21.6880   33.6270  -25.8090 O.co2 165  ASP165     -0.2456
     83  N         24.2420   34.7280  -30.0410 N.am  166  ILE166     -0.1966
     84  CA        25.3400   34.7570  -31.0110 C.3   166  ILE166      0.1727
     85  C         24.8010   34.4870  -32.4150 C.2   166  ILE166      0.2616
     86  O         23.8090   33.7740  -32.5620 O.2   166  ILE166     -0.2715
     87  CB        26.4330   33.7010  -30.6690 C.3   166  ILE166      0.0290
     88  CG1       27.0270   33.9500  -29.2820 C.3   166  ILE166      0.0022
     89  CG2       27.5520   33.6850  -31.7180 C.3   166  ILE166      0.0023
     90  CD1       26.3850   33.1290  -28.1800 C.3   166  ILE166      0.0001
     91  N         25.4340   35.0760  -33.4320 N.am  167  ASP167     -0.1957
     92  CA        25.1210   34.7890  -34.8340 C.3   167  ASP167      0.1840
     93  C         26.3570   34.2250  -35.5030 C.2   167  ASP167      0.2622
     94  O         27.2340   34.9750  -35.9220 O.2   167  ASP167     -0.2715
     95  CB        24.6650   36.0510  -35.5670 C.3   167  ASP167      0.1450
     96  CG        24.4220   35.8250  -37.0650 C.2   167  ASP167      0.3671
     97  OD1       25.1540   35.0280  -37.6990 O.co2 167  ASP167     -0.2456
     98  OD2       23.5070   36.4770  -37.6170 O.co2 167  ASP167     -0.2456
     99  N         26.4330   32.9020  -35.6070 N.am  168  LEU168     -0.1963
    100  CA        27.6310   32.2380  -36.1210 C.3   168  LEU168      0.1728
    101  C         28.1150   32.7750  -37.4830 C.2   168  LEU168      0.2617
    102  O         29.3090   32.9380  -37.7120 O.2   168  LEU168     -0.2715
    103  CB        27.4040   30.7250  -36.1820 C.3   168  LEU168      0.0311
    104  CG        27.3820   30.0370  -34.8220 C.3   168  LEU168      0.0022
    105  CD1       27.0280   28.5670  -34.9560 C.3   168  LEU168      0.0001
    106  CD2       28.7290   30.2150  -34.1300 C.3   168  LEU168      0.0001
    107  N         27.1850   33.0590  -38.3840 N.am  169  GLY169     -0.1940
    108  CA        27.5660   33.5470  -39.6940 C.3   169  GLY169      0.2014
    109  C         27.1600   32.5570  -40.7670 C.2   169  GLY169      0.2639
    110  O         26.6330   31.4800  -40.4670 O.2   169  GLY169     -0.2714
    111  N         27.4060   32.9180  -42.0220 N.am  170  VAL170     -0.1963
    112  CA        27.0110   32.0720  -43.1420 C.3   170  VAL170      0.1727
    113  C         27.7600   30.7540  -43.0820 C.2   170  VAL170      0.2616
    114  O         28.8900   30.6810  -42.5820 O.2   170  VAL170     -0.2715
    115  CB        27.2780   32.7520  -44.5000 C.3   170  VAL170      0.0290
    116  CG1       26.3860   33.9780  -44.6630 C.3   170  VAL170      0.0023
    117  CG2       28.7600   33.1120  -44.6250 C.3   170  VAL170      0.0023
    118  N         27.1260   29.7150  -43.6070 N.am  171  PHE171     -0.1974
    119  CA        27.6520   28.3620  -43.5410 C.3   171  PHE171      0.1639
    120  C         27.3400   27.6660  -44.8580 C.2   171  PHE171      0.2290
    121  O         26.4650   26.7940  -44.9210 O.2   171  PHE171     -0.2864
    122  CB        27.0160   27.6250  -42.3630 C.3   171  PHE171      0.0560
    123  CG        27.6300   26.2940  -42.0710 C.ar  171  PHE171     -0.0200
    124  CD1       26.8330   25.1800  -41.8890 C.ar  171  PHE171     -0.0042
    125  CD2       29.0060   26.1500  -41.9730 C.ar  171  PHE171     -0.0042
    126  CE1       27.4020   23.9440  -41.6170 C.ar  171  PHE171     -0.0003
    127  CE2       29.5670   24.9210  -41.6970 C.ar  171  PHE171     -0.0003
    128  CZ        28.7730   23.8220  -41.5250 C.ar  171  PHE171     -0.0000
    129  N         31.8350   25.3860  -45.5710 N.3   202  ASN202     -0.1240
    130  CA        32.2410   26.7840  -45.4760 C.3   202  ASN202      0.1653
    131  C         33.6410   26.9800  -46.0710 C.2   202  ASN202      0.2266
    132  O         34.4990   27.6460  -45.4880 O.2   202  ASN202     -0.2867
    133  CB        32.1620   27.2740  -44.0220 C.3   202  ASN202      0.1155
    134  CG        32.2780   28.7890  -43.8960 C.2   202  ASN202      0.2627
    135  OD1       32.4040   29.5100  -44.8940 O.2   202  ASN202     -0.2716
    136  ND2       32.2450   29.2740  -42.6480 N.am  202  ASN202     -0.0877
    137  N         36.1480   21.2310  -40.4580 N.3   216  TYR216     -0.1227
    138  CA        35.7630   22.5950  -40.1510 C.3   216  TYR216      0.1736
    139  C         35.0920   22.6890  -38.7660 C.2   216  TYR216      0.2595
    140  O         34.1210   21.9710  -38.4700 O.2   216  TYR216     -0.2718
    141  CB        34.8380   23.1640  -41.2360 C.3   216  TYR216      0.0548
    142  CG        34.6160   24.6560  -41.0990 C.ar  216  TYR216     -0.0200
    143  CD1       35.4720   25.5650  -41.7100 C.ar  216  TYR216     -0.0009
    144  CD2       33.5680   25.1510  -40.3450 C.ar  216  TYR216     -0.0009
    145  CE1       35.2800   26.9230  -41.5780 C.ar  216  TYR216      0.0417
    146  CE2       33.3690   26.5050  -40.2030 C.ar  216  TYR216      0.0417
    147  CZ        34.2210   27.3890  -40.8190 C.ar  216  TYR216      0.1957
    148  OH        34.0090   28.7470  -40.6770 O.3   216  TYR216     -0.2866
    149  N         35.6130   23.5880  -37.9300 N.am  217  ASN217     -0.1960
    150  CA        35.1100   23.7690  -36.5700 C.3   217  ASN217      0.1819
    151  C         34.1000   24.9180  -36.4240 C.2   217  ASN217      0.2621
    152  O         34.2670   26.0070  -36.9960 O.2   217  ASN217     -0.2715
    153  CB        36.2780   23.9950  -35.6030 C.3   217  ASN217      0.1195
    154  CG        37.4280   23.0190  -35.8190 C.2   217  ASN217      0.2630
    155  OD1       37.2700   21.8040  -35.6560 O.2   217  ASN217     -0.2716
    156  ND2       38.6060   23.5590  -36.1610 N.am  217  ASN217     -0.0877
    157  N         33.0440   24.6570  -35.6560 N.am  218  VAL218     -0.1977
    158  CA        32.1070   25.6870  -35.2290 C.3   218  VAL218      0.1596
    159  C         32.0180   25.6320  -33.7050 C.2   218  VAL218      0.2287
    160  O         31.8110   24.5610  -33.1370 O.2   218  VAL218     -0.2864
    161  CB        30.7080   25.4620  -35.8260 C.3   218  VAL218      0.0276
    162  CG1       29.8030   26.6610  -35.5550 C.3   218  VAL218      0.0022
    163  CG2       30.8170   25.1870  -37.3160 C.3   218  VAL218      0.0022
    164  N         22.3870   30.0140  -37.2120 N.3   228  LEU228     -0.1245
    165  CA        23.1880   29.4360  -38.2780 C.3   228  LEU228      0.1561
    166  C         22.5290   29.6850  -39.6370 C.2   228  LEU228      0.2260
    167  O         21.3190   29.4770  -39.8060 O.2   228  LEU228     -0.2867
    168  CB        23.4010   27.9420  -38.0250 C.3   228  LEU228      0.0270
    169  CG        24.4410   27.2020  -38.8610 C.3   228  LEU228      0.0019
    170  CD1       25.7760   27.9330  -38.8480 C.3   228  LEU228      0.0001
    171  CD2       24.5810   25.7540  -38.3760 C.3   228  LEU228      0.0001
@<TRIPOS>BOND
     1    47    41    1
     2    47    46    1
     3    41    42    1
     4    46    45    1
     5    44    43    2
     6    45    42    1
     7    42    43    1
     8    43    48   am
     9    50    49    1
    10    50    51    2
    11    48    49    1
    12    49    52    1
    13    55    56    1
    14    66    67    1
    15    58    57    2
    16    52    54    1
    17    52    53    1
    18    57    56    1
    19    56    59    1
    20   131   132    2
    21   131   130    1
    22    67    68    1
    23    67    70    1
    24   129   130    1
    25   130   133    1
    26    68    69    2
    27    59    60    1
    28   121   120    2
    29   135   134    2
    30   120   119    1
    31   116   115    1
    32   117   115    1
    33    70    71    1
    34   115   112    1
    35   133   134    1
    36   134   136   am
    37    60    61    1
    38   118   119    1
    39   118   113   am
    40   119   122    1
    41    71    72    1
    42   112   113    1
    43   112   111    1
    44   113   114    2
    45    61    62    1
    46   122   123    1
    47    73    72    2
    48    72    74   am
    49   123   125   ar
    50   123   124   ar
    51   111   109   am
    52   125   127   ar
    53   124   126   ar
    54   143   145   ar
    55   143   142   ar
    56   127   128   ar
    57   126   128   ar
    58   145   147   ar
    59    62    63    2
    60   141   142    1
    61   141   138    1
    62   142   144   ar
    63   147   148    1
    64   147   146   ar
    65   109   110    2
    66   109   108    1
    67    64    63    1
    68   137   138    1
    69    63    65    1
    70   144   146   ar
    71   138   139    1
    72   167   166    2
    73   108   107    1
    74   166   165    1
    75   169   170    1
    76   169   171    1
    77   169   168    1
    78   139   140    2
    79   139   149   am
    80   107   101   am
    81   165   168    1
    82   165   164    1
    83   149   150    1
    84   102   101    2
    85    97    96   ar
    86    98    96   ar
    87   101   100    1
    88   163   161    1
    89    96    95    1
    90   152   151    2
    91     1     7    1
    92     1     2    1
    93     7     6    1
    94   150   151    1
    95   150   153    1
    96   151   157   am
    97   103   100    1
    98   103   104    1
    99   156   154   am
   100   100    99    1
   101     6     5    1
   102    94    93    2
   103   161   162    1
   104   161   158    1
   105   154   155    2
   106   154   153    1
   107     2     5    1
   108     2     3    1
   109   157   158    1
   110    99    93   am
   111    95    92    1
   112    93    92    1
   113   158   159    1
   114    15    13   am
   115   105   104    1
   116    92    91    1
   117   104   106    1
   118     3     4    2
   119    33    32    2
   120    13    12    1
   121    13    14    2
   122   159   160    2
   123    12     9    1
   124    91    85   am
   125    32    31    1
   126    34    31    1
   127    34    35    1
   128    86    85    2
   129    85    84    1
   130    31    30    1
   131     9     8    1
   132     9    10    1
   133    36    35    1
   134    36    37    1
   135    39    38    1
   136    89    87    1
   137    38    37    2
   138    38    40    1
   139    11    10    2
   140    10    16   am
   141    84    87    1
   142    84    83    1
   143    87    88    1
   144    16    17    1
   145    83    77   am
   146    78    77    2
   147    77    76    1
   148    19    18    2
   149    88    90    1
   150    75    76    1
   151    17    18    1
   152    17    20    1
   153    18    23   am
   154    76    79    1
   155    23    24    1
   156    23    29    1
   157    24    25    1
   158    24    27    1
   159    26    25    2
   160    22    20    1
   161    20    21    1
   162    29    28    1
   163    79    80    1
   164    28    27    1
   165    80    81   ar
   166    80    82   ar
