@<TRIPOS>MOLECULE
tmp/3ppsC01.pdb
 100 94 0 0 0
SMALL
GASTEIGER

@<TRIPOS>ATOM
      1  N          0.3890  -26.5790  -48.1080 N.3    69  THR69      -0.1218
      2  CA         1.7920  -26.8830  -47.9050 C.3    69  THR69       0.1862
      3  C          2.0640  -28.3290  -48.3240 C.2    69  THR69       0.2287
      4  O          1.4710  -29.2690  -47.7880 O.2    69  THR69      -0.2866
      5  CB         2.2130  -26.7000  -46.4280 C.3    69  THR69       0.1770
      6  OG1        2.1490  -25.3170  -46.0640 O.3    69  THR69      -0.2211
      7  CG2        3.6220  -27.2040  -46.2070 C.3    69  THR69       0.0375
      8  N          3.9330  -31.0970  -47.7200 N.3    71  ARG71      -0.1245
      9  CA         4.8070  -31.5350  -46.6340 C.3    71  ARG71       0.1563
     10  C          5.3630  -32.9290  -46.8680 C.2    71  ARG71       0.2260
     11  O          4.7530  -33.7380  -47.5650 O.2    71  ARG71      -0.2867
     12  CB         4.0660  -31.4770  -45.2960 C.3    71  ARG71       0.0307
     13  CG         4.9880  -31.4110  -44.1020 C.3    71  ARG71       0.0489
     14  CD         4.2860  -30.7490  -42.9390 C.3    71  ARG71       0.2205
     15  NE         5.2150  -30.4040  -41.8660 N.pl3  71  ARG71      -0.0865
     16  CZ         4.8890  -29.6540  -40.8200 C.cat  71  ARG71       0.5346
     17  NH1        3.6550  -29.1680  -40.7130 N.pl3  71  ARG71       0.1354
     18  NH2        5.7970  -29.3870  -39.8870 N.pl3  71  ARG71       0.1354
     19  N          7.4050  -27.8690  -47.5840 N.3   155  GLN155     -0.1245
     20  CA         8.2130  -28.0210  -46.3820 C.3   155  GLN155      0.1566
     21  C          8.6430  -29.4590  -46.1540 C.2   155  GLN155      0.2260
     22  O          7.8170  -30.3130  -45.8830 O.2   155  GLN155     -0.2867
     23  CB         7.4400  -27.5260  -45.1650 C.3   155  GLN155      0.0367
     24  CG         8.2170  -27.6410  -43.8560 C.3   155  GLN155      0.0905
     25  CD         7.3910  -27.1780  -42.6660 C.2   155  GLN155      0.2608
     26  OE1        6.7700  -26.1100  -42.6990 O.2   155  GLN155     -0.2717
     27  NE2        7.3690  -27.9900  -41.6140 N.am  155  GLN155     -0.0878
     28  N          8.4300  -25.4340  -34.0800 N.3   167  ASP167     -0.1225
     29  CA         8.4600  -25.1050  -35.5060 C.3   167  ASP167      0.1805
     30  C          7.1290  -24.4160  -35.8280 C.2   167  ASP167      0.2598
     31  O          6.0980  -25.0770  -35.9490 O.2   167  ASP167     -0.2718
     32  CB         8.6220  -26.3900  -36.3430 C.3   167  ASP167      0.1424
     33  CG         8.8340  -26.1180  -37.8440 C.2   167  ASP167      0.3668
     34  OD1        8.4910  -25.0100  -38.3190 O.co2 167  ASP167     -0.2456
     35  OD2        9.3360  -27.0250  -38.5610 O.co2 167  ASP167     -0.2456
     36  N          7.1550  -23.0870  -35.9470 N.am  168  LEU168     -0.1966
     37  CA         5.9470  -22.2960  -36.1990 C.3   168  LEU168      0.1728
     38  C          5.3120  -22.5650  -37.5570 C.2   168  LEU168      0.2617
     39  O          4.0950  -22.4220  -37.7210 O.2   168  LEU168     -0.2715
     40  CB         6.2400  -20.8030  -36.0590 C.3   168  LEU168      0.0311
     41  CG         5.9360  -20.1920  -34.6890 C.3   168  LEU168      0.0022
     42  CD1        6.4780  -18.7780  -34.5990 C.3   168  LEU168      0.0001
     43  CD2        4.4380  -20.2100  -34.4020 C.3   168  LEU168      0.0001
     44  N          6.1310  -22.9430  -38.5290 N.am  169  GLY169     -0.1940
     45  CA         5.6250  -23.3370  -39.8280 C.3   169  GLY169      0.2014
     46  C          5.9600  -22.3220  -40.8930 C.2   169  GLY169      0.2639
     47  O          6.6530  -21.3470  -40.6260 O.2   169  GLY169     -0.2714
     48  N          5.4780  -22.5550  -42.1060 N.am  170  VAL170     -0.1963
     49  CA         5.7560  -21.6370  -43.2010 C.3   170  VAL170      0.1727
     50  C          5.0490  -20.3180  -42.9420 C.2   170  VAL170      0.2616
     51  O          4.0290  -20.2760  -42.2700 O.2   170  VAL170     -0.2715
     52  CB         5.3090  -22.1990  -44.5660 C.3   170  VAL170      0.0290
     53  CG1        6.0380  -23.5010  -44.8540 C.3   170  VAL170      0.0023
     54  CG2        3.7790  -22.3940  -44.5890 C.3   170  VAL170      0.0023
     55  N          5.6020  -19.2460  -43.4940 N.am  171  PHE171     -0.1974
     56  CA         5.0680  -17.9150  -43.2840 C.3   171  PHE171      0.1639
     57  C          5.2030  -17.1060  -44.5760 C.2   171  PHE171      0.2290
     58  O          5.9180  -16.1130  -44.6190 O.2   171  PHE171     -0.2864
     59  CB         5.8150  -17.2600  -42.1150 C.3   171  PHE171      0.0560
     60  CG         5.2600  -15.9330  -41.6950 C.ar  171  PHE171     -0.0200
     61  CD1        6.0950  -14.8330  -41.5600 C.ar  171  PHE171     -0.0042
     62  CD2        3.9120  -15.7830  -41.4260 C.ar  171  PHE171     -0.0042
     63  CE1        5.5970  -13.6060  -41.1680 C.ar  171  PHE171     -0.0003
     64  CE2        3.4040  -14.5540  -41.0360 C.ar  171  PHE171     -0.0003
     65  CZ         4.2500  -13.4640  -40.9090 C.ar  171  PHE171     -0.0000
     66  N          0.7650  -14.8960  -45.0880 N.3   202  ASN202     -0.1240
     67  CA         0.2760  -16.2640  -44.9880 C.3   202  ASN202      0.1653
     68  C         -1.1750  -16.3140  -45.4420 C.2   202  ASN202      0.2266
     69  O         -2.0360  -16.8660  -44.7570 O.2   202  ASN202     -0.2867
     70  CB         0.4470  -16.7700  -43.5500 C.3   202  ASN202      0.1155
     71  CG         0.4280  -18.2860  -43.4420 C.2   202  ASN202      0.2627
     72  OD1        0.4250  -19.0000  -44.4460 O.2   202  ASN202     -0.2716
     73  ND2        0.4000  -18.7800  -42.2010 N.am  202  ASN202     -0.0877
     74  N         -2.6670  -10.7130  -39.2550 N.3   216  TYR216     -0.1241
     75  CA        -2.2960  -12.1110  -39.0230 C.3   216  TYR216      0.1605
     76  C         -1.5810  -12.3060  -37.6920 C.2   216  TYR216      0.2264
     77  O         -0.5790  -11.6470  -37.4160 O.2   216  TYR216     -0.2867
     78  CB        -1.4360  -12.6750  -40.1580 C.3   216  TYR216      0.0534
     79  CG        -1.3050  -14.1820  -40.0940 C.ar  216  TYR216     -0.0201
     80  CD1       -2.2650  -15.0020  -40.6650 C.ar  216  TYR216     -0.0009
     81  CD2       -0.2410  -14.7800  -39.4430 C.ar  216  TYR216     -0.0009
     82  CE1       -2.1640  -16.3770  -40.5970 C.ar  216  TYR216      0.0417
     83  CE2       -0.1320  -16.1520  -39.3680 C.ar  216  TYR216      0.0417
     84  CZ        -1.0960  -16.9480  -39.9500 C.ar  216  TYR216      0.1957
     85  OH        -0.9940  -18.3220  -39.8890 O.3   216  TYR216     -0.2866
     86  N          0.5640  -14.4480  -34.8460 N.3   218  VAL218     -0.1245
     87  CA         1.5640  -15.5000  -34.6860 C.3   218  VAL218      0.1561
     88  C          1.9320  -15.6610  -33.2130 C.2   218  VAL218      0.2260
     89  O          2.6970  -14.8650  -32.6680 O.2   218  VAL218     -0.2867
     90  CB         2.8300  -15.1830  -35.4940 C.3   218  VAL218      0.0252
     91  CG1        3.8910  -16.2530  -35.2670 C.3   218  VAL218      0.0019
     92  CG2        2.4910  -15.0700  -36.9760 C.3   218  VAL218      0.0019
     93  N         11.1060  -20.0100  -37.7320 N.3   228  LEU228     -0.1245
     94  CA        10.1890  -19.3180  -38.6220 C.3   228  LEU228      0.1561
     95  C         10.6970  -19.4310  -40.0550 C.2   228  LEU228      0.2260
     96  O         11.8640  -19.1240  -40.3370 O.2   228  LEU228     -0.2867
     97  CB        10.0380  -17.8540  -38.2100 C.3   228  LEU228      0.0270
     98  CG         8.9780  -17.0610  -38.9740 C.3   228  LEU228      0.0019
     99  CD1        7.6320  -17.6180  -38.6710 C.3   228  LEU228      0.0001
    100  CD2        9.0390  -15.5780  -38.6120 C.3   228  LEU228      0.0001
@<TRIPOS>BOND
     1     3     2    1
     2     3     4    2
     3     1     2    1
     4     2     5    1
     5     8     9    1
     6    19    20    1
     7    11    10    2
     8    10     9    1
     9     9    12    1
    10     5     7    1
    11     5     6    1
    12    20    21    1
    13    20    23    1
    14    21    22    2
    15    68    67    1
    16    68    69    2
    17    12    13    1
    18    23    24    1
    19    66    67    1
    20    67    70    1
    21    53    52    1
    22    58    57    2
    23    54    52    1
    24    57    56    1
    25    52    49    1
    26    72    71    2
    27    13    14    1
    28    24    25    1
    29    70    71    1
    30    55    56    1
    31    55    50   am
    32    71    73   am
    33    56    59    1
    34    49    50    1
    35    49    48    1
    36    50    51    2
    37    14    15    1
    38    26    25    2
    39    25    27   am
    40    59    60    1
    41    48    46   am
    42    15    16    2
    43    60    61   ar
    44    60    62   ar
    45    61    63   ar
    46    62    64   ar
    47    63    65   ar
    48    64    65   ar
    49    46    47    2
    50    46    45    1
    51    16    17    1
    52    16    18    1
    53    80    82   ar
    54    80    79   ar
    55    82    84   ar
    56    96    95    2
    57    78    79    1
    58    78    75    1
    59    79    81   ar
    60    95    94    1
    61    84    85    1
    62    84    83   ar
    63    45    44    1
    64    81    83   ar
    65    74    75    1
    66    75    76    1
    67    98    99    1
    68    98   100    1
    69    98    97    1
    70    94    97    1
    71    94    93    1
    72    35    33   ar
    73    44    38   am
    74    34    33   ar
    75    33    32    1
    76    39    38    2
    77    76    77    2
    78    38    37    1
    79    92    90    1
    80    32    29    1
    81    37    40    1
    82    37    36    1
    83    40    41    1
    84    31    30    2
    85    36    30   am
    86    30    29    1
    87    29    28    1
    88    90    91    1
    89    90    87    1
    90    86    87    1
    91    41    42    1
    92    41    43    1
    93    87    88    1
    94    88    89    2
