@<TRIPOS>MOLECULE
tmp/3ppsB00.pdb
 175 169 0 0 0
SMALL
GASTEIGER

@<TRIPOS>ATOM
      1  N        -11.1380  -50.3890   -3.3860 N.3    43  GLU43      -0.1245
      2  CA       -11.1010  -48.9990   -3.8030 C.3    43  GLU43       0.1567
      3  C        -12.3860  -48.2810   -3.3960 C.2    43  GLU43       0.2260
      4  O        -13.4700  -48.7760   -3.6490 O.2    43  GLU43      -0.2867
      5  CB       -10.9060  -48.9260   -5.3150 C.3    43  GLU43       0.0388
      6  CG       -10.7680  -47.5190   -5.8590 C.3    43  GLU43       0.1160
      7  CD       -10.3380  -47.4960   -7.3110 C.2    43  GLU43       0.3649
      8  OE1       -9.7340  -48.4930   -7.7740 O.co2  43  GLU43      -0.2457
      9  OE2      -10.6010  -46.4780   -7.9900 O.co2  43  GLU43      -0.2457
     10  N        -14.4920  -44.3560   -3.1620 N.3    45  GLU45      -0.1245
     11  CA       -14.5440  -42.9740   -3.6450 C.3    45  GLU45       0.1567
     12  C        -15.2490  -42.0500   -2.6620 C.2    45  GLU45       0.2260
     13  O        -16.2040  -42.4550   -2.0090 O.2    45  GLU45      -0.2867
     14  CB       -15.2260  -42.9040   -5.0180 C.3    45  GLU45       0.0388
     15  CG       -14.2770  -43.1070   -6.2070 C.3    45  GLU45       0.1160
     16  CD       -13.6940  -44.5200   -6.2850 C.2    45  GLU45       0.3649
     17  OE1      -14.4200  -45.4790   -5.9300 O.co2  45  GLU45      -0.2457
     18  OE2      -12.5180  -44.6720   -6.7140 O.co2  45  GLU45      -0.2457
     19  N        -11.3990  -37.8110   -2.1080 N.3    56  ASN56      -0.1225
     20  CA       -12.1050  -38.2110   -3.3290 C.3    56  ASN56       0.1785
     21  C        -11.8730  -39.6740   -3.7410 C.2    56  ASN56       0.2597
     22  O        -12.7050  -40.2580   -4.4330 O.2    56  ASN56      -0.2718
     23  CB       -11.7820  -37.2690   -4.4960 C.3    56  ASN56       0.1169
     24  CG       -10.3090  -37.2600   -4.8370 C.2    56  ASN56       0.2627
     25  OD1       -9.4690  -37.2040   -3.9440 O.2    56  ASN56      -0.2716
     26  ND2       -9.9870  -37.3120   -6.1290 N.am   56  ASN56      -0.0877
     27  N        -10.7500  -40.2600   -3.3280 N.am   57  VAL57      -0.1980
     28  CA       -10.4470  -41.6620   -3.6480 C.3    57  VAL57       0.1595
     29  C         -9.3020  -42.2520   -2.8160 C.2    57  VAL57       0.2287
     30  O         -8.2530  -41.6330   -2.6690 O.2    57  VAL57      -0.2864
     31  CB       -10.1050  -41.8580   -5.1370 C.3    57  VAL57       0.0276
     32  CG1       -8.9790  -40.9350   -5.5450 C.3    57  VAL57       0.0022
     33  CG2       -9.7130  -43.3030   -5.3940 C.3    57  VAL57       0.0022
     34  N         -7.4620  -46.3970   -1.4800 N.3    59  MET59      -0.1245
     35  CA        -7.2040  -47.7740   -1.8810 C.3    59  MET59       0.1570
     36  C         -6.6710  -48.5390   -0.6920 C.2    59  MET59       0.2261
     37  O         -5.5080  -48.3900   -0.3380 O.2    59  MET59      -0.2867
     38  CB        -6.1760  -47.8000   -2.9990 C.3    59  MET59       0.0387
     39  CG        -6.6270  -47.1100   -4.2640 C.3    59  MET59       0.0595
     40  SD        -5.2460  -46.9110   -5.4000 S.3    59  MET59      -0.1393
     41  CE        -6.0810  -46.3290   -6.8710 C.3    59  MET59       0.0692
     42  N         -9.6260  -50.0480  -11.5820 N.3    88  THR88      -0.1203
     43  CA        -8.9100  -49.8540  -12.8310 C.3    88  THR88       0.1994
     44  C         -7.4120  -50.0980  -12.6920 C.2    88  THR88       0.2617
     45  O         -6.7690  -50.5640  -13.6270 O.2    88  THR88      -0.2717
     46  CB        -9.1940  -48.4500  -13.4040 C.3    88  THR88       0.1784
     47  OG1       -8.3080  -48.1700  -14.4930 O.3    88  THR88      -0.2211
     48  CG2       -9.0370  -47.3990  -12.3230 C.3    88  THR88       0.0376
     49  N         -6.8630  -49.7940  -11.5230 N.am   89  ASN89      -0.1974
     50  CA        -5.4350  -49.9710  -11.2820 C.3    89  ASN89       0.1688
     51  C         -5.0330  -51.4330  -11.1100 C.2    89  ASN89       0.2292
     52  O         -5.7040  -52.1910  -10.4070 O.2    89  ASN89      -0.2864
     53  CB        -5.0110  -49.1960  -10.0350 C.3    89  ASN89       0.1181
     54  CG        -4.8690  -47.6950  -10.2770 C.2    89  ASN89       0.2629
     55  OD1       -4.4060  -46.9670   -9.3990 O.2    89  ASN89      -0.2716
     56  ND2       -5.2680  -47.2260  -11.4580 N.am   89  ASN89      -0.0877
     57  N          3.4030  -50.0100   -8.0590 N.3   142  PHE142     -0.1227
     58  CA         2.6240  -49.5950   -9.2200 C.3   142  PHE142      0.1736
     59  C          2.4670  -48.0720   -9.2190 C.2   142  PHE142      0.2596
     60  O          1.5760  -47.5200   -8.5730 O.2   142  PHE142     -0.2718
     61  CB         1.2650  -50.3020   -9.2330 C.3   142  PHE142      0.0547
     62  CG         0.4300  -50.0150  -10.4620 C.ar  142  PHE142     -0.0202
     63  CD1        0.6270  -50.7350  -11.6350 C.ar  142  PHE142     -0.0042
     64  CD2       -0.5660  -49.0420  -10.4410 C.ar  142  PHE142     -0.0042
     65  CE1       -0.1430  -50.4780  -12.7590 C.ar  142  PHE142     -0.0003
     66  CE2       -1.3280  -48.7910  -11.5600 C.ar  142  PHE142     -0.0003
     67  CZ        -1.1160  -49.5050  -12.7160 C.ar  142  PHE142     -0.0000
     68  N          3.3370  -47.3920   -9.9510 N.am  143  SER143     -0.1952
     69  CA         3.4110  -45.9250   -9.8900 C.3   143  SER143      0.1924
     70  C          3.5020  -45.4010   -8.4450 C.2   143  SER143      0.2314
     71  O          4.2730  -45.9300   -7.6490 O.2   143  SER143     -0.2863
     72  CB         2.2720  -45.2810  -10.6750 C.3   143  SER143      0.2116
     73  OG         2.4310  -45.5560  -12.0510 O.3   143  SER143     -0.2180
     74  N         -1.9270  -43.8710   -1.9890 N.3   148  ASN148     -0.1240
     75  CA        -3.3810  -43.8920   -1.9630 C.3   148  ASN148      0.1653
     76  C         -3.9410  -44.8210   -0.8970 C.2   148  ASN148      0.2266
     77  O         -5.1420  -44.9680   -0.7870 O.2   148  ASN148     -0.2867
     78  CB        -3.9440  -44.2890   -3.3370 C.3   148  ASN148      0.1155
     79  CG        -4.3640  -43.0820   -4.1810 C.2   148  ASN148      0.2627
     80  OD1       -4.3860  -41.9440   -3.7120 O.2   148  ASN148     -0.2716
     81  ND2       -4.7110  -43.3380   -5.4330 N.am  148  ASN148     -0.0877
     82  N         -4.9410  -37.2180   -4.4290 N.3   180  SER180     -0.1217
     83  CA        -4.6960  -38.6080   -4.7830 C.3   180  SER180      0.1889
     84  C         -3.2840  -38.7830   -5.2840 C.2   180  SER180      0.2288
     85  O         -2.6400  -37.8200   -5.7010 O.2   180  SER180     -0.2866
     86  CB        -5.6930  -39.0800   -5.8520 C.3   180  SER180      0.2089
     87  OG        -5.4980  -38.3860   -7.0720 O.3   180  SER180     -0.2183
     88  N         -2.1810  -40.0920   -8.0640 N.3   182  ASP182     -0.1225
     89  CA        -2.0320  -39.6290   -9.4410 C.3   182  ASP182      0.1805
     90  C         -2.0520  -38.1030   -9.5540 C.2   182  ASP182      0.2597
     91  O         -1.2890  -37.5260  -10.3300 O.2   182  ASP182     -0.2718
     92  CB        -3.1140  -40.2440  -10.3230 C.3   182  ASP182      0.1424
     93  CG        -3.0630  -41.7430  -10.3210 C.2   182  ASP182      0.3668
     94  OD1       -2.0240  -42.3080  -10.7410 O.co2 182  ASP182     -0.2456
     95  OD2       -4.0630  -42.3560   -9.8880 O.co2 182  ASP182     -0.2456
     96  N         -2.9350  -37.4610   -8.7890 N.am  183  GLU183     -0.1979
     97  CA        -3.0420  -36.0060   -8.7970 C.3   183  GLU183      0.1602
     98  C         -1.7210  -35.4230   -8.2990 C.2   183  GLU183      0.2287
     99  O         -1.1690  -34.4850   -8.8820 O.2   183  GLU183     -0.2864
    100  CB        -4.2070  -35.5280   -7.9100 C.3   183  GLU183      0.0415
    101  CG        -5.6140  -35.8420   -8.4190 C.3   183  GLU183      0.1163
    102  CD        -6.7020  -35.4290   -7.4290 C.2   183  GLU183      0.3649
    103  OE1       -6.4030  -35.2710   -6.2190 O.co2 183  GLU183     -0.2457
    104  OE2       -7.8670  -35.2730   -7.8620 O.co2 183  GLU183     -0.2457
    105  N          5.4360  -52.4230  -18.2660 N.3   384  TRP384     -0.1241
    106  CA         4.5810  -53.2240  -17.3930 C.3   384  TRP384      0.1605
    107  C          4.2140  -54.5680  -18.0030 C.2   384  TRP384      0.2264
    108  O          3.8510  -55.4890  -17.2800 O.2   384  TRP384     -0.2867
    109  CB         3.2950  -52.4720  -17.0330 C.3   384  TRP384      0.0550
    110  CG         3.4750  -51.4020  -15.9900 C.ar  384  TRP384      0.0003
    111  CD1        4.4540  -51.3360  -15.0250 C.ar  384  TRP384      0.0946
    112  CD2        2.6400  -50.2510  -15.7990 C.ar  384  TRP384      0.0152
    113  NE1        4.2780  -50.2060  -14.2530 N.ar  384  TRP384     -0.2442
    114  CE2        3.1780  -49.5220  -14.7020 C.ar  384  TRP384      0.0810
    115  CE3        1.5010  -49.7560  -16.4400 C.ar  384  TRP384      0.0012
    116  CZ2        2.6040  -48.3360  -14.2410 C.ar  384  TRP384      0.0191
    117  CZ3        0.9320  -48.5720  -15.9830 C.ar  384  TRP384      0.0001
    118  CH2        1.4840  -47.8760  -14.8920 C.ar  384  TRP384      0.0015
    119  N         -4.8600  -54.9110  -19.9910 N.3   552  TRP552     -0.1241
    120  CA        -4.3340  -53.5870  -20.2940 C.3   552  TRP552      0.1605
    121  C         -5.1200  -52.7840  -21.3430 C.2   552  TRP552      0.2264
    122  O         -5.5440  -51.6630  -21.0590 O.2   552  TRP552     -0.2867
    123  CB        -2.8350  -53.6460  -20.6270 C.3   552  TRP552      0.0550
    124  CG        -2.2450  -52.2960  -20.9070 C.ar  552  TRP552      0.0003
    125  CD1       -1.6700  -51.8790  -22.0740 C.ar  552  TRP552      0.0946
    126  CD2       -2.1980  -51.1750  -20.0130 C.ar  552  TRP552      0.0152
    127  NE1       -1.2590  -50.5690  -21.9580 N.ar  552  TRP552     -0.2442
    128  CE2       -1.5750  -50.1140  -20.7040 C.ar  552  TRP552      0.0810
    129  CE3       -2.6150  -50.9640  -18.6950 C.ar  552  TRP552      0.0012
    130  CZ2       -1.3620  -48.8660  -20.1190 C.ar  552  TRP552      0.0191
    131  CZ3       -2.4080  -49.7190  -18.1190 C.ar  552  TRP552      0.0001
    132  CH2       -1.7840  -48.6900  -18.8310 C.ar  552  TRP552      0.0015
    133  N         -8.1950  -50.7670  -20.4850 N.3   555  ASN555     -0.1240
    134  CA        -7.9860  -49.8050  -19.4080 C.3   555  ASN555      0.1653
    135  C         -8.2840  -48.3850  -19.8750 C.2   555  ASN555      0.2266
    136  O         -7.8190  -47.9660  -20.9350 O.2   555  ASN555     -0.2867
    137  CB        -6.5500  -49.8910  -18.8860 C.3   555  ASN555      0.1155
    138  CG        -6.3750  -49.2000  -17.5470 C.2   555  ASN555      0.2627
    139  OD1       -7.0550  -49.5210  -16.5740 O.2   555  ASN555     -0.2716
    140  ND2       -5.4440  -48.2570  -17.4900 N.am  555  ASN555     -0.0877
    141  N         -7.4980  -45.5430  -18.6130 N.3   557  PHE557     -0.1228
    142  CA        -6.5090  -44.5280  -18.2750 C.3   557  PHE557      0.1721
    143  C         -5.1350  -44.8390  -18.8530 C.2   557  PHE557      0.2437
    144  O         -4.7580  -45.9970  -19.0000 O.2   557  PHE557     -0.2733
    145  CB        -6.3950  -44.3790  -16.7590 C.3   557  PHE557      0.0547
    146  CG        -7.6890  -44.0620  -16.0780 C.ar  557  PHE557     -0.0202
    147  CD1       -8.1090  -44.8000  -14.9850 C.ar  557  PHE557     -0.0042
    148  CD2       -8.4880  -43.0260  -16.5300 C.ar  557  PHE557     -0.0042
    149  CE1       -9.3020  -44.5100  -14.3470 C.ar  557  PHE557     -0.0003
    150  CE2       -9.6800  -42.7370  -15.9050 C.ar  557  PHE557     -0.0003
    151  CZ       -10.0870  -43.4780  -14.8070 C.ar  557  PHE557     -0.0000
    152  N         -4.3720  -43.7880  -19.1670 N.am  558  PRO558     -0.2718
    153  CA        -3.0160  -43.9230  -19.6990 C.3   558  PRO558      0.1535
    154  C         -2.0010  -44.1390  -18.5780 C.2   558  PRO558      0.2598
    155  O         -2.2760  -43.7590  -17.4400 O.2   558  PRO558     -0.2715
    156  CB        -2.7630  -42.5500  -20.3480 C.3   558  PRO558      0.0310
    157  CG        -4.0670  -41.7730  -20.2240 C.3   558  PRO558      0.0237
    158  CD        -4.7840  -42.3790  -19.0800 C.3   558  PRO558      0.0939
    159  N         -0.8560  -44.7380  -18.8980 N.am  559  LYS559     -0.1964
    160  CA         0.2960  -44.7160  -18.0020 C.3   559  LYS559      0.1728
    161  C          0.9670  -43.3490  -18.1100 C.2   559  LYS559      0.2616
    162  O          1.5580  -43.0180  -19.1430 O.2   559  LYS559     -0.2715
    163  CB         1.2810  -45.8330  -18.3730 C.3   559  LYS559      0.0311
    164  CG         2.5750  -45.8740  -17.5780 C.3   559  LYS559      0.0038
    165  CD         3.3130  -47.1800  -17.8240 C.3   559  LYS559      0.0206
    166  CE         4.7580  -47.1580  -17.3160 C.3   559  LYS559      0.1093
    167  NZ         5.6440  -46.4550  -18.2680 N.3   559  LYS559     -0.1314
    168  N          0.8800  -42.5550  -17.0460 N.am  560  ILE560     -0.1977
    169  CA         1.3950  -41.1820  -17.0810 C.3   560  ILE560      0.1596
    170  C          2.8430  -40.9980  -16.6160 C.2   560  ILE560      0.2287
    171  O          3.4110  -39.9220  -16.7790 O.2   560  ILE560     -0.2864
    172  CB         0.5200  -40.2250  -16.2500 C.3   560  ILE560      0.0276
    173  CG1        0.4150  -40.7320  -14.8040 C.3   560  ILE560      0.0022
    174  CG2       -0.8510  -40.0240  -16.9240 C.3   560  ILE560      0.0022
    175  CD1       -0.3650  -39.8210  -13.8770 C.3   560  ILE560      0.0001
@<TRIPOS>BOND
     1   125   127   ar
     2   125   124   ar
     3   127   128   ar
     4   121   122    2
     5   121   120    1
     6   136   135    2
     7   124   123    1
     8   124   126   ar
     9   128   130   ar
    10   128   126   ar
    11   123   120    1
    12   133   134    1
    13   156   157    1
    14   156   153    1
    15   120   119    1
    16   157   158    1
    17   130   132   ar
    18   126   129   ar
    19   135   134    1
    20   153   152    1
    21   153   154    1
    22   134   137    1
    23   152   158    1
    24   152   143   am
    25   162   161    2
    26   144   143    2
    27   159   154   am
    28   159   160    1
    29   137   138    1
    30   143   142    1
    31   132   131   ar
    32   129   131   ar
    33   141   142    1
    34   154   155    2
    35   163   160    1
    36   163   164    1
    37   142   145    1
    38   167   166    1
    39   105   106    1
    40   161   160    1
    41   161   168   am
    42   107   106    1
    43   107   108    2
    44   165   164    1
    45   165   166    1
    46   138   140   am
    47   138   139    2
    48   106   109    1
    49   169   168    1
    50   169   170    1
    51   169   172    1
    52   109   110    1
    53   174   172    1
    54   171   170    2
    55   145   146    1
    56   148   146   ar
    57   148   150   ar
    58   115   117   ar
    59   115   112   ar
    60   172   173    1
    61   146   147   ar
    62   110   112   ar
    63   110   111   ar
    64   117   118   ar
    65   150   151   ar
    66   112   114   ar
    67   111   113   ar
    68   147   149   ar
    69   118   116   ar
    70   151   149   ar
    71   173   175    1
    72   114   113   ar
    73   114   116   ar
    74    47    46    1
    75    45    44    2
    76    46    43    1
    77    46    48    1
    78    43    44    1
    79    43    42    1
    80    65    67   ar
    81    65    63   ar
    82    67    66   ar
    83    44    49   am
    84    73    72    1
    85    63    62   ar
    86    66    64   ar
    87    49    50    1
    88    56    54   am
    89    50    51    1
    90    50    53    1
    91    51    52    2
    92    94    93   ar
    93    72    69    1
    94    62    64   ar
    95    62    61    1
    96    91    90    2
    97    92    93    1
    98    92    89    1
    99    93    95   ar
   100    54    53    1
   101    54    55    2
   102    68    69    1
   103    68    59   am
   104    69    70    1
   105    90    89    1
   106    90    96   am
   107    89    88    1
   108    61    58    1
   109    58    59    1
   110    58    57    1
   111    59    60    2
   112    99    98    2
   113    97    96    1
   114    97    98    1
   115    97   100    1
   116    70    71    2
   117   101   100    1
   118   101   102    1
   119     9     7   ar
   120   104   102   ar
   121     8     7   ar
   122   102   103   ar
   123     7     6    1
   124    87    86    1
   125    41    40    1
   126    18    16   ar
   127    16    15    1
   128    16    17   ar
   129    15    14    1
   130    26    24   am
   131     6     5    1
   132    86    83    1
   133    85    84    2
   134    32    31    1
   135    81    79   am
   136    40    39    1
   137    33    31    1
   138     5     2    1
   139    84    83    1
   140    31    28    1
   141    14    11    1
   142    24    23    1
   143    24    25    2
   144    83    82    1
   145    23    20    1
   146    22    21    2
   147    39    38    1
   148    79    80    2
   149    79    78    1
   150     2     3    1
   151     2     1    1
   152    21    20    1
   153    21    27   am
   154     4     3    2
   155    28    27    1
   156    28    29    1
   157    11    10    1
   158    11    12    1
   159    78    75    1
   160    20    19    1
   161    38    35    1
   162    29    30    2
   163    12    13    2
   164    74    75    1
   165    75    76    1
   166    35    34    1
   167    35    36    1
   168    76    77    2
   169    36    37    2
