@<TRIPOS>MOLECULE
tmp/3ppsD00.pdb
 185 181 0 0 0
SMALL
GASTEIGER

@<TRIPOS>ATOM
      1  N         42.1090   32.3330  -62.5750 N.3    43  GLU43      -0.1245
      2  CA        42.0080   30.9600  -63.0470 C.3    43  GLU43       0.1567
      3  C         43.3070   30.2200  -62.7150 C.2    43  GLU43       0.2260
      4  O         44.4070   30.7580  -62.8840 O.2    43  GLU43      -0.2867
      5  CB        41.7210   30.9360  -64.5510 C.3    43  GLU43       0.0388
      6  CG        41.4760   29.5530  -65.1280 C.3    43  GLU43       0.1160
      7  CD        41.0040   29.5940  -66.5770 C.2    43  GLU43       0.3649
      8  OE1       40.4640   30.6380  -66.9940 O.co2  43  GLU43      -0.2457
      9  OE2       41.1640   28.5810  -67.3040 O.co2  43  GLU43      -0.2457
     10  N         45.2970   26.4400  -63.1260 N.3    45  GLU45      -0.1245
     11  CA        45.4480   25.0930  -63.6740 C.3    45  GLU45       0.1567
     12  C         46.3430   24.2500  -62.7840 C.2    45  GLU45       0.2260
     13  O         47.2590   24.7740  -62.1600 O.2    45  GLU45      -0.2867
     14  CB        46.0450   25.1500  -65.0890 C.3    45  GLU45       0.0388
     15  CG        45.0180   25.3720  -66.2100 C.3    45  GLU45       0.1160
     16  CD        44.3630   26.7530  -66.1830 C.2    45  GLU45       0.3649
     17  OE1       45.0730   27.7600  -65.9730 O.co2  45  GLU45      -0.2457
     18  OE2       43.1340   26.8350  -66.3840 O.co2  45  GLU45      -0.2457
     19  N         42.5030   19.9800  -62.1670 N.3    56  ASN56      -0.1225
     20  CA        43.1010   20.4410  -63.4280 C.3    56  ASN56       0.1785
     21  C         42.8610   21.9250  -63.7120 C.2    56  ASN56       0.2597
     22  O         43.5860   22.5410  -64.5010 O.2    56  ASN56      -0.2718
     23  CB        42.6730   19.5770  -64.6230 C.3    56  ASN56       0.1169
     24  CG        41.1850   19.6100  -64.8630 C.2    56  ASN56       0.2627
     25  OD1       40.4090   19.9100  -63.9570 O.2    56  ASN56      -0.2716
     26  ND2       40.7720   19.3000  -66.0940 N.am   56  ASN56      -0.0877
     27  N         41.8530   22.4850  -63.0480 N.am   57  VAL57      -0.1980
     28  CA        41.4990   23.8960  -63.1820 C.3    57  VAL57       0.1595
     29  C         40.4170   24.2960  -62.1730 C.2    57  VAL57       0.2287
     30  O         39.5260   23.5070  -61.8450 O.2    57  VAL57      -0.2864
     31  CB        40.9670   24.2230  -64.5820 C.3    57  VAL57       0.0276
     32  CG1       39.7440   23.3610  -64.8960 C.3    57  VAL57       0.0022
     33  CG2       40.6200   25.7010  -64.6800 C.3    57  VAL57       0.0022
     34  N         38.3630   28.2480  -60.7620 N.3    59  MET59      -0.1245
     35  CA        38.1950   29.6710  -60.9920 C.3    59  MET59       0.1570
     36  C         37.6820   30.2870  -59.7090 C.2    59  MET59       0.2261
     37  O         36.5970   29.9470  -59.2440 O.2    59  MET59      -0.2867
     38  CB        37.2440   29.8820  -62.1550 C.3    59  MET59       0.0387
     39  CG        37.6080   28.9970  -63.3310 C.3    59  MET59       0.0595
     40  SD        36.6400   29.3000  -64.7960 S.3    59  MET59      -0.1393
     41  CE        37.3100   28.1320  -65.9510 C.3    59  MET59       0.0692
     42  N         39.9360   32.7350  -70.4650 N.3    88  THR88      -0.1203
     43  CA        39.1570   32.5660  -71.6840 C.3    88  THR88       0.1994
     44  C         37.6740   32.7710  -71.4490 C.2    88  THR88       0.2617
     45  O         36.9480   33.1940  -72.3530 O.2    88  THR88      -0.2717
     46  CB        39.3890   31.1690  -72.2960 C.3    88  THR88       0.1784
     47  OG1       38.8000   31.1030  -73.6010 O.3    88  THR88      -0.2211
     48  CG2       38.8040   30.0950  -71.3990 C.3    88  THR88       0.0376
     49  N         37.2240   32.4890  -70.2310 N.am   89  ASN89      -0.1974
     50  CA        35.7940   32.4960  -69.9440 C.3    89  ASN89       0.1688
     51  C         35.1780   33.8810  -69.6970 C.2    89  ASN89       0.2292
     52  O         35.7640   34.7180  -69.0030 O.2    89  ASN89      -0.2864
     53  CB        35.4970   31.5830  -68.7490 C.3    89  ASN89       0.1181
     54  CG        35.3230   30.1170  -69.1430 C.2    89  ASN89       0.2629
     55  OD1       34.9390   29.2920  -68.3110 O.2    89  ASN89      -0.2716
     56  ND2       35.5950   29.7850  -70.3990 N.am   89  ASN89      -0.0877
     57  N         27.2410   32.0960  -66.1980 N.3   142  PHE142     -0.1241
     58  CA        27.9060   31.8250  -67.4660 C.3   142  PHE142      0.1605
     59  C         28.1140   30.3170  -67.6140 C.2   142  PHE142      0.2264
     60  O         29.1560   29.7690  -67.2370 O.2   142  PHE142     -0.2867
     61  CB        29.2430   32.5810  -67.5430 C.3   142  PHE142      0.0534
     62  CG        29.9770   32.4060  -68.8520 C.ar  142  PHE142     -0.0203
     63  CD1       29.7410   33.2630  -69.9180 C.ar  142  PHE142     -0.0042
     64  CD2       30.9150   31.4020  -69.0090 C.ar  142  PHE142     -0.0042
     65  CE1       30.4210   33.1110  -71.1160 C.ar  142  PHE142     -0.0003
     66  CE2       31.6000   31.2410  -70.2100 C.ar  142  PHE142     -0.0003
     67  CZ        31.3540   32.0990  -71.2630 C.ar  142  PHE142     -0.0000
     68  N         36.1590   19.0350  -63.8270 N.3   180  SER180     -0.1217
     69  CA        35.9000   20.4520  -64.0010 C.3   180  SER180      0.1889
     70  C         34.4620   20.6610  -64.4610 C.2   180  SER180      0.2288
     71  O         33.7980   19.7100  -64.8970 O.2   180  SER180     -0.2866
     72  CB        36.8890   21.0710  -64.9900 C.3   180  SER180      0.2089
     73  OG        36.7160   20.5170  -66.2820 O.3   180  SER180     -0.2183
     74  N         33.2980   22.0670  -67.0000 N.3   182  ASP182     -0.1225
     75  CA        33.0970   21.8360  -68.4320 C.3   182  ASP182      0.1805
     76  C         33.1650   20.3560  -68.7910 C.2   182  ASP182      0.2597
     77  O         32.5660   19.9200  -69.7700 O.2   182  ASP182     -0.2718
     78  CB        34.0960   22.6440  -69.2600 C.3   182  ASP182      0.1424
     79  CG        34.0670   24.1200  -68.9140 C.2   182  ASP182      0.3668
     80  OD1       33.2700   24.8650  -69.5310 O.co2 182  ASP182     -0.2456
     81  OD2       34.8320   24.5290  -68.0110 O.co2 182  ASP182     -0.2456
     82  N         33.9000   19.5890  -67.9960 N.am  183  GLU183     -0.1979
     83  CA        33.9870   18.1540  -68.1950 C.3   183  GLU183      0.1602
     84  C         32.7090   17.5170  -67.6810 C.2   183  GLU183      0.2287
     85  O         32.1960   16.5640  -68.2700 O.2   183  GLU183     -0.2864
     86  CB        35.2000   17.5700  -67.4620 C.3   183  GLU183      0.0415
     87  CG        36.5570   17.9810  -68.0260 C.3   183  GLU183      0.1163
     88  CD        37.6950   17.6730  -67.0710 C.2   183  GLU183      0.3649
     89  OE1       37.4110   17.3670  -65.8900 O.co2 183  GLU183     -0.2457
     90  OE2       38.8710   17.7460  -67.4950 O.co2 183  GLU183     -0.2457
     91  N         29.9980   18.1650  -70.1730 N.3   186  HIS186     -0.1241
     92  CA        30.2050   17.2280  -71.2730 C.3   186  HIS186      0.1621
     93  C         29.9000   15.7960  -70.8510 C.2   186  HIS186      0.2264
     94  O         29.4450   14.9830  -71.6520 O.2   186  HIS186     -0.2867
     95  CB        31.6470   17.3220  -71.7790 C.3   186  HIS186      0.0745
     96  CG        31.8570   16.6960  -73.1170 C.ar  186  HIS186      0.0817
     97  ND1       31.1820   17.1150  -74.2490 N.ar  186  HIS186     -0.2268
     98  CD2       32.6680   15.6890  -73.5200 C.ar  186  HIS186      0.1154
     99  CE1       31.5670   16.3910  -75.2800 C.ar  186  HIS186      0.1986
    100  NE2       32.4720   15.5180  -74.8690 N.ar  186  HIS186     -0.2212
    101  N         24.7320   35.1110  -75.9780 N.3   384  TRP384     -0.1241
    102  CA        25.5980   35.9410  -75.1300 C.3   384  TRP384      0.1605
    103  C         25.8300   37.3300  -75.7210 C.2   384  TRP384      0.2264
    104  O         26.2540   38.2500  -75.0260 O.2   384  TRP384     -0.2867
    105  CB        26.9410   35.2600  -74.8730 C.3   384  TRP384      0.0550
    106  CG        26.8760   34.0930  -73.9290 C.ar  384  TRP384      0.0003
    107  CD1       25.9970   33.9150  -72.9070 C.ar  384  TRP384      0.0946
    108  CD2       27.7510   32.9530  -73.9060 C.ar  384  TRP384      0.0152
    109  NE1       26.2550   32.7310  -72.2540 N.ar  384  TRP384     -0.2442
    110  CE2       27.3250   32.1200  -72.8510 C.ar  384  TRP384      0.0810
    111  CE3       28.8570   32.5570  -74.6800 C.ar  384  TRP384      0.0012
    112  CZ2       27.9640   30.9120  -72.5440 C.ar  384  TRP384      0.0191
    113  CZ3       29.4800   31.3530  -74.3820 C.ar  384  TRP384      0.0001
    114  CH2       29.0390   30.5510  -73.3200 C.ar  384  TRP384      0.0015
    115  N         32.3520   42.4470  -75.4240 N.3   548  TRP548     -0.1241
    116  CA        32.1920   41.0010  -75.4930 C.3   548  TRP548      0.1605
    117  C         32.0040   40.5360  -76.9200 C.2   548  TRP548      0.2264
    118  O         32.5580   39.5260  -77.3260 O.2   548  TRP548     -0.2867
    119  CB        31.0130   40.5210  -74.6480 C.3   548  TRP548      0.0550
    120  CG        30.6970   39.0850  -74.9030 C.ar  548  TRP548      0.0003
    121  CD1       29.6570   38.5880  -75.6350 C.ar  548  TRP548      0.0946
    122  CD2       31.4540   37.9520  -74.4630 C.ar  548  TRP548      0.0152
    123  NE1       29.7080   37.2130  -75.6620 N.ar  548  TRP548     -0.2442
    124  CE2       30.8010   36.7980  -74.9470 C.ar  548  TRP548      0.0810
    125  CE3       32.6140   37.7990  -73.6930 C.ar  548  TRP548      0.0012
    126  CZ2       31.2740   35.5100  -74.6900 C.ar  548  TRP548      0.0191
    127  CZ3       33.0780   36.5170  -73.4350 C.ar  548  TRP548      0.0001
    128  CH2       32.4150   35.3910  -73.9380 C.ar  548  TRP548      0.0015
    129  N         34.6530   37.9390  -78.3930 N.3   552  TRP552     -0.1241
    130  CA        34.1240   36.6280  -78.7350 C.3   552  TRP552      0.1605
    131  C         34.9100   35.9060  -79.8270 C.2   552  TRP552      0.2264
    132  O         35.4160   34.8140  -79.5990 O.2   552  TRP552     -0.2867
    133  CB        32.6320   36.7420  -79.1020 C.3   552  TRP552      0.0550
    134  CG        31.9410   35.4270  -79.2740 C.ar  552  TRP552      0.0003
    135  CD1       31.0440   35.0930  -80.2460 C.ar  552  TRP552      0.0946
    136  CD2       32.0980   34.2640  -78.4570 C.ar  552  TRP552      0.0152
    137  NE1       30.6260   33.7940  -80.0830 N.ar  552  TRP552     -0.2442
    138  CE2       31.2610   33.2630  -78.9900 C.ar  552  TRP552      0.0810
    139  CE3       32.8660   33.9730  -77.3230 C.ar  552  TRP552      0.0012
    140  CZ2       31.1690   31.9920  -78.4300 C.ar  552  TRP552      0.0191
    141  CZ3       32.7750   32.7110  -76.7700 C.ar  552  TRP552      0.0001
    142  CH2       31.9350   31.7350  -77.3240 C.ar  552  TRP552      0.0015
    143  N         37.9060   34.0170  -79.0150 N.3   555  ASN555     -0.1240
    144  CA        37.7850   32.8590  -78.1340 C.3   555  ASN555      0.1653
    145  C         38.0460   31.5530  -78.8810 C.2   555  ASN555      0.2266
    146  O         37.5080   31.3360  -79.9750 O.2   555  ASN555     -0.2867
    147  CB        36.4070   32.8120  -77.4710 C.3   555  ASN555      0.1155
    148  CG        36.4170   32.0340  -76.1590 C.2   555  ASN555      0.2627
    149  OD1       37.1780   32.3580  -75.2450 O.2   555  ASN555     -0.2716
    150  ND2       35.5670   31.0060  -76.0610 N.am  555  ASN555     -0.0877
    151  N         37.3820   28.5500  -77.6840 N.3   557  PHE557     -0.1228
    152  CA        36.3720   27.5580  -77.3300 C.3   557  PHE557      0.1721
    153  C         34.9700   27.9540  -77.7900 C.2   557  PHE557      0.2437
    154  O         34.6090   29.1370  -77.7710 O.2   557  PHE557     -0.2733
    155  CB        36.3660   27.2920  -75.8170 C.3   557  PHE557      0.0547
    156  CG        37.6940   26.8500  -75.2700 C.ar  557  PHE557     -0.0202
    157  CD1       38.3000   27.5520  -74.2410 C.ar  557  PHE557     -0.0042
    158  CD2       38.3440   25.7430  -75.7920 C.ar  557  PHE557     -0.0042
    159  CE1       39.5290   27.1500  -73.7290 C.ar  557  PHE557     -0.0003
    160  CE2       39.5760   25.3440  -75.2880 C.ar  557  PHE557     -0.0003
    161  CZ        40.1640   26.0430  -74.2510 C.ar  557  PHE557     -0.0000
    162  N         34.1800   26.9520  -78.2100 N.am  558  PRO558     -0.2718
    163  CA        32.7720   27.1080  -78.5810 C.3   558  PRO558      0.1535
    164  C         31.8660   27.1380  -77.3570 C.2   558  PRO558      0.2598
    165  O         32.3150   26.8670  -76.2440 O.2   558  PRO558     -0.2715
    166  CB        32.4740   25.8330  -79.3850 C.3   558  PRO558      0.0310
    167  CG        33.8020   25.1660  -79.6130 C.3   558  PRO558      0.0237
    168  CD        34.6710   25.5960  -78.4930 C.3   558  PRO558      0.0939
    169  N         30.5950   27.4580  -77.5820 N.am  559  LYS559     -0.1964
    170  CA        29.5700   27.3860  -76.5520 C.3   559  LYS559      0.1728
    171  C         28.8710   26.0240  -76.6380 C.2   559  LYS559      0.2616
    172  O         28.1300   25.7400  -77.5930 O.2   559  LYS559     -0.2715
    173  CB        28.5760   28.5350  -76.7240 C.3   559  LYS559      0.0311
    174  CG        27.2160   28.3210  -76.0740 C.3   559  LYS559      0.0038
    175  CD        26.4290   29.6280  -76.0980 C.3   559  LYS559      0.0206
    176  CE        24.9380   29.4020  -75.9840 C.3   559  LYS559      0.1093
    177  NZ        24.4480   28.6350  -77.1650 N.3   559  LYS559     -0.1314
    178  N         29.1190   25.1810  -75.6370 N.am  560  ILE560     -0.1977
    179  CA        28.6840   23.7850  -75.6730 C.3   560  ILE560      0.1596
    180  C         27.2510   23.5570  -75.1820 C.2   560  ILE560      0.2287
    181  O         26.5940   22.5840  -75.5790 O.2   560  ILE560     -0.2864
    182  CB        29.6280   22.9020  -74.8550 C.3   560  ILE560      0.0276
    183  CG1       29.7880   23.4850  -73.4510 C.3   560  ILE560      0.0022
    184  CG2       30.9540   22.8030  -75.5480 C.3   560  ILE560      0.0022
    185  CD1       30.6820   22.6720  -72.5550 C.3   560  ILE560      0.0001
@<TRIPOS>BOND
     1   135   137   ar
     2   135   134   ar
     3   137   138   ar
     4   146   145    2
     5   131   132    2
     6   131   130    1
     7   167   166    1
     8   167   168    1
     9   166   163    1
    10   134   133    1
    11   134   136   ar
    12   133   130    1
    13   143   144    1
    14   138   136   ar
    15   138   140   ar
    16   145   144    1
    17   130   129    1
    18   163   162    1
    19   163   164    1
    20   168   162    1
    21   136   139   ar
    22   140   142   ar
    23   162   153   am
    24   144   147    1
    25   153   154    2
    26   153   152    1
    27   151   152    1
    28   172   171    2
    29   169   164   am
    30   169   170    1
    31   147   148    1
    32   164   165    2
    33   152   155    1
    34   118   117    2
    35   142   141   ar
    36   139   141   ar
    37   177   176    1
    38   117   116    1
    39   173   170    1
    40   173   174    1
    41   171   170    1
    42   171   178   am
    43   148   150   am
    44   148   149    2
    45   175   174    1
    46   175   176    1
    47   101   102    1
    48   155   156    1
    49   158   160   ar
    50   158   156   ar
    51   103   102    1
    52   103   104    2
    53   179   178    1
    54   179   180    1
    55   179   182    1
    56   123   121   ar
    57   123   124   ar
    58   121   120   ar
    59   181   180    2
    60   184   182    1
    61   116   115    1
    62   116   119    1
    63   160   161   ar
    64    99   100   ar
    65    99    97   ar
    66   156   157   ar
    67   102   105    1
    68   124   126   ar
    69   124   122   ar
    70   120   119    1
    71   120   122   ar
    72   105   106    1
    73   100    98   ar
    74   182   183    1
    75   126   128   ar
    76   111   113   ar
    77   111   108   ar
    78   122   125   ar
    79   113   114   ar
    80   161   159   ar
    81    97    96   ar
    82   157   159   ar
    83   128   127   ar
    84   106   108   ar
    85   106   107   ar
    86   108   110   ar
    87   125   127   ar
    88    47    46    1
    89    98    96   ar
    90   183   185    1
    91   114   112   ar
    92    96    95    1
    93   107   109   ar
    94   110   112   ar
    95   110   109   ar
    96    45    44    2
    97    46    43    1
    98    46    48    1
    99    95    92    1
   100    43    44    1
   101    43    42    1
   102    94    93    2
   103    44    49   am
   104    92    93    1
   105    92    91    1
   106    67    65   ar
   107    67    66   ar
   108    65    63   ar
   109    56    54   am
   110    49    50    1
   111    66    64   ar
   112    50    51    1
   113    50    53    1
   114    63    62   ar
   115    77    76    2
   116    51    52    2
   117    80    79   ar
   118    78    79    1
   119    78    75    1
   120    54    53    1
   121    54    55    2
   122    64    62   ar
   123    79    81   ar
   124    62    61    1
   125    76    75    1
   126    76    82   am
   127    75    74    1
   128    85    84    2
   129    83    82    1
   130    83    84    1
   131    83    86    1
   132    87    86    1
   133    87    88    1
   134    59    58    1
   135    59    60    2
   136    61    58    1
   137    90    88   ar
   138    58    57    1
   139     9     7   ar
   140    88    89   ar
   141     8     7   ar
   142     7     6    1
   143    18    16   ar
   144    73    72    1
   145    15    16    1
   146    15    14    1
   147    16    17   ar
   148    26    24   am
   149    41    40    1
   150     6     5    1
   151    14    11    1
   152    72    69    1
   153    71    70    2
   154    32    31    1
   155    24    23    1
   156    24    25    2
   157    40    39    1
   158    33    31    1
   159    23    20    1
   160    31    28    1
   161     5     2    1
   162    22    21    2
   163    70    69    1
   164    69    68    1
   165    21    20    1
   166    21    27   am
   167    11    10    1
   168    11    12    1
   169    20    19    1
   170    39    38    1
   171    28    27    1
   172    28    29    1
   173     2     3    1
   174     2     1    1
   175     4     3    2
   176    12    13    2
   177    29    30    2
   178    38    35    1
   179    35    34    1
   180    35    36    1
   181    36    37    2
