@<TRIPOS>MOLECULE
tmp/3ppsA01.pdb
 192 187 0 0 0
SMALL
GASTEIGER

@<TRIPOS>ATOM
      1  N         19.1270   19.1530   22.3730 N.3     3  PRO3       -0.2116
      2  CA        18.0080   18.9610   23.2950 C.3     3  PRO3        0.1372
      3  C         18.0080   20.0290   24.3800 C.2     3  PRO3        0.2244
      4  O         19.0600   20.6030   24.6780 O.2     3  PRO3       -0.2868
      5  CB        18.3120   17.6010   23.9440 C.3     3  PRO3        0.0268
      6  CG        19.5130   17.0580   23.2370 C.3     3  PRO3        0.0207
      7  CD        20.2280   18.2290   22.6630 C.3     3  PRO3        0.0892
      8  N         15.6250   16.6540   27.0070 N.3     6  ASN6       -0.1225
      9  CA        15.8410   15.2410   26.7340 C.3     6  ASN6        0.1785
     10  C         16.6650   14.5930   27.8360 C.2     6  ASN6        0.2598
     11  O         17.8780   14.7060   27.8550 O.2     6  ASN6       -0.2718
     12  CB        16.5180   15.0570   25.3770 C.3     6  ASN6        0.1169
     13  CG        16.6700   13.6100   25.0080 C.2     6  ASN6        0.2627
     14  OD1       17.2280   12.8260   25.7680 O.2     6  ASN6       -0.2716
     15  ND2       16.1600   13.2390   23.8470 N.am    6  ASN6       -0.0877
     16  N         15.9900   13.9160   28.7540 N.am    7  THR7       -0.1939
     17  CA        16.6530   13.3370   29.9090 C.3     7  THR7        0.2013
     18  C         16.3530   11.8460   30.0140 C.2     7  THR7        0.2484
     19  O         15.4190   11.3560   29.3930 O.2     7  THR7       -0.2729
     20  CB        16.2290   14.0570   31.1970 C.3     7  THR7        0.1807
     21  OG1       14.7960   14.1630   31.2430 O.3     7  THR7       -0.2208
     22  CG2       16.8310   15.4420   31.2280 C.3     7  THR7        0.0379
     23  N         17.1620   11.1180   30.7940 N.am    8  PRO8       -0.2726
     24  CA        16.9950    9.6830   31.0310 C.3     8  PRO8        0.1402
     25  C         15.5630    9.2760   31.3230 C.2     8  PRO8        0.2269
     26  O         15.1280    8.1980   30.9300 O.2     8  PRO8       -0.2865
     27  CB        17.8370    9.4620   32.2740 C.3     8  PRO8        0.0296
     28  CG        18.9350   10.4370   32.1150 C.3     8  PRO8        0.0237
     29  CD        18.3330   11.6520   31.5050 C.3     8  PRO8        0.0939
     30  N         12.6310   10.8700   27.6440 N.3    11  ARG11      -0.1245
     31  CA        13.1980   10.8100   26.3010 C.3    11  ARG11       0.1563
     32  C         12.2450   11.3040   25.2110 C.2    11  ARG11       0.2260
     33  O         12.6780   11.6210   24.1070 O.2    11  ARG11      -0.2867
     34  CB        13.6710    9.3850   25.9850 C.3    11  ARG11       0.0307
     35  CG        14.7930    8.8680   26.8930 C.3    11  ARG11       0.0489
     36  CD        16.0070    9.7810   26.8660 C.3    11  ARG11       0.2205
     37  NE        17.1960    9.1360   27.4170 N.pl3  11  ARG11      -0.0865
     38  CZ        18.3930    9.7120   27.5060 C.cat  11  ARG11       0.5346
     39  NH1       18.5630   10.9570   27.0910 N.pl3  11  ARG11       0.1354
     40  NH2       19.4170    9.0450   28.0190 N.pl3  11  ARG11       0.1354
     41  N         39.8980    2.6460    7.7570 N.3    64  LYS64      -0.1245
     42  CA        39.3740    1.5610    8.5810 C.3    64  LYS64       0.1561
     43  C         38.4600    0.6620    7.7670 C.2    64  LYS64       0.2260
     44  O         37.9800    1.0590    6.7070 O.2    64  LYS64      -0.2867
     45  CB        38.6470    2.1070    9.8110 C.3    64  LYS64       0.0271
     46  CG        39.5760    2.4210   10.9780 C.3    64  LYS64       0.0035
     47  CD        38.7900    2.6980   12.2480 C.3    64  LYS64       0.0206
     48  CE        39.7200    2.8460   13.4470 C.3    64  LYS64       0.1093
     49  NZ        38.9760    2.9960   14.7310 N.3    64  LYS64      -0.1314
     50  N         33.4140    6.0990    9.4680 N.3    68  PRO68      -0.2102
     51  CA        32.9480    6.7440   10.6990 C.3    68  PRO68       0.1504
     52  C         31.4330    6.9850   10.6680 C.2    68  PRO68       0.2576
     53  O         30.7670    6.6900    9.6710 O.2    68  PRO68      -0.2718
     54  CB        33.6860    8.0880   10.6990 C.3    68  PRO68       0.0282
     55  CG        34.8010    7.9350    9.7170 C.3    68  PRO68       0.0208
     56  CD        34.3030    6.9710    8.6860 C.3    68  PRO68       0.0893
     57  N         30.9080    7.5170   11.7660 N.am   69  THR69      -0.1953
     58  CA        29.4920    7.8110   11.8990 C.3    69  THR69       0.1897
     59  C         29.2280    9.2590   11.5500 C.2    69  THR69       0.2313
     60  O         29.8940   10.1630   12.0460 O.2    69  THR69      -0.2863
     61  CB        29.0070    7.5910   13.3440 C.3    69  THR69       0.1794
     62  OG1       29.1120    6.2040   13.6820 O.3    69  THR69      -0.2208
     63  CG2       27.5900    8.0160   13.4950 C.3    69  THR69       0.0378
     64  N         27.2490   12.0410   12.4300 N.3    71  ARG71      -0.1245
     65  CA        26.4390   12.3860   13.5870 C.3    71  ARG71       0.1563
     66  C         25.9640   13.8180   13.4850 C.2    71  ARG71       0.2260
     67  O         26.6270   14.6530   12.8810 O.2    71  ARG71      -0.2867
     68  CB        27.2600   12.1960   14.8680 C.3    71  ARG71       0.0307
     69  CG        26.4420   12.2440   16.1350 C.3    71  ARG71       0.0489
     70  CD        26.6760   11.0090   16.9680 C.3    71  ARG71       0.2205
     71  NE        26.0260   11.1160   18.2710 N.pl3  71  ARG71      -0.0865
     72  CZ        26.3190   10.3450   19.3090 C.cat  71  ARG71       0.5346
     73  NH1       27.2630    9.4160   19.1950 N.pl3  71  ARG71       0.1354
     74  NH2       25.6820   10.5130   20.4610 N.pl3  71  ARG71       0.1354
     75  N         23.7310    8.6570   12.4690 N.3   155  GLN155     -0.1245
     76  CA        22.9870    8.7500   13.7220 C.3   155  GLN155      0.1566
     77  C         22.5980   10.1790   14.0240 C.2   155  GLN155      0.2260
     78  O         23.4020   10.9600   14.5210 O.2   155  GLN155     -0.2867
     79  CB        23.7610    8.1760   14.9080 C.3   155  GLN155      0.0367
     80  CG        23.0530    8.4050   16.2430 C.3   155  GLN155      0.0905
     81  CD        23.8730    7.9650   17.4400 C.2   155  GLN155      0.2608
     82  OE1       24.8370    7.2190   17.3050 O.2   155  GLN155     -0.2717
     83  NE2       23.4880    8.4250   18.6210 N.am  155  GLN155     -0.0878
     84  N         15.3980    5.7900   28.8520 N.3   164  TYR164     -0.1227
     85  CA        16.5800    4.9700   29.0430 C.3   164  TYR164      0.1736
     86  C         17.7010    5.8510   29.5550 C.2   164  TYR164      0.2595
     87  O         17.5760    7.0710   29.5640 O.2   164  TYR164     -0.2718
     88  CB        16.9880    4.2980   27.7400 C.3   164  TYR164      0.0548
     89  CG        17.2120    5.2640   26.6000 C.ar  164  TYR164     -0.0200
     90  CD1       18.4550    5.8370   26.3830 C.ar  164  TYR164     -0.0009
     91  CD2       16.1810    5.5920   25.7310 C.ar  164  TYR164     -0.0009
     92  CE1       18.6610    6.7070   25.3370 C.ar  164  TYR164      0.0417
     93  CE2       16.3810    6.4670   24.6870 C.ar  164  TYR164      0.0417
     94  CZ        17.6210    7.0190   24.4950 C.ar  164  TYR164      0.1957
     95  OH        17.8350    7.8860   23.4560 O.3   164  TYR164     -0.2866
     96  N         18.8000    5.2300   29.9650 N.am  165  ASP165     -0.1960
     97  CA        19.8750    5.9460   30.6480 C.3   165  ASP165      0.1840
     98  C         21.1470    6.0980   29.8020 C.2   165  ASP165      0.2622
     99  O         21.6360    7.2130   29.6040 O.2   165  ASP165     -0.2715
    100  CB        20.2040    5.2540   31.9760 C.3   165  ASP165      0.1450
    101  CG        18.9760    5.0490   32.8510 C.2   165  ASP165      0.3671
    102  OD1       18.2270    6.0260   33.0640 O.co2 165  ASP165     -0.2456
    103  OD2       18.7610    3.9150   33.3310 O.co2 165  ASP165     -0.2456
    104  N         21.6850    4.9760   29.3250 N.am  166  ILE166     -0.1963
    105  CA        22.8700    4.9840   28.4620 C.3   166  ILE166      0.1727
    106  C         22.4480    4.7240   27.0170 C.2   166  ILE166      0.2616
    107  O         21.4610    4.0210   26.7710 O.2   166  ILE166     -0.2715
    108  CB        23.9230    3.9070   28.8900 C.3   166  ILE166      0.0290
    109  CG1       24.4130    4.1300   30.3260 C.3   166  ILE166      0.0022
    110  CG2       25.1050    3.8860   27.9380 C.3   166  ILE166      0.0023
    111  CD1       23.6590    3.3250   31.3650 C.3   166  ILE166      0.0001
    112  N         23.1830    5.3140   26.0710 N.am  167  ASP167     -0.1957
    113  CA        23.0010    5.0410   24.6380 C.3   167  ASP167      0.1840
    114  C         24.2870    4.4510   24.0790 C.2   167  ASP167      0.2622
    115  O         25.2160    5.1870   23.7550 O.2   167  ASP167     -0.2715
    116  CB        22.6260    6.3210   23.8640 C.3   167  ASP167      0.1450
    117  CG        22.5040    6.0920   22.3490 C.2   167  ASP167      0.3671
    118  OD1       23.2650    5.2720   21.7880 O.co2 167  ASP167     -0.2456
    119  OD2       21.6530    6.7440   21.7080 O.co2 167  ASP167     -0.2456
    120  N         24.3320    3.1270   23.9600 N.am  168  LEU168     -0.1963
    121  CA        25.5540    2.4440   23.5580 C.3   168  LEU168      0.1728
    122  C         26.1630    2.9730   22.2560 C.2   168  LEU168      0.2617
    123  O         27.3880    3.0880   22.1450 O.2   168  LEU168     -0.2715
    124  CB        25.3270    0.9360   23.4820 C.3   168  LEU168      0.0311
    125  CG        25.1630    0.2440   24.8380 C.3   168  LEU168      0.0022
    126  CD1       24.8040   -1.2250   24.6670 C.3   168  LEU168      0.0001
    127  CD2       26.4200    0.3810   25.6430 C.3   168  LEU168      0.0001
    128  N         25.3170    3.3030   21.2830 N.am  169  GLY169     -0.1940
    129  CA        25.7990    3.7900   20.0060 C.3   169  GLY169      0.2014
    130  C         25.4990    2.8150   18.8940 C.2   169  GLY169      0.2639
    131  O         24.9410    1.7470   19.1340 O.2   169  GLY169     -0.2714
    132  N         25.8730    3.1780   17.6750 N.am  170  VAL170     -0.1963
    133  CA        25.5790    2.3450   16.5180 C.3   170  VAL170      0.1727
    134  C         26.2770    0.9960   16.6300 C.2   170  VAL170      0.2616
    135  O         27.3350    0.8840   17.2450 O.2   170  VAL170     -0.2715
    136  CB        25.9840    3.0310   15.2020 C.3   170  VAL170      0.0290
    137  CG1       25.1400    4.2770   14.9770 C.3   170  VAL170      0.0023
    138  CG2       27.4820    3.3670   15.2130 C.3   170  VAL170      0.0023
    139  N         25.6700   -0.0220   16.0310 N.am  171  PHE171     -0.1974
    140  CA        26.1530   -1.3910   16.1450 C.3   171  PHE171      0.1639
    141  C         25.9530   -2.0900   14.8040 C.2   171  PHE171      0.2290
    142  O         25.0710   -2.9420   14.6630 O.2   171  PHE171     -0.2864
    143  CB        25.4100   -2.1120   17.2740 C.3   171  PHE171      0.0560
    144  CG        25.9630   -3.4610   17.6080 C.ar  171  PHE171     -0.0200
    145  CD1       25.1230   -4.5570   17.7400 C.ar  171  PHE171     -0.0042
    146  CD2       27.3270   -3.6450   17.7880 C.ar  171  PHE171     -0.0042
    147  CE1       25.6360   -5.8110   18.0490 C.ar  171  PHE171     -0.0003
    148  CE2       27.8390   -4.9010   18.0980 C.ar  171  PHE171     -0.0003
    149  CZ        26.9880   -5.9810   18.2330 C.ar  171  PHE171     -0.0000
    150  N         30.4420   -4.4440   14.4840 N.3   202  ASN202     -0.1240
    151  CA        30.8730   -3.0550   14.6210 C.3   202  ASN202      0.1653
    152  C         32.3120   -2.8810   14.1470 C.2   202  ASN202      0.2266
    153  O         33.1190   -2.2290   14.8050 O.2   202  ASN202     -0.2867
    154  CB        30.6980   -2.5720   16.0680 C.3   202  ASN202      0.1155
    155  CG        30.8370   -1.0560   16.2170 C.2   202  ASN202      0.2627
    156  OD1       31.0860   -0.3380   15.2500 O.2   202  ASN202     -0.2716
    157  ND2       30.6810   -0.5720   17.4490 N.am  202  ASN202     -0.0877
    158  N         34.2230   -8.7100   19.9050 N.3   216  TYR216     -0.1227
    159  CA        33.8280   -7.3410   20.2040 C.3   216  TYR216      0.1736
    160  C         33.0560   -7.2430   21.5150 C.2   216  TYR216      0.2595
    161  O         32.0640   -7.9360   21.7080 O.2   216  TYR216     -0.2718
    162  CB        32.9910   -6.7560   19.0690 C.3   216  TYR216      0.0548
    163  CG        32.8050   -5.2640   19.1920 C.ar  216  TYR216     -0.0200
    164  CD1       33.7300   -4.3760   18.6490 C.ar  216  TYR216     -0.0009
    165  CD2       31.7140   -4.7420   19.8520 C.ar  216  TYR216     -0.0009
    166  CE1       33.5550   -3.0080   18.7660 C.ar  216  TYR216      0.0417
    167  CE2       31.5370   -3.3840   19.9730 C.ar  216  TYR216      0.0417
    168  CZ        32.4560   -2.5240   19.4310 C.ar  216  TYR216      0.1957
    169  OH        32.2710   -1.1710   19.5640 O.3   216  TYR216     -0.2866
    170  N         33.5040   -6.3600   22.4000 N.am  217  ASN217     -0.1960
    171  CA        32.8850   -6.1880   23.7080 C.3   217  ASN217      0.1819
    172  C         31.8970   -5.0200   23.7660 C.2   217  ASN217      0.2621
    173  O         32.1520   -3.9440   23.2120 O.2   217  ASN217     -0.2715
    174  CB        33.9560   -5.9950   24.7860 C.3   217  ASN217      0.1195
    175  CG        35.1020   -6.9880   24.6680 C.2   217  ASN217      0.2630
    176  OD1       34.9100   -8.2000   24.7920 O.2   217  ASN217     -0.2716
    177  ND2       36.3180   -6.4560   24.4590 N.am  217  ASN217     -0.0877
    178  N         30.7720   -5.2530   24.4450 N.am  218  VAL218     -0.1977
    179  CA        29.8230   -4.2020   24.7970 C.3   218  VAL218      0.1596
    180  C         29.6080   -4.2670   26.3110 C.2   218  VAL218      0.2287
    181  O         29.3530   -5.3420   26.8520 O.2   218  VAL218     -0.2864
    182  CB        28.4710   -4.3790   24.0780 C.3   218  VAL218      0.0276
    183  CG1       27.6370   -3.1530   24.2640 C.3   218  VAL218      0.0022
    184  CG2       28.6760   -4.6360   22.6080 C.3   218  VAL218      0.0022
    185  N         20.4030    0.3180   21.9940 N.3   228  LEU228     -0.1245
    186  CA        21.2840   -0.2730   20.9980 C.3   228  LEU228      0.1561
    187  C         20.7650   -0.0130   19.5890 C.2   228  LEU228      0.2260
    188  O         19.5860   -0.2280   19.3060 O.2   228  LEU228     -0.2867
    189  CB        21.4190   -1.7730   21.2540 C.3   228  LEU228      0.0270
    190  CG        22.5240   -2.5280   20.5170 C.3   228  LEU228      0.0019
    191  CD1       23.8900   -1.8220   20.6620 C.3   228  LEU228      0.0001
    192  CD2       22.5820   -3.9570   21.0220 C.3   228  LEU228      0.0001
@<TRIPOS>BOND
     1    44    43    2
     2    41    42    1
     3    43    42    1
     4    42    45    1
     5    56    50    1
     6    56    55    1
     7    50    51    1
     8    53    52    2
     9    55    54    1
    10    45    46    1
    11    52    51    1
    12    52    57   am
    13    51    54    1
    14    46    47    1
    15    59    58    1
    16    59    60    2
    17    57    58    1
    18    58    61    1
    19    47    48    1
    20    64    65    1
    21    75    76    1
    22    67    66    2
    23    61    63    1
    24    61    62    1
    25    48    49    1
    26    66    65    1
    27    65    68    1
    28    76    77    1
    29    76    79    1
    30    77    78    2
    31   152   151    1
    32   152   153    2
    33   150   151    1
    34   151   154    1
    35   142   141    2
    36   141   140    1
    37    68    69    1
    38    79    80    1
    39   137   136    1
    40   136   138    1
    41   136   133    1
    42   156   155    2
    43   139   140    1
    44   139   134   am
    45   154   155    1
    46    69    70    1
    47   140   143    1
    48   155   157   am
    49    80    81    1
    50   133   134    1
    51   133   132    1
    52   134   135    2
    53    70    71    1
    54   143   144    1
    55    82    81    2
    56    81    83   am
    57   144   145   ar
    58   144   146   ar
    59   132   130   am
    60   145   147   ar
    61   146   148   ar
    62   147   149   ar
    63   148   149   ar
    64    71    72    2
    65   164   166   ar
    66   164   163   ar
    67   166   168   ar
    68   130   131    2
    69   130   129    1
    70   162   163    1
    71   162   159    1
    72   163   165   ar
    73    73    72    1
    74   188   187    2
    75    72    74    1
    76   168   169    1
    77   168   167   ar
    78   187   186    1
    79   165   167   ar
    80   158   159    1
    81   129   128    1
    82   159   160    1
    83   190   191    1
    84   190   192    1
    85   190   189    1
    86   186   189    1
    87   186   185    1
    88   128   122   am
    89   160   161    2
    90   160   170   am
    91   119   117   ar
    92   118   117   ar
    93   123   122    2
    94   122   121    1
    95   117   116    1
    96     1     7    1
    97     1     2    1
    98   170   171    1
    99   184   182    1
   100     7     6    1
   101   173   172    2
   102     6     5    1
   103     2     5    1
   104     2     3    1
   105    95    94    1
   106   124   121    1
   107   124   125    1
   108   121   120    1
   109   171   172    1
   110   171   174    1
   111   115   114    2
   112   172   178   am
   113    15    13   am
   114   116   113    1
   115   120   114   am
   116   182   183    1
   117   182   179    1
   118   114   113    1
   119    33    32    2
   120     3     4    2
   121   178   179    1
   122   177   175   am
   123    94    93   ar
   124    94    92   ar
   125   113   112    1
   126   126   125    1
   127   175   174    1
   128   175   176    2
   129    93    91   ar
   130   179   180    1
   131   125   127    1
   132    13    12    1
   133    13    14    2
   134    32    31    1
   135    92    90   ar
   136    12     9    1
   137    91    89   ar
   138    34    31    1
   139    34    35    1
   140   112   106   am
   141    31    30    1
   142   180   181    2
   143    90    89   ar
   144    89    88    1
   145     9     8    1
   146     9    10    1
   147   107   106    2
   148    36    35    1
   149    36    37    1
   150   106   105    1
   151    39    38    1
   152    37    38    2
   153    38    40    1
   154    88    85    1
   155    10    11    2
   156    10    16   am
   157   110   108    1
   158   105   108    1
   159   105   104    1
   160    16    17    1
   161    84    85    1
   162   108   109    1
   163    85    86    1
   164   104    98   am
   165    19    18    2
   166    86    87    2
   167    86    96   am
   168    99    98    2
   169    98    97    1
   170    17    18    1
   171    17    20    1
   172    96    97    1
   173    18    23   am
   174   109   111    1
   175    97   100    1
   176    23    24    1
   177    23    29    1
   178    26    25    2
   179    24    25    1
   180    24    27    1
   181    20    22    1
   182    20    21    1
   183    29    28    1
   184   100   101    1
   185    28    27    1
   186   101   102   ar
   187   101   103   ar
