@<TRIPOS>MOLECULE
tmp/3ppsD03.pdb
 133 129 0 0 0
SMALL
GASTEIGER

@<TRIPOS>ATOM
      1  N         37.7710   17.7040  -46.3320 N.3   206  ARG206     -0.1245
      2  CA        38.6640   16.6880  -45.7950 C.3   206  ARG206      0.1563
      3  C         38.5080   15.3820  -46.5730 C.2   206  ARG206      0.2260
      4  O         37.3890   14.8850  -46.7490 O.2   206  ARG206     -0.2867
      5  CB        38.3670   16.4450  -44.3140 C.3   206  ARG206      0.0307
      6  CG        39.2450   15.3750  -43.7010 C.3   206  ARG206      0.0489
      7  CD        38.7420   14.9380  -42.3360 C.3   206  ARG206      0.2205
      8  NE        39.5550   13.8500  -41.7960 N.pl3 206  ARG206     -0.0865
      9  CZ        39.3340   12.5590  -42.0300 C.cat 206  ARG206      0.5346
     10  NH1       38.3140   12.1790  -42.7880 N.pl3 206  ARG206      0.1354
     11  NH2       40.1340   11.6440  -41.5010 N.pl3 206  ARG206      0.1354
     12  N         38.9560   19.1250  -40.8040 N.3   215  TRP215     -0.1241
     13  CA        37.5860   19.2880  -40.3460 C.3   215  TRP215      0.1605
     14  C         37.3270   20.7590  -40.0810 C.2   215  TRP215      0.2264
     15  O         38.1800   21.4560  -39.5400 O.2   215  TRP215     -0.2867
     16  CB        37.3530   18.5000  -39.0620 C.3   215  TRP215      0.0550
     17  CG        37.6090   17.0360  -39.2060 C.ar  215  TRP215      0.0003
     18  CD1       38.7840   16.3750  -38.9700 C.ar  215  TRP215      0.0946
     19  CD2       36.6670   16.0390  -39.6190 C.ar  215  TRP215      0.0152
     20  NE1       38.6270   15.0330  -39.2120 N.ar  215  TRP215     -0.2442
     21  CE2       37.3360   14.8020  -39.6100 C.ar  215  TRP215      0.0810
     22  CE3       35.3180   16.0810  -39.9950 C.ar  215  TRP215      0.0012
     23  CZ2       36.7060   13.6110  -39.9640 C.ar  215  TRP215      0.0191
     24  CZ3       34.6940   14.9000  -40.3470 C.ar  215  TRP215      0.0001
     25  CH2       35.3870   13.6810  -40.3290 C.ar  215  TRP215      0.0015
     26  N         22.0150   17.5480  -40.3880 N.3   242  SER242     -0.1217
     27  CA        21.5490   17.3440  -39.0240 C.3   242  SER242      0.1889
     28  C         22.7280   17.5150  -38.0690 C.2   242  SER242      0.2288
     29  O         23.8840   17.3920  -38.4750 O.2   242  SER242     -0.2866
     30  CB        20.8940   15.9640  -38.8640 C.3   242  SER242      0.2089
     31  OG        21.7900   14.9100  -39.1690 O.3   242  SER242     -0.2183
     32  N         24.2700   16.1230  -34.4370 N.3   244  VAL244     -0.1245
     33  CA        24.1710   15.0960  -33.4060 C.3   244  VAL244      0.1561
     34  C         24.0330   15.7130  -32.0200 C.2   244  VAL244      0.2260
     35  O         24.9010   16.4660  -31.5730 O.2   244  VAL244     -0.2867
     36  CB        25.3800   14.1650  -33.3890 C.3   244  VAL244      0.0252
     37  CG1       25.2070   13.0940  -32.3280 C.3   244  VAL244      0.0019
     38  CG2       25.5790   13.5390  -34.7490 C.3   244  VAL244      0.0019
     39  N         29.0080   15.8040  -34.1940 N.3   288  TRP288     -0.1241
     40  CA        29.0920   15.7440  -35.6450 C.3   288  TRP288      0.1605
     41  C         28.0250   16.6080  -36.2920 C.2   288  TRP288      0.2264
     42  O         26.8640   16.5810  -35.8770 O.2   288  TRP288     -0.2867
     43  CB        28.9090   14.3050  -36.1270 C.3   288  TRP288      0.0550
     44  CG        30.0400   13.3940  -35.7790 C.ar  288  TRP288      0.0003
     45  CD1       29.9640   12.2310  -35.0740 C.ar  288  TRP288      0.0946
     46  CD2       31.4240   13.5770  -36.1180 C.ar  288  TRP288      0.0152
     47  NE1       31.2150   11.6700  -34.9580 N.ar  288  TRP288     -0.2442
     48  CE2       32.1300   12.4790  -35.5830 C.ar  288  TRP288      0.0810
     49  CE3       32.1340   14.5610  -36.8130 C.ar  288  TRP288      0.0012
     50  CZ2       33.5150   12.3340  -35.7300 C.ar  288  TRP288      0.0191
     51  CZ3       33.5060   14.4210  -36.9570 C.ar  288  TRP288      0.0001
     52  CH2       34.1810   13.3110  -36.4200 C.ar  288  TRP288      0.0015
     53  N         26.4500   16.3100  -39.5640 N.3   290  ASN290     -0.1240
     54  CA        26.4540   15.3170  -40.6340 C.3   290  ASN290      0.1653
     55  C         25.7840   15.7460  -41.9260 C.2   290  ASN290      0.2266
     56  O         24.7260   16.3900  -41.9200 O.2   290  ASN290     -0.2867
     57  CB        25.8030   14.0150  -40.1470 C.3   290  ASN290      0.1155
     58  CG        26.6930   13.2320  -39.2080 C.2   290  ASN290      0.2627
     59  OD1       26.3220   12.9780  -38.0630 O.2   290  ASN290     -0.2716
     60  ND2       27.8820   12.8440  -39.6910 N.am  290  ASN290     -0.0877
     61  N         24.0340   13.8480  -45.0400 N.3   292  THR292     -0.1218
     62  CA        23.5070   12.5510  -45.4510 C.3   292  THR292      0.1862
     63  C         22.6060   12.7200  -46.6740 C.2   292  THR292      0.2287
     64  O         22.2230   13.8500  -46.9990 O.2   292  THR292     -0.2866
     65  CB        22.6800   11.9420  -44.3320 C.3   292  THR292      0.1770
     66  OG1       21.5630   12.8000  -44.0620 O.3   292  THR292     -0.2211
     67  CG2       23.5260   11.8120  -43.0710 C.3   292  THR292      0.0375
     68  N         30.6860    9.8020  -45.4740 N.3   305  PHE305     -0.1241
     69  CA        30.4160   10.5210  -44.2330 C.3   305  PHE305      0.1605
     70  C         31.0800   11.9110  -44.2150 C.2   305  PHE305      0.2264
     71  O         32.1350   12.1000  -43.5960 O.2   305  PHE305     -0.2867
     72  CB        30.8010    9.6780  -43.0010 C.3   305  PHE305      0.0534
     73  CG        30.0620    8.3550  -42.9050 C.ar  305  PHE305     -0.0203
     74  CD1       30.6590    7.1740  -43.3330 C.ar  305  PHE305     -0.0042
     75  CD2       28.7760    8.2920  -42.3870 C.ar  305  PHE305     -0.0042
     76  CE1       29.9850    5.9550  -43.2420 C.ar  305  PHE305     -0.0003
     77  CE2       28.0970    7.0740  -42.2970 C.ar  305  PHE305     -0.0003
     78  CZ        28.7020    5.9070  -42.7260 C.ar  305  PHE305     -0.0000
     79  N         31.1240   15.7700  -42.9620 N.3   307  ALA307     -0.1245
     80  CA        30.6680   16.4250  -41.7440 C.3   307  ALA307      0.1562
     81  C         31.6280   17.5230  -41.3140 C.2   307  ALA307      0.2260
     82  O         32.7330   17.6420  -41.8400 O.2   307  ALA307     -0.2867
     83  CB        30.5070   15.4070  -40.6270 C.3   307  ALA307      0.0290
     84  N         37.7250   14.4340  -31.4180 N.3   319  LEU319     -0.1231
     85  CA        36.6350   14.3280  -32.3710 C.3   319  LEU319      0.1678
     86  C         35.3950   13.8610  -31.6350 C.2   319  LEU319      0.2434
     87  O         35.4910   13.2570  -30.5700 O.2   319  LEU319     -0.2733
     88  CB        36.9820   13.3380  -33.4860 C.3   319  LEU319      0.0284
     89  CG        38.2610   13.5210  -34.3070 C.3   319  LEU319      0.0019
     90  CD1       38.3700   12.3930  -35.3240 C.3   319  LEU319      0.0001
     91  CD2       38.2740   14.8660  -35.0110 C.3   319  LEU319      0.0001
     92  N         34.2180   14.1560  -32.1920 N.am  320  PRO320     -0.2729
     93  CA        32.9850   13.5820  -31.6450 C.3   320  PRO320      0.1401
     94  C         33.0890   12.0620  -31.6120 C.2   320  PRO320      0.2269
     95  O         33.6250   11.4660  -32.5490 O.2   320  PRO320     -0.2865
     96  CB        31.9200   14.0120  -32.6560 C.3   320  PRO320      0.0296
     97  CG        32.4790   15.2640  -33.2660 C.3   320  PRO320      0.0237
     98  CD        33.9690   15.1180  -33.2770 C.3   320  PRO320      0.0939
     99  N         28.3280    8.8330  -33.0640 N.3   323  GLN323     -0.1231
    100  CA        28.1630    8.8680  -34.5090 C.3   323  GLN323      0.1698
    101  C         26.7470    9.2710  -34.8820 C.2   323  GLN323      0.2593
    102  O         26.4060    9.3400  -36.0590 O.2   323  GLN323     -0.2718
    103  CB        28.5400    7.5180  -35.1270 C.3   323  GLN323      0.0381
    104  CG        30.0060    7.1250  -34.8810 C.3   323  GLN323      0.0905
    105  CD        30.4210    5.8660  -35.6300 C.2   323  GLN323      0.2608
    106  OE1       29.5990    5.2080  -36.2600 O.2   323  GLN323     -0.2717
    107  NE2       31.7070    5.5340  -35.5700 N.am  323  GLN323     -0.0878
    108  N         25.9340    9.5540  -33.8680 N.am  324  GLY324     -0.1942
    109  CA        24.5770   10.0180  -34.0790 C.3   324  GLY324      0.2014
    110  C         23.6430    8.9030  -34.5100 C.2   324  GLY324      0.2639
    111  O         24.0850    7.7720  -34.7400 O.2   324  GLY324     -0.2714
    112  N         22.3530    9.2220  -34.6090 N.am  325  LEU325     -0.1963
    113  CA        21.3390    8.2530  -35.0110 C.3   325  LEU325      0.1713
    114  C         21.1870    8.1920  -36.5310 C.2   325  LEU325      0.2458
    115  O         21.8920    8.8930  -37.2530 O.2   325  LEU325     -0.2730
    116  CB        20.0000    8.6100  -34.3690 C.3   325  LEU325      0.0310
    117  CG        19.9510    8.4680  -32.8510 C.3   325  LEU325      0.0022
    118  CD1       18.5740    8.8430  -32.3360 C.3   325  LEU325      0.0001
    119  CD2       20.3130    7.0570  -32.4470 C.3   325  LEU325      0.0001
    120  N         20.2690    7.3370  -37.0210 N.am  326  PRO326     -0.2716
    121  CA        19.9550    7.3060  -38.4540 C.3   326  PRO326      0.1536
    122  C         19.0260    8.4470  -38.8570 C.2   326  PRO326      0.2598
    123  O         18.0470    8.7470  -38.1550 O.2   326  PRO326     -0.2715
    124  CB        19.2250    5.9670  -38.6330 C.3   326  PRO326      0.0310
    125  CG        19.4690    5.1950  -37.3650 C.3   326  PRO326      0.0237
    126  CD        19.6260    6.2250  -36.2990 C.3   326  PRO326      0.0939
    127  N         19.3430    9.0680  -39.9910 N.am  327  VAL327     -0.1978
    128  CA        18.5860   10.1980  -40.5070 C.3   327  VAL327      0.1596
    129  C         17.5670    9.7260  -41.5310 C.2   327  VAL327      0.2287
    130  O         17.9340    9.0470  -42.5020 O.2   327  VAL327     -0.2864
    131  CB        19.5100   11.2310  -41.1680 C.3   327  VAL327      0.0276
    132  CG1       18.6990   12.4340  -41.6460 C.3   327  VAL327      0.0022
    133  CG2       20.5970   11.6640  -40.1940 C.3   327  VAL327      0.0022
@<TRIPOS>BOND
     1    64    63    2
     2     4     3    2
     3    63    62    1
     4     3     2    1
     5     1     2    1
     6     2     5    1
     7    68    69    1
     8    62    61    1
     9    62    65    1
    10    65    66    1
    11    65    67    1
    12     5     6    1
    13    69    70    1
    14    69    72    1
    15    70    71    2
    16     6     7    1
    17    74    76   ar
    18    74    73   ar
    19    76    78   ar
    20    72    73    1
    21    79    80    1
    22    73    75   ar
    23    10     9    1
    24    78    77   ar
    25   130   129    2
    26    75    77   ar
    27     7     8    1
    28     9     8    2
    29     9    11    1
    30    55    56    2
    31    55    54    1
    32    82    81    2
    33    80    81    1
    34    80    83    1
    35   132   131    1
    36   129   128    1
    37   131   128    1
    38   131   133    1
    39    12    13    1
    40    54    57    1
    41    54    53    1
    42   128   127    1
    43    26    27    1
    44    24    25   ar
    45    24    22   ar
    46    13    14    1
    47    13    16    1
    48    25    23   ar
    49    57    58    1
    50    14    15    2
    51    22    19   ar
    52   127   122   am
    53    23    21   ar
    54    60    58   am
    55    19    21   ar
    56    19    17   ar
    57    21    20   ar
    58    20    18   ar
    59    58    59    2
    60    17    16    1
    61    17    18   ar
    62    31    30    1
    63    27    30    1
    64    27    28    1
    65   122   121    1
    66   122   123    2
    67   124   121    1
    68   124   125    1
    69    29    28    2
    70   121   120    1
    71   125   126    1
    72   115   114    2
    73   120   114   am
    74   120   126    1
    75    51    49   ar
    76    51    52   ar
    77    49    46   ar
    78   114   113    1
    79    52    50   ar
    80    41    42    2
    81    41    40    1
    82   106   105    2
    83    43    44    1
    84    43    40    1
    85    46    44   ar
    86    46    48   ar
    87   102   101    2
    88    44    45   ar
    89    50    48   ar
    90    40    39    1
    91   105   107   am
    92   105   104    1
    93    48    47   ar
    94    90    89    1
    95   103   104    1
    96   103   100    1
    97    45    47   ar
    98   113   112    1
    99   113   116    1
   100    91    89    1
   101   101   100    1
   102   101   108   am
   103    38    36    1
   104   111   110    2
   105   112   110   am
   106   110   109    1
   107   100    99    1
   108    32    33    1
   109   116   117    1
   110    89    88    1
   111   109   108    1
   112    88    85    1
   113    33    36    1
   114    33    34    1
   115    36    37    1
   116    98    97    1
   117    98    92    1
   118    97    96    1
   119   117   119    1
   120   117   118    1
   121    96    93    1
   122    95    94    2
   123    85    86    1
   124    85    84    1
   125    92    93    1
   126    92    86   am
   127    34    35    2
   128    93    94    1
   129    86    87    2
