@<TRIPOS>MOLECULE
tmp/3pptA00.pdb
 149 139 0 0 0
SMALL
GASTEIGER

@<TRIPOS>ATOM
      1  N         16.0820   51.8250   13.7100 N.3    16  PHE16      -0.1241
      2  CA        15.2430   52.0590   12.5320 C.3    16  PHE16       0.1605
      3  C         14.1380   53.0830   12.8000 C.2    16  PHE16       0.2264
      4  O         13.8080   53.8790   11.9260 O.2    16  PHE16      -0.2867
      5  CB        14.6590   50.7370   12.0290 C.3    16  PHE16       0.0534
      6  CG        13.9730   50.8200   10.6820 C.ar   16  PHE16      -0.0203
      7  CD1       14.5430   51.5020    9.6160 C.ar   16  PHE16      -0.0042
      8  CD2       12.7830   50.1430   10.4760 C.ar   16  PHE16      -0.0042
      9  CE1       13.9140   51.5210    8.3710 C.ar   16  PHE16      -0.0003
     10  CE2       12.1590   50.1670    9.2460 C.ar   16  PHE16      -0.0003
     11  CZ        12.7220   50.8580    8.1920 C.ar   16  PHE16      -0.0000
     12  N         15.5440   56.5110   12.4440 N.3    19  TYR19      -0.1227
     13  CA        15.7790   56.7460   11.0240 C.3    19  TYR19       0.1736
     14  C         14.4670   57.1990   10.3610 C.2    19  TYR19       0.2595
     15  O         14.4160   58.2240    9.6620 O.2    19  TYR19      -0.2718
     16  CB        16.3580   55.5000   10.3200 C.3    19  TYR19       0.0548
     17  CG        16.5340   55.7620    8.8380 C.ar   19  TYR19      -0.0200
     18  CD1       17.7050   56.3310    8.3520 C.ar   19  TYR19      -0.0009
     19  CD2       15.5080   55.4940    7.9310 C.ar   19  TYR19      -0.0009
     20  CE1       17.8490   56.6240    7.0170 C.ar   19  TYR19       0.0417
     21  CE2       15.6450   55.7900    6.5960 C.ar   19  TYR19       0.0417
     22  CZ        16.8160   56.3550    6.1450 C.ar   19  TYR19       0.1957
     23  OH        16.9560   56.6640    4.8180 O.3    19  TYR19      -0.2866
     24  N         13.4010   56.4280   10.5700 N.am   20  MET20      -0.1979
     25  CA        12.1150   56.7740    9.9840 C.3    20  MET20       0.1605
     26  C         11.5820   58.1250   10.4730 C.2    20  MET20       0.2287
     27  O         11.0380   58.8840    9.6810 O.2    20  MET20      -0.2864
     28  CB        11.0920   55.6720   10.2410 C.3    20  MET20       0.0413
     29  CG        11.3660   54.4050    9.4260 C.3    20  MET20       0.0598
     30  SD        10.0070   53.2390    9.5240 S.3    20  MET20      -0.1393
     31  CE        10.1740   52.6740   11.2200 C.3    20  MET20       0.0692
     32  N         13.2710   60.9520    8.5660 N.3    23  VAL23      -0.1245
     33  CA        12.8350   61.1810    7.1870 C.3    23  VAL23       0.1561
     34  C         11.3490   61.5310    7.0990 C.2    23  VAL23       0.2260
     35  O         10.8410   61.8040    6.0170 O.2    23  VAL23      -0.2867
     36  CB        13.2010   60.0240    6.2120 C.3    23  VAL23       0.0252
     37  CG1       14.6940   59.7470    6.2560 C.3    23  VAL23       0.0019
     38  CG2       12.4010   58.7590    6.5160 C.3    23  VAL23       0.0019
     39  N         11.2060   42.3380    6.3360 N.3    38  PRO38      -0.2116
     40  CA        11.3190   42.4220    4.8790 C.3    38  PRO38       0.1372
     41  C         12.2980   41.4350    4.2750 C.2    38  PRO38       0.2244
     42  O         13.2600   40.9880    4.9190 O.2    38  PRO38      -0.2868
     43  CB        11.8470   43.8400    4.6540 C.3    38  PRO38       0.0268
     44  CG        12.5320   44.1870    5.9410 C.3    38  PRO38       0.0207
     45  CD        11.6970   43.5560    7.0020 C.3    38  PRO38       0.0892
     46  N         14.8420   41.2140    0.7910 N.3    40  GLN40      -0.1245
     47  CA        15.4170   41.9170   -0.3480 C.3    40  GLN40       0.1566
     48  C         15.8850   40.8880   -1.3550 C.2    40  GLN40       0.2260
     49  O         16.5550   39.9050   -0.9990 O.2    40  GLN40      -0.2867
     50  CB        16.5830   42.8140    0.0600 C.3    40  GLN40       0.0367
     51  CG        16.1400   44.0410    0.8510 C.3    40  GLN40       0.0905
     52  CD        17.2680   45.0340    1.0880 C.2    40  GLN40       0.2608
     53  OE1       18.1980   45.1300    0.2810 O.2    40  GLN40      -0.2717
     54  NE2       17.1850   45.7930    2.1850 N.am   40  GLN40      -0.0878
     55  N         12.3380   45.0490   -2.4810 N.3    53  THR53      -0.1218
     56  CA        12.1760   44.9290   -1.0330 C.3    53  THR53       0.1862
     57  C         10.7090   44.6940   -0.7540 C.2    53  THR53       0.2287
     58  O          9.8770   45.5220   -1.1210 O.2    53  THR53      -0.2866
     59  CB        12.6480   46.1950   -0.2810 C.3    53  THR53       0.1770
     60  OG1       13.9920   46.5090   -0.6810 O.3    53  THR53      -0.2211
     61  CG2       12.6100   45.9650    1.2220 C.3    53  THR53       0.0375
     62  N         10.8040   56.3580   -2.4600 N.3    74  THR74      -0.1203
     63  CA        11.0520   55.4480   -1.3500 C.3    74  THR74       0.1994
     64  C          9.7710   54.7520   -0.9010 C.2    74  THR74       0.2618
     65  O          8.6670   55.1510   -1.2870 O.2    74  THR74      -0.2717
     66  CB        11.6740   56.1800   -0.1560 C.3    74  THR74       0.1784
     67  OG1       10.7270   57.1120    0.3770 O.3    74  THR74      -0.2211
     68  CG2       12.9390   56.9110   -0.5780 C.3    74  THR74       0.0376
     69  N          9.9210   53.7290   -0.0620 N.am   75  GLY75      -0.1942
     70  CA         8.7780   52.9730    0.4130 C.3    75  GLY75       0.2014
     71  C          7.7410   53.8140    1.1230 C.2    75  GLY75       0.2638
     72  O          6.5480   53.5260    1.0460 O.2    75  GLY75      -0.2714
     73  N          8.2020   54.8450    1.8220 N.am   76  ASP76      -0.1971
     74  CA         7.3150   55.7500    2.5380 C.3    76  ASP76       0.1709
     75  C          6.8130   56.9000    1.6660 C.2    76  ASP76       0.2293
     76  O          6.0240   57.7220    2.1290 O.2    76  ASP76      -0.2864
     77  CB         7.9830   56.2880    3.8060 C.3    76  ASP76       0.1436
     78  CG         9.2890   57.0180    3.5270 C.2    76  ASP76       0.3671
     79  OD1       10.1920   56.4290    2.8820 O.co2  76  ASP76      -0.2456
     80  OD2        9.4280   58.1890    3.9660 O.co2  76  ASP76      -0.2456
     81  N          8.7880   59.2190   -0.4390 N.3    78  ARG78      -0.1245
     82  CA         9.6010   60.4000   -0.7270 C.3    78  ARG78       0.1563
     83  C         10.1810   60.3210   -2.1330 C.2    78  ARG78       0.2260
     84  O         10.6970   59.2870   -2.5420 O.2    78  ARG78      -0.2867
     85  CB        10.7300   60.5510    0.2960 C.3    78  ARG78       0.0307
     86  CG        10.2550   60.9710    1.6690 C.3    78  ARG78       0.0489
     87  CD        11.3570   60.8590    2.6990 C.3    78  ARG78       0.2205
     88  NE        11.6530   59.4560    2.9710 N.pl3  78  ARG78      -0.0865
     89  CZ        12.8280   58.8600    2.7880 C.cat  78  ARG78       0.5346
     90  NH1       13.8900   59.5430    2.3610 N.pl3  78  ARG78       0.1354
     91  NH2       12.9420   57.5710    3.0640 N.pl3  78  ARG78       0.1354
     92  N         22.6050   55.0290    2.0270 N.3   103  LEU103     -0.1245
     93  CA        22.3160   53.6280    2.3110 C.3   103  LEU103      0.1561
     94  C         23.4630   52.7850    1.7750 C.2   103  LEU103      0.2260
     95  O         23.7780   52.8370    0.5860 O.2   103  LEU103     -0.2867
     96  CB        21.0210   53.1950    1.6200 C.3   103  LEU103      0.0270
     97  CG        19.6550   53.4970    2.2480 C.3   103  LEU103      0.0019
     98  CD1       19.4710   54.9680    2.5660 C.3   103  LEU103      0.0001
     99  CD2       18.5520   53.0110    1.3150 C.3   103  LEU103      0.0001
    100  N         25.2100   48.7810    1.5900 N.3   105  ARG105     -0.1245
    101  CA        24.9950   47.3410    1.7420 C.3   105  ARG105      0.1563
    102  C         26.3170   46.6460    1.4960 C.2   105  ARG105      0.2260
    103  O         27.0160   46.9560    0.5400 O.2   105  ARG105     -0.2867
    104  CB        23.9880   46.8290    0.7190 C.3   105  ARG105      0.0307
    105  CG        22.5500   47.2520    0.9470 C.3   105  ARG105      0.0489
    106  CD        21.7270   46.8050   -0.2400 C.3   105  ARG105      0.2205
    107  NE        20.2900   47.0530   -0.1480 N.pl3 105  ARG105     -0.0865
    108  CZ        19.7030   48.1940   -0.4810 C.cat 105  ARG105      0.5346
    109  NH1       20.4380   49.2360   -0.8510 N.pl3 105  ARG105      0.1354
    110  NH2       18.3840   48.3030   -0.4190 N.pl3 105  ARG105      0.1354
    111  N         23.1530   46.3310    6.1590 N.3   114  MET114     -0.1245
    112  CA        22.6200   47.5290    5.5380 C.3   114  MET114      0.1570
    113  C         22.6670   48.6500    6.5640 C.2   114  MET114      0.2261
    114  O         22.0530   48.5530    7.6230 O.2   114  MET114     -0.2867
    115  CB        21.1940   47.2960    5.0410 C.3   114  MET114      0.0387
    116  CG        20.6460   48.4830    4.2730 C.3   114  MET114      0.0595
    117  SD        18.8900   48.2420    3.9080 S.3   114  MET114     -0.1393
    118  CE        18.5510   49.6960    2.9100 C.3   114  MET114      0.0692
    119  N         21.9270   52.6270    7.2520 N.3   116  LEU116     -0.1245
    120  CA        21.1340   53.7460    6.7650 C.3   116  LEU116      0.1561
    121  C         21.4920   54.9690    7.5770 C.2   116  LEU116      0.2260
    122  O         21.3670   54.9590    8.8030 O.2   116  LEU116     -0.2867
    123  CB        19.6350   53.4600    6.8980 C.3   116  LEU116      0.0270
    124  CG        19.1030   52.2110    6.1760 C.3   116  LEU116      0.0019
    125  CD1       19.2390   50.9690    7.0370 C.3   116  LEU116      0.0001
    126  CD2       17.6480   52.4090    5.7610 C.3   116  LEU116      0.0001
    127  N         20.8360   47.4370    9.9000 N.3   125  ARG125     -0.1245
    128  CA        19.9280   46.3220    9.6750 C.3   125  ARG125      0.1563
    129  C         20.6690   45.1720    9.0200 C.2   125  ARG125      0.2260
    130  O         21.3050   45.3330    7.9720 O.2   125  ARG125     -0.2867
    131  CB        18.7210   46.7710    8.8550 C.3   125  ARG125      0.0307
    132  CG        17.7600   47.5660    9.7240 C.3   125  ARG125      0.0489
    133  CD        16.7900   48.3720    8.9400 C.3   125  ARG125      0.2205
    134  NE        15.7530   47.6050    8.2560 N.pl3 125  ARG125     -0.0865
    135  CZ        14.6490   47.1610    8.8450 C.cat 125  ARG125      0.5346
    136  NH1       14.4810   47.3170   10.1550 N.pl3 125  ARG125      0.1354
    137  NH2       13.7240   46.5480    8.1210 N.pl3 125  ARG125      0.1354
    138  N         20.7160   41.3270    7.5210 N.3   127  TYR127     -0.1241
    139  CA        19.9120   40.3410    6.8150 C.3   127  TYR127      0.1605
    140  C         20.6710   39.0260    6.6740 C.2   127  TYR127      0.2264
    141  O         21.8800   39.0230    6.4100 O.2   127  TYR127     -0.2867
    142  CB        19.6260   40.8400    5.4080 C.3   127  TYR127      0.0534
    143  CG        18.5420   41.8960    5.2570 C.ar  127  TYR127     -0.0201
    144  CD1       17.3260   41.5660    4.6800 C.ar  127  TYR127     -0.0009
    145  CD2       18.7410   43.2240    5.6420 C.ar  127  TYR127     -0.0009
    146  CE1       16.3270   42.5060    4.4930 C.ar  127  TYR127      0.0417
    147  CE2       17.7320   44.1780    5.4670 C.ar  127  TYR127      0.0417
    148  CZ        16.5290   43.8050    4.8900 C.ar  127  TYR127      0.1957
    149  OH        15.5160   44.7170    4.6840 O.3   127  TYR127     -0.2866
@<TRIPOS>BOND
     1    84    83    2
     2    55    56    1
     3    62    63    1
     4    83    82    1
     5    48    49    2
     6    48    47    1
     7    63    64    1
     8    63    66    1
     9    65    64    2
    10    58    57    2
    11    56    57    1
    12    56    59    1
    13    64    69   am
    14   109   108    1
    15    82    81    1
    16    82    85    1
    17    60    59    1
    18    68    66    1
    19   108   110    1
    20   108   107    2
    21    47    50    1
    22    47    46    1
    23    59    61    1
    24   106   107    1
    25   106   105    1
    26    66    67    1
    27    69    70    1
    28    50    51    1
    29    53    52    2
    30    85    86    1
    31    70    71    1
    32   103   102    2
    33    95    94    2
    34   104   105    1
    35   104   101    1
    36    51    52    1
    37    72    71    2
    38    52    54   am
    39    71    73   am
    40    99    97    1
    41   102   101    1
    42   100   101    1
    43    96    97    1
    44    96    93    1
    45    75    76    2
    46    75    74    1
    47    86    87    1
    48    94    93    1
    49    73    74    1
    50    92    93    1
    51    97    98    1
    52    90    89    1
    53    74    77    1
    54    87    88    1
    55    89    88    2
    56    89    91    1
    57    79    78   ar
    58   118   117    1
    59    78    77    1
    60    78    80   ar
    61   117   116    1
    62   116   115    1
    63    41    40    1
    64    41    42    2
    65   146   144   ar
    66   146   148   ar
    67    43    40    1
    68    43    44    1
    69   144   143   ar
    70   149   148    1
    71    23    22    1
    72    40    39    1
    73   148   147   ar
    74   115   112    1
    75   143   142    1
    76   143   145   ar
    77   142   139    1
    78   147   145   ar
    79   112   111    1
    80   112   113    1
    81   126   124    1
    82    44    45    1
    83    35    34    2
    84    22    21   ar
    85    22    20   ar
    86   124   123    1
    87   124   125    1
    88    36    37    1
    89    36    38    1
    90    36    33    1
    91    39    45    1
    92   141   140    2
    93   113   114    2
    94    21    19   ar
    95   140   139    1
    96   120   123    1
    97   120   119    1
    98   120   121    1
    99   139   138    1
   100    20    18   ar
   101    34    33    1
   102    33    32    1
   103   121   122    2
   104    19    17   ar
   105   130   129    2
   106   137   135    1
   107    11     9   ar
   108    11    10   ar
   109   134   135    2
   110   134   133    1
   111    18    17   ar
   112     9     7   ar
   113    17    16    1
   114   135   136    1
   115   131   128    1
   116   131   132    1
   117   133   132    1
   118   129   128    1
   119    10     8   ar
   120    29    30    1
   121    29    28    1
   122    30    31    1
   123     7     6   ar
   124    15    14    2
   125   128   127    1
   126    27    26    2
   127    25    28    1
   128    25    26    1
   129    25    24    1
   130    16    13    1
   131    14    24   am
   132    14    13    1
   133     8     6   ar
   134     6     5    1
   135    13    12    1
   136     4     3    2
   137     5     2    1
   138     2     3    1
   139     2     1    1
