@<TRIPOS>MOLECULE
tmp/3ppuA00.pdb
 224 224 0 0 0
SMALL
GASTEIGER

@<TRIPOS>ATOM
      1  N         30.4000   46.1790   26.4990 N.3     4  SER4       -0.1202
      2  CA        30.0780   47.5470   26.0440 C.3     4  SER4        0.2020
      3  C         30.6180   48.6140   27.0060 C.2     4  SER4        0.2618
      4  O         30.0860   49.7220   27.0840 O.2     4  SER4       -0.2717
      5  CB        28.5570   47.7150   25.8290 C.3     4  SER4        0.2103
      6  OG        27.7980   47.4070   26.9920 O.3     4  SER4       -0.2182
      7  N         31.7090   48.2790   27.6900 N.am    5  ASP5       -0.1973
      8  CA        32.1420   48.9800   28.8940 C.3     5  ASP5        0.1709
      9  C         33.6600   49.1990   28.9080 C.2     5  ASP5        0.2293
     10  O         34.1410   50.3360   28.8550 O.2     5  ASP5       -0.2864
     11  CB        31.7300   48.1320   30.1040 C.3     5  ASP5        0.1436
     12  CG        31.6510   48.9160   31.3800 C.2     5  ASP5        0.3671
     13  OD1       31.9250   50.1330   31.3510 O.co2   5  ASP5       -0.2456
     14  OD2       31.3030   48.3020   32.4140 O.co2   5  ASP5       -0.2456
     15  N         37.0510   49.4650   27.3220 N.3     7  SER7       -0.1217
     16  CA        37.4370   49.9640   25.9960 C.3     7  SER7        0.1889
     17  C         38.2970   48.9710   25.2030 C.2     7  SER7        0.2288
     18  O         38.6590   49.2290   24.0520 O.2     7  SER7       -0.2866
     19  CB        38.1520   51.3120   26.1160 C.3     7  SER7        0.2089
     20  OG        37.9300   52.1080   24.9650 O.3     7  SER7       -0.2183
     21  N         32.5370   54.6960   14.4720 N.3    18  ARG18      -0.1231
     22  CA        31.8430   55.2610   15.6540 C.3    18  ARG18       0.1694
     23  C         30.3290   55.0380   15.6330 C.2    18  ARG18       0.2592
     24  O         29.6630   55.3360   14.6540 O.2    18  ARG18      -0.2718
     25  CB        32.1230   56.7600   15.7950 C.3    18  ARG18       0.0321
     26  CG        31.5440   57.3880   17.0820 C.3    18  ARG18       0.0489
     27  CD        31.9210   58.8580   17.2220 C.3    18  ARG18       0.2205
     28  NE        33.3670   59.0150   17.3500 N.pl3  18  ARG18      -0.0865
     29  CZ        34.0440   58.9590   18.4920 C.cat  18  ARG18       0.5346
     30  NH1       33.4210   58.7660   19.6510 N.pl3  18  ARG18       0.1354
     31  NH2       35.3580   59.0990   18.4690 N.pl3  18  ARG18       0.1354
     32  N         29.7910   54.5210   16.7260 N.am   19  LYS19      -0.1966
     33  CA        28.3400   54.3690   16.8700 C.3    19  LYS19       0.1728
     34  C         27.7060   55.7220   17.2480 C.2    19  LYS19       0.2616
     35  O         28.2040   56.4190   18.1220 O.2    19  LYS19      -0.2715
     36  CB        28.0460   53.3140   17.9400 C.3    19  LYS19       0.0311
     37  CG        26.6030   52.7870   17.9810 C.3    19  LYS19       0.0038
     38  CD        26.5240   51.5770   18.9550 C.3    19  LYS19       0.0206
     39  CE        25.1220   51.3960   19.5620 C.3    19  LYS19       0.1093
     40  NZ        24.3650   50.2350   18.9850 N.3    19  LYS19      -0.1314
     41  N         26.6220   56.0930   16.5760 N.am   20  ALA20      -0.1963
     42  CA        25.8980   57.3200   16.9020 C.3    20  ALA20       0.1728
     43  C         25.3560   57.3060   18.3370 C.2    20  ALA20       0.2616
     44  O         25.0200   56.2580   18.8690 O.2    20  ALA20      -0.2715
     45  CB        24.7620   57.5470   15.9080 C.3    20  ALA20       0.0334
     46  N         25.2970   58.4850   18.9540 N.am   21  ALA21      -0.1977
     47  CA        24.6590   58.6750   20.2620 C.3    21  ALA21       0.1597
     48  C         23.1400   58.4570   20.1500 C.2    21  ALA21       0.2287
     49  O         22.5280   58.8270   19.1400 O.2    21  ALA21      -0.2864
     50  CB        24.9550   60.0850   20.7710 C.3    21  ALA21       0.0319
     51  N         37.6850   64.3690   27.3470 N.3    48  CYS48      -0.1221
     52  CA        36.8990   64.1000   26.1670 C.3    48  CYS48       0.1794
     53  C         36.6710   65.3960   25.3920 C.2    48  CYS48       0.2443
     54  O         36.2050   66.3880   25.9570 O.2    48  CYS48      -0.2733
     55  CB        35.5790   63.4540   26.5680 C.3    48  CYS48       0.0970
     56  SG        34.4090   63.3390   25.2500 S.3    48  CYS48      -0.0800
     57  N         37.0410   65.4000   24.1040 N.am   49  PRO49      -0.2718
     58  CA        36.8960   66.5880   23.2660 C.3    49  PRO49       0.1535
     59  C         35.4270   66.8930   22.9860 C.2    49  PRO49       0.2598
     60  O         35.0400   68.0480   22.9320 O.2    49  PRO49      -0.2715
     61  CB        37.6530   66.2080   21.9780 C.3    49  PRO49       0.0310
     62  CG        37.6350   64.7050   21.9710 C.3    49  PRO49       0.0237
     63  CD        37.7870   64.3320   23.4210 C.3    49  PRO49       0.0939
     64  N         34.6170   65.8460   22.8180 N.am   50  TRP50      -0.1974
     65  CA        33.1920   65.9950   22.6120 C.3    50  TRP50       0.1640
     66  C         32.5900   66.6890   23.8430 C.2    50  TRP50       0.2290
     67  O         31.9190   67.7280   23.7190 O.2    50  TRP50      -0.2864
     68  CB        32.5610   64.6160   22.4030 C.3    50  TRP50       0.0576
     69  CG        33.3890   63.7060   21.5100 C.ar   50  TRP50       0.0006
     70  CD1       34.1270   62.6090   21.9030 C.ar   50  TRP50       0.0946
     71  CD2       33.5950   63.8360   20.0870 C.ar   50  TRP50       0.0152
     72  NE1       34.7500   62.0430   20.8170 N.ar   50  TRP50      -0.2442
     73  CE2       34.4540   62.7740   19.6900 C.ar   50  TRP50       0.0810
     74  CE3       33.1140   64.7230   19.1090 C.ar   50  TRP50       0.0012
     75  CZ2       34.8510   62.5750   18.3440 C.ar   50  TRP50       0.0191
     76  CZ3       33.5210   64.5310   17.7460 C.ar   50  TRP50       0.0001
     77  CH2       34.3820   63.4690   17.3910 C.ar   50  TRP50       0.0015
     78  N         33.4230   70.3390   24.2680 N.3    53  ARG53      -0.1245
     79  CA        32.6030   71.2520   23.4530 C.3    53  ARG53       0.1563
     80  C         31.5280   71.9060   24.3220 C.2    53  ARG53       0.2260
     81  O         31.3010   73.1110   24.2390 O.2    53  ARG53      -0.2867
     82  CB        31.8940   70.5030   22.3300 C.3    53  ARG53       0.0307
     83  CG        32.7520   70.0330   21.1630 C.3    53  ARG53       0.0489
     84  CD        31.9520   68.9910   20.4080 C.3    53  ARG53       0.2205
     85  NE        32.5120   68.6900   19.1080 N.pl3  53  ARG53      -0.0865
     86  CZ        31.8420   68.0880   18.1300 C.cat  53  ARG53       0.5346
     87  NH1       30.5740   67.7060   18.3070 N.pl3  53  ARG53       0.1354
     88  NH2       32.4530   67.8590   16.9810 N.pl3  53  ARG53       0.1354
     89  N         33.9130   55.1030   32.6500 N.3    80  TRP80      -0.1241
     90  CA        34.3310   56.2770   33.4130 C.3    80  TRP80       0.1605
     91  C         33.8810   56.1640   34.8690 C.2    80  TRP80       0.2264
     92  O         32.6900   56.0170   35.1260 O.2    80  TRP80      -0.2867
     93  CB        33.6540   57.5270   32.8780 C.3    80  TRP80       0.0550
     94  CG        33.8910   57.8890   31.4760 C.ar   80  TRP80       0.0003
     95  CD1       33.0540   57.6550   30.4270 C.ar   80  TRP80       0.0946
     96  CD2       35.0000   58.6100   30.9550 C.ar   80  TRP80       0.0152
     97  NE1       33.5890   58.1540   29.2700 N.ar   80  TRP80      -0.2442
     98  CE2       34.7800   58.7630   29.5650 C.ar   80  TRP80       0.0810
     99  CE3       36.1680   59.1310   31.5140 C.ar   80  TRP80       0.0012
    100  CZ2       35.6910   59.4310   28.7220 C.ar   80  TRP80       0.0191
    101  CZ3       37.0750   59.8050   30.6700 C.ar   80  TRP80       0.0001
    102  CH2       36.8290   59.9380   29.2970 C.ar   80  TRP80       0.0015
    103  N         27.2980   52.4960   24.0190 N.3   116  ARG116     -0.1231
    104  CA        28.4480   52.8170   24.8490 C.3   116  ARG116      0.1694
    105  C         28.0510   53.8580   25.8890 C.2   116  ARG116      0.2592
    106  O         27.1080   54.6220   25.6860 O.2   116  ARG116     -0.2718
    107  CB        29.6420   53.2420   23.9920 C.3   116  ARG116      0.0321
    108  CG        30.1230   52.1160   23.0320 C.3   116  ARG116      0.0489
    109  CD        31.5270   52.3800   22.4160 C.3   116  ARG116      0.2205
    110  NE        32.6100   52.2630   23.3960 N.pl3 116  ARG116     -0.0865
    111  CZ        33.1660   51.1130   23.7890 C.cat 116  ARG116      0.5346
    112  NH1       32.7450   49.9530   23.2880 N.pl3 116  ARG116      0.1354
    113  NH2       34.1420   51.1170   24.6970 N.pl3 116  ARG116      0.1354
    114  N         28.7390   53.8570   27.0230 N.am  117  PHE117     -0.1962
    115  CA        28.3940   54.7480   28.1230 C.3   117  PHE117      0.1771
    116  C         29.2160   56.0240   28.0480 C.2   117  PHE117      0.2620
    117  O         30.1080   56.2470   28.8280 O.2   117  PHE117     -0.2715
    118  CB        28.5610   54.0220   29.4550 C.3   117  PHE117      0.0574
    119  CG        27.8640   52.6790   29.4990 C.ar  117  PHE117     -0.0200
    120  CD1       26.4690   52.5940   29.5300 C.ar  117  PHE117     -0.0042
    121  CD2       28.6020   51.4950   29.4920 C.ar  117  PHE117     -0.0042
    122  CE1       25.8180   51.3400   29.5740 C.ar  117  PHE117     -0.0003
    123  CE2       27.9600   50.2400   29.5340 C.ar  117  PHE117     -0.0003
    124  CZ        26.5700   50.1620   29.5730 C.ar  117  PHE117     -0.0000
    125  N         28.8710   56.8740   27.0970 N.am  118  THR118     -0.1937
    126  CA        29.6880   58.0290   26.7470 C.3   118  THR118      0.2028
    127  C         29.3730   59.2800   27.5730 C.2   118  THR118      0.2642
    128  O         28.2780   59.4070   28.1120 O.2   118  THR118     -0.2714
    129  CB        29.5460   58.3340   25.2480 C.3   118  THR118      0.1808
    130  OG1       28.1530   58.4250   24.9080 O.3   118  THR118     -0.2208
    131  CG2       30.1490   57.1910   24.4170 C.3   118  THR118      0.0379
    132  N         30.3800   60.1340   27.7420 N.am  119  VAL119     -0.1963
    133  CA        30.1890   61.5370   28.0620 C.3   119  VAL119      0.1712
    134  C         30.2970   62.3080   26.7340 C.2   119  VAL119      0.2458
    135  O         30.9930   61.8560   25.8210 O.2   119  VAL119     -0.2730
    136  CB        31.2070   62.0720   29.1130 C.3   119  VAL119      0.0289
    137  CG1       31.0140   61.3570   30.4570 C.3   119  VAL119      0.0023
    138  CG2       32.6640   61.9460   28.6230 C.3   119  VAL119      0.0023
    139  N         29.6170   63.4730   26.6200 N.am  120  PRO120     -0.2727
    140  CA        28.8280   64.1140   27.6830 C.3   120  PRO120      0.1402
    141  C         27.4370   63.5140   27.8870 C.2   120  PRO120      0.2269
    142  O         26.8680   62.9380   26.9580 O.2   120  PRO120     -0.2865
    143  CB        28.7050   65.5570   27.1970 C.3   120  PRO120      0.0296
    144  CG        28.7740   65.4470   25.6860 C.3   120  PRO120      0.0237
    145  CD        29.7570   64.3370   25.4330 C.3   120  PRO120      0.0939
    146  N         22.7810   63.1070   24.6590 N.3   133  ASN133     -0.1225
    147  CA        24.1750   62.7200   24.8240 C.3   133  ASN133      0.1785
    148  C         24.9700   62.8850   23.5300 C.2   133  ASN133      0.2597
    149  O         25.9800   62.1820   23.3050 O.2   133  ASN133     -0.2718
    150  CB        24.3150   61.3020   25.4270 C.3   133  ASN133      0.1169
    151  CG        23.9670   60.1920   24.4320 C.2   133  ASN133      0.2627
    152  OD1       23.1860   60.3980   23.4980 O.2   133  ASN133     -0.2716
    153  ND2       24.5450   59.0100   24.6400 N.am  133  ASN133     -0.0877
    154  N         24.5300   63.8440   22.7070 N.am  134  GLU134     -0.1965
    155  CA        25.2360   64.2390   21.4830 C.3   134  GLU134      0.1733
    156  C         25.7680   65.6710   21.5950 C.2   134  GLU134      0.2617
    157  O         24.9920   66.6460   21.5190 O.2   134  GLU134     -0.2715
    158  CB        24.3130   64.1050   20.2450 C.3   134  GLU134      0.0429
    159  CG        24.9180   64.5870   18.9060 C.3   134  GLU134      0.1163
    160  CD        26.3570   64.0780   18.6210 C.2   134  GLU134      0.3649
    161  OE1       26.6420   62.8500   18.7320 O.co2 134  GLU134     -0.2457
    162  OE2       27.2070   64.9180   18.2510 O.co2 134  GLU134     -0.2457
    163  N         27.0930   65.7920   21.7240 N.am  135  SER135     -0.1950
    164  CA        27.7460   67.0820   21.9310 C.3   135  SER135      0.1924
    165  C         27.3240   68.1240   20.9030 C.2   135  SER135      0.2314
    166  O         27.1200   69.2740   21.2570 O.2   135  SER135     -0.2863
    167  CB        29.2530   66.9380   21.8900 C.3   135  SER135      0.2116
    168  OG        29.6950   66.5340   20.5960 O.3   135  SER135     -0.2180
    169  N         34.4070   67.2060   11.0990 N.3   175  TYR175     -0.1241
    170  CA        34.0410   66.0800   11.9230 C.3   175  TYR175      0.1605
    171  C         34.6480   64.7890   11.3530 C.2   175  TYR175      0.2264
    172  O         35.3620   64.0750   12.0620 O.2   175  TYR175     -0.2867
    173  CB        32.5240   65.9200   12.0970 C.3   175  TYR175      0.0534
    174  CG        32.2110   64.6060   12.7710 C.ar  175  TYR175     -0.0201
    175  CD1       32.2660   64.4790   14.1640 C.ar  175  TYR175     -0.0009
    176  CD2       31.9330   63.4610   12.0120 C.ar  175  TYR175     -0.0009
    177  CE1       32.0050   63.2620   14.7880 C.ar  175  TYR175      0.0417
    178  CE2       31.6910   62.2350   12.6170 C.ar  175  TYR175      0.0417
    179  CZ        31.7320   62.1480   14.0100 C.ar  175  TYR175      0.1957
    180  OH        31.4890   60.9350   14.6090 O.3   175  TYR175     -0.2866
    181  N         40.7460   59.6610   15.7160 N.3   183  TYR183     -0.1241
    182  CA        40.3130   58.3820   16.2810 C.3   183  TYR183      0.1605
    183  C         40.3650   57.2680   15.2510 C.2   183  TYR183      0.2264
    184  O         40.8730   56.1590   15.5380 O.2   183  TYR183     -0.2867
    185  CB        38.8970   58.4920   16.8680 C.3   183  TYR183      0.0534
    186  CG        38.8500   59.2300   18.1690 C.ar  183  TYR183     -0.0201
    187  CD1       38.9990   58.5480   19.3720 C.ar  183  TYR183     -0.0009
    188  CD2       38.6570   60.6050   18.2030 C.ar  183  TYR183     -0.0009
    189  CE1       38.9640   59.2100   20.5860 C.ar  183  TYR183      0.0417
    190  CE2       38.6200   61.3000   19.4180 C.ar  183  TYR183      0.0417
    191  CZ        38.7670   60.5920   20.6060 C.ar  183  TYR183      0.1957
    192  OH        38.7260   61.2460   21.8140 O.3   183  TYR183     -0.2866
    193  N         43.8840   60.3040   30.5560 N.3   283  HIS283     -0.1226
    194  CA        42.7790   59.5160   30.0330 C.3   283  HIS283      0.1752
    195  C         43.1810   58.6010   28.8860 C.2   283  HIS283      0.2596
    196  O         42.9590   57.3960   28.9650 O.2   283  HIS283     -0.2718
    197  CB        41.5930   60.3490   29.5510 C.3   283  HIS283      0.0759
    198  CG        40.6070   59.5240   28.7960 C.ar  283  HIS283      0.0818
    199  ND1       39.9660   58.4480   29.3680 N.ar  283  HIS283     -0.2268
    200  CD2       40.2090   59.5610   27.5030 C.ar  283  HIS283      0.1154
    201  CE1       39.1920   57.8770   28.4620 C.ar  283  HIS283      0.1986
    202  NE2       39.3310   58.5280   27.3240 N.ar  283  HIS283     -0.2212
    203  N         43.7140   59.2030   27.8170 N.am  284  TYR284     -0.1976
    204  CA        43.9960   58.5200   26.5740 C.3   284  TYR284      0.1639
    205  C         45.0840   57.4810   26.7740 C.2   284  TYR284      0.2290
    206  O         44.9080   56.3310   26.4200 O.2   284  TYR284     -0.2864
    207  CB        44.4720   59.5470   25.5150 C.3   284  TYR284      0.0560
    208  CG        43.3720   60.3190   24.8270 C.ar  284  TYR284     -0.0198
    209  CD1       42.7250   59.7870   23.7280 C.ar  284  TYR284     -0.0009
    210  CD2       42.9900   61.5940   25.2770 C.ar  284  TYR284     -0.0009
    211  CE1       41.7170   60.4830   23.0670 C.ar  284  TYR284      0.0417
    212  CE2       41.9570   62.3140   24.6300 C.ar  284  TYR284      0.0417
    213  CZ        41.3230   61.7400   23.5340 C.ar  284  TYR284      0.1957
    214  OH        40.3400   62.4190   22.8650 O.3   284  TYR284     -0.2866
    215  N         43.6280   53.4080   26.9680 N.3   288  HIS288     -0.1241
    216  CA        43.5590   52.6190   25.7330 C.3   288  HIS288      0.1621
    217  C         44.6940   51.6250   25.6860 C.2   288  HIS288      0.2264
    218  O         45.6600   51.7990   24.9410 O.2   288  HIS288     -0.2867
    219  CB        43.5670   53.5030   24.4850 C.3   288  HIS288      0.0745
    220  CG        42.5060   54.5630   24.4720 C.ar  288  HIS288      0.0817
    221  ND1       42.6930   55.7910   23.8760 N.ar  288  HIS288     -0.2268
    222  CD2       41.2510   54.5820   24.9790 C.ar  288  HIS288      0.1154
    223  CE1       41.5930   56.5140   23.9990 C.ar  288  HIS288      0.1986
    224  NE2       40.7060   55.8060   24.6710 N.ar  288  HIS288     -0.2212
@<TRIPOS>BOND
     1   169   170    1
     2   171   170    1
     3   171   172    2
     4   170   173    1
     5   176   178   ar
     6   176   174   ar
     7   173   174    1
     8   178   179   ar
     9   174   175   ar
    10   179   180    1
    11   179   177   ar
    12   175   177   ar
    13    21    22    1
    14    24    23    2
    15   183   184    2
    16   183   182    1
    17    23    22    1
    18    23    32   am
    19    22    25    1
    20   181   182    1
    21    25    26    1
    22    45    42    1
    23   182   185    1
    24    41    42    1
    25    41    34   am
    26    32    33    1
    27   185   186    1
    28    33    34    1
    29    33    36    1
    30    42    43    1
    31    88    86    1
    32    26    27    1
    33    27    28    1
    34    34    35    2
    35    28    29    2
    36    77    76   ar
    37    77    75   ar
    38    76    74   ar
    39    36    37    1
    40    37    38    1
    41    86    87    1
    42    86    85    2
    43   186   188   ar
    44   186   187   ar
    45   188   190   ar
    46   162   160   ar
    47    43    44    2
    48    43    46   am
    49    75    73   ar
    50    31    29    1
    51    29    30    1
    52   160   161   ar
    53   160   159    1
    54   159   158    1
    55    46    47    1
    56    38    39    1
    57    40    39    1
    58    85    84    1
    59    74    71   ar
    60    49    48    2
    61   187   189   ar
    62   190   191   ar
    63    73    71   ar
    64    73    72   ar
    65    71    69   ar
    66    48    47    1
    67   158   155    1
    68    47    50    1
    69    84    83    1
    70   189   191   ar
    71   168   167    1
    72   191   192    1
    73    72    70   ar
    74   165   166    2
    75   165   164    1
    76    83    82    1
    77   155   156    1
    78   155   154    1
    79    69    70   ar
    80    69    68    1
    81   157   156    2
    82   156   163   am
    83   163   164    1
    84   167   164    1
    85    62    61    1
    86    62    63    1
    87    61    58    1
    88    82    79    1
    89    68    65    1
    90   109   108    1
    91   109   110    1
    92    65    64    1
    93    65    66    1
    94   154   148   am
    95    64    59   am
    96   214   213    1
    97    60    59    2
    98    59    58    1
    99   108   107    1
   100   211   213   ar
   101   211   209   ar
   102    58    57    1
   103   112   111    1
   104   149   148    2
   105   110   111    2
   106    63    57    1
   107    79    78    1
   108    79    80    1
   109   152   151    2
   110   148   147    1
   111   213   212   ar
   112    67    66    2
   113   209   208   ar
   114   111   113    1
   115   221   223   ar
   116   221   220   ar
   117   107   104    1
   118   223   224   ar
   119   103   104    1
   120    18    17    2
   121    57    53   am
   122    81    80    2
   123   131   129    1
   124   151   153   am
   125   151   150    1
   126   220   219    1
   127   220   222   ar
   128   219   216    1
   129   212   210   ar
   130   146   147    1
   131   224   222   ar
   132   147   150    1
   133   208   210   ar
   134   208   207    1
   135   104   105    1
   136   130   129    1
   137   218   217    2
   138    20    19    1
   139    17    16    1
   140   129   126    1
   141    56    55    1
   142    53    54    2
   143    53    52    1
   144   145   144    1
   145   145   139    1
   146   207   204    1
   147   106   105    2
   148   217   216    1
   149   144   143    1
   150   216   215    1
   151   135   134    2
   152     5     2    1
   153     5     6    1
   154   105   114   am
   155    16    19    1
   156    16    15    1
   157     2     1    1
   158     2     3    1
   159    52    55    1
   160    52    51    1
   161   206   205    2
   162   204   205    1
   163   204   203    1
   164   139   134   am
   165   139   140    1
   166   134   133    1
   167   126   125    1
   168   126   127    1
   169   142   141    2
   170     3     4    2
   171     3     7   am
   172   114   115    1
   173   125   116   am
   174   143   140    1
   175   202   200   ar
   176   202   201   ar
   177   200   198   ar
   178   127   132   am
   179   127   128    2
   180   140   141    1
   181     7     8    1
   182   132   133    1
   183   203   195   am
   184   116   115    1
   185   116   117    2
   186   133   136    1
   187   115   118    1
   188   201   199   ar
   189   138   136    1
   190   100   102   ar
   191   100    98   ar
   192   198   199   ar
   193   198   197    1
   194    10     9    2
   195   195   196    2
   196   195   194    1
   197     8     9    1
   198     8    11    1
   199   136   137    1
   200    97    98   ar
   201    97    95   ar
   202   102   101   ar
   203   118   119    1
   204   121   119   ar
   205   121   123   ar
   206   119   120   ar
   207   120   122   ar
   208   123   124   ar
   209   197   194    1
   210    98    96   ar
   211   124   122   ar
   212   194   193    1
   213    11    12    1
   214    95    94   ar
   215   101    99   ar
   216    96    94   ar
   217    96    99   ar
   218    13    12   ar
   219    12    14   ar
   220    94    93    1
   221    89    90    1
   222    93    90    1
   223    90    91    1
   224    91    92    2
