@<TRIPOS>MOLECULE
tmp/3ppzA00.pdb
 182 170 0 0 0
SMALL
GASTEIGER

@<TRIPOS>ATOM
      1  N        -10.8820   40.1480  -12.0140 N.3    18  ILE18      -0.1231
      2  CA       -12.1840   40.6360  -11.5710 C.3    18  ILE18       0.1692
      3  C        -12.0920   41.6000  -10.3890 C.2    18  ILE18       0.2593
      4  O        -13.0650   42.2750  -10.0570 O.2    18  ILE18      -0.2718
      5  CB       -13.1410   39.4780  -11.2210 C.3    18  ILE18       0.0266
      6  CG1      -12.5410   38.5990  -10.1220 C.3    18  ILE18       0.0019
      7  CG2      -13.4480   38.6500  -12.4600 C.3    18  ILE18       0.0020
      8  CD1      -13.4140   37.4230   -9.7350 C.3    18  ILE18       0.0001
      9  N        -10.9240   41.6670   -9.7600 N.am   19  GLY19      -0.1942
     10  CA       -10.7240   42.5720   -8.6410 C.3    19  GLY19       0.2014
     11  C         -9.2840   42.6500   -8.1720 C.2    19  GLY19       0.2638
     12  O         -8.4440   41.8460   -8.5770 O.2    19  GLY19      -0.2714
     13  N         -9.0010   43.6230   -7.3110 N.am   20  ALA20      -0.1977
     14  CA        -7.6550   43.8140   -6.7840 C.3    20  ALA20       0.1597
     15  C         -7.6770   44.1700   -5.3000 C.2    20  ALA20       0.2287
     16  O         -8.6640   44.7010   -4.7930 O.2    20  ALA20      -0.2864
     17  CB        -6.9230   44.8870   -7.5790 C.3    20  ALA20       0.0319
     18  N         -3.8190   41.9670   -0.5340 N.3    23  PHE23      -0.1241
     19  CA        -3.4530   40.5550   -0.4720 C.3    23  PHE23       0.1605
     20  C         -2.9250   40.0390   -1.8060 C.2    23  PHE23       0.2264
     21  O         -1.9180   39.3350   -1.8580 O.2    23  PHE23      -0.2867
     22  CB        -4.6580   39.7230   -0.0290 C.3    23  PHE23       0.0534
     23  CG        -5.9670   40.2150   -0.5820 C.ar   23  PHE23      -0.0203
     24  CD1       -6.3820   39.8520   -1.8530 C.ar   23  PHE23      -0.0042
     25  CD2       -6.7800   41.0470    0.1700 C.ar   23  PHE23      -0.0042
     26  CE1       -7.5850   40.3080   -2.3630 C.ar   23  PHE23      -0.0003
     27  CE2       -7.9830   41.5060   -0.3320 C.ar   23  PHE23      -0.0003
     28  CZ        -8.3870   41.1360   -1.6010 C.ar   23  PHE23      -0.0000
     29  N         -7.3660   38.8750   -8.0550 N.3    26  VAL26      -0.1245
     30  CA        -8.4180   37.8650   -8.1150 C.3    26  VAL26       0.1561
     31  C         -8.9790   37.7350   -9.5300 C.2    26  VAL26       0.2260
     32  O         -9.3970   38.7220  -10.1370 O.2    26  VAL26      -0.2867
     33  CB        -9.5620   38.1630   -7.1260 C.3    26  VAL26       0.0252
     34  CG1      -10.0730   39.5750   -7.3130 C.3    26  VAL26       0.0019
     35  CG2      -10.6890   37.1590   -7.3000 C.3    26  VAL26       0.0019
     36  N        -14.0820   31.5850   -8.7700 N.3    37  ALA37      -0.1245
     37  CA       -13.2740   32.7850   -8.5770 C.3    37  ALA37       0.1562
     38  C        -12.0420   32.4700   -7.7300 C.2    37  ALA37       0.2260
     39  O        -12.1550   31.8940   -6.6480 O.2    37  ALA37      -0.2867
     40  CB       -14.0990   33.8840   -7.9320 C.3    37  ALA37       0.0290
     41  N         -8.5230   33.5960   -5.6820 N.3    39  LYS39      -0.1245
     42  CA        -7.8740   34.6770   -4.9510 C.3    39  LYS39       0.1561
     43  C         -6.3800   34.4100   -4.7840 C.2    39  LYS39       0.2260
     44  O         -5.9580   33.8060   -3.7980 O.2    39  LYS39      -0.2867
     45  CB        -8.5350   34.8520   -3.5820 C.3    39  LYS39       0.0271
     46  CG        -7.9480   35.9650   -2.7290 C.3    39  LYS39       0.0035
     47  CD        -8.6670   36.0600   -1.3930 C.3    39  LYS39       0.0206
     48  CE        -8.1430   37.2160   -0.5590 C.3    39  LYS39       0.1093
     49  NZ        -8.8850   37.3610    0.7250 N.3    39  LYS39      -0.1314
     50  N         -7.2490   31.7300    7.2950 N.3    53  GLU53      -0.1245
     51  CA        -8.3990   32.1480    6.5020 C.3    53  GLU53       0.1567
     52  C         -9.0360   30.9650    5.7810 C.2    53  GLU53       0.2260
     53  O        -10.2250   30.9830    5.4690 O.2    53  GLU53      -0.2867
     54  CB        -8.0030   33.2280    5.4940 C.3    53  GLU53       0.0388
     55  CG        -9.1580   33.7170    4.6340 C.3    53  GLU53       0.1160
     56  CD        -8.7620   34.8410    3.6990 C.2    53  GLU53       0.3649
     57  OE1       -7.5990   35.2920    3.7660 O.co2  53  GLU53      -0.2457
     58  OE2       -9.6160   35.2740    2.8960 O.co2  53  GLU53      -0.2457
     59  N        -20.3030   33.3220    0.8700 N.3    66  VAL66      -0.1245
     60  CA       -19.6060   32.9300   -0.3500 C.3    66  VAL66       0.1561
     61  C        -19.0730   31.5080   -0.2210 C.2    66  VAL66       0.2260
     62  O        -18.3020   31.2040    0.6920 O.2    66  VAL66      -0.2867
     63  CB       -18.4570   33.8930   -0.6940 C.3    66  VAL66       0.0252
     64  CG1      -17.5440   33.2790   -1.7440 C.3    66  VAL66       0.0019
     65  CG2      -19.0140   35.2230   -1.1790 C.3    66  VAL66       0.0019
     66  N         -7.3320   31.0470   -2.9100 N.3    80  ILE80      -0.1245
     67  CA        -8.5890   30.6200   -2.3100 C.3    80  ILE80       0.1561
     68  C         -9.6710   30.5560   -3.3780 C.2    80  ILE80       0.2260
     69  O        -10.0740   31.5810   -3.9300 O.2    80  ILE80      -0.2867
     70  CB        -9.0420   31.5740   -1.1920 C.3    80  ILE80       0.0252
     71  CG1       -8.0360   31.5550   -0.0400 C.3    80  ILE80       0.0019
     72  CG2      -10.4260   31.1890   -0.6950 C.3    80  ILE80       0.0019
     73  CD1       -8.4340   32.4250    1.1250 C.3    80  ILE80       0.0001
     74  N        -13.4160   29.9640   -4.6920 N.3    82  THR82      -0.1203
     75  CA       -14.8120   30.0120   -4.2840 C.3    82  THR82       0.1994
     76  C        -15.7000   30.0860   -5.5170 C.2    82  THR82       0.2618
     77  O        -15.2080   30.2190   -6.6380 O.2    82  THR82      -0.2717
     78  CB       -15.0990   31.2290   -3.3870 C.3    82  THR82       0.1784
     79  OG1      -14.8580   32.4350   -4.1220 O.3    82  THR82      -0.2211
     80  CG2      -14.2100   31.2080   -2.1570 C.3    82  THR82       0.0376
     81  N        -17.0100   29.9960   -5.3110 N.am   83  GLU83      -0.1965
     82  CA       -17.9500   30.1020   -6.4180 C.3    83  GLU83       0.1733
     83  C        -17.8890   31.4940   -7.0340 C.2    83  GLU83       0.2616
     84  O        -17.4410   32.4460   -6.3940 O.2    83  GLU83      -0.2715
     85  CB       -19.3710   29.7970   -5.9520 C.3    83  GLU83       0.0429
     86  CG       -19.8860   30.7410   -4.8870 C.3    83  GLU83       0.1163
     87  CD       -21.3570   30.5360   -4.5990 C.2    83  GLU83       0.3649
     88  OE1      -22.0660   30.0030   -5.4780 O.co2  83  GLU83      -0.2457
     89  OE2      -21.8040   30.9030   -3.4940 O.co2  83  GLU83      -0.2457
     90  N        -18.3440   31.6070   -8.2770 N.am   84  TYR84      -0.1960
     91  CA       -18.3030   32.8760   -8.9950 C.3    84  TYR84       0.1771
     92  C        -19.6660   33.5610   -9.0150 C.2    84  TYR84       0.2619
     93  O        -20.6520   32.9930   -9.4840 O.2    84  TYR84      -0.2715
     94  CB       -17.7960   32.6650  -10.4210 C.3    84  TYR84       0.0574
     95  CG       -17.7870   33.9210  -11.2590 C.ar   84  TYR84      -0.0198
     96  CD1      -16.8050   34.8850  -11.0870 C.ar   84  TYR84      -0.0009
     97  CD2      -18.7570   34.1400  -12.2270 C.ar   84  TYR84      -0.0009
     98  CE1      -16.7910   36.0360  -11.8520 C.ar   84  TYR84       0.0417
     99  CE2      -18.7520   35.2870  -12.9980 C.ar   84  TYR84       0.0417
    100  CZ       -17.7670   36.2330  -12.8070 C.ar   84  TYR84       0.1957
    101  OH       -17.7550   37.3780  -13.5710 O.3    84  TYR84      -0.2866
    102  N        -19.7100   34.7840   -8.4970 N.am   85  LEU85      -0.1963
    103  CA       -20.9240   35.5900   -8.5080 C.3    85  LEU85       0.1728
    104  C        -20.8190   36.6530   -9.5990 C.2    85  LEU85       0.2616
    105  O        -20.0550   37.6070   -9.4780 O.2    85  LEU85      -0.2715
    106  CB       -21.1410   36.2320   -7.1390 C.3    85  LEU85       0.0311
    107  CG       -21.2250   35.2330   -5.9840 C.3    85  LEU85       0.0022
    108  CD1      -21.4630   35.9350   -4.6610 C.3    85  LEU85       0.0001
    109  CD2      -22.3220   34.2180   -6.2550 C.3    85  LEU85       0.0001
    110  N        -21.5970   36.4830  -10.6610 N.am   86  SER86      -0.1950
    111  CA       -21.3930   37.2450  -11.8910 C.3    86  SER86       0.1924
    112  C        -21.7480   38.7310  -11.8170 C.2    86  SER86       0.2314
    113  O        -21.5120   39.4690  -12.7760 O.2    86  SER86      -0.2863
    114  CB       -22.1400   36.5860  -13.0560 C.3    86  SER86       0.2116
    115  OG       -23.5300   36.5110  -12.7970 O.3    86  SER86      -0.2180
    116  N        -20.6970   40.9190   -9.3220 N.3    88  GLY88      -0.1210
    117  CA       -19.7090   41.7010   -8.6020 C.3    88  GLY88       0.1956
    118  C        -20.1770   42.1930   -7.2480 C.2    88  GLY88       0.2612
    119  O        -21.1240   41.6570   -6.6740 O.2    88  GLY88      -0.2717
    120  N        -19.5090   43.2240   -6.7400 N.am   89  SER89      -0.1952
    121  CA       -19.8090   43.7470   -5.4130 C.3    89  SER89       0.1924
    122  C        -21.0610   44.6120   -5.4170 C.2    89  SER89       0.2314
    123  O        -21.3400   45.3220   -6.3860 O.2    89  SER89      -0.2863
    124  CB       -18.6310   44.5580   -4.8750 C.3    89  SER89       0.2116
    125  OG       -18.5580   45.8200   -5.5130 O.3    89  SER89      -0.2180
    126  N        -20.2960   48.5000   -6.0290 N.3    92  ARG92      -0.1245
    127  CA       -20.1970   48.9370   -7.4150 C.3    92  ARG92       0.1563
    128  C        -21.5430   48.8090   -8.1200 C.2    92  ARG92       0.2260
    129  O        -21.7730   49.4270   -9.1580 O.2    92  ARG92      -0.2867
    130  CB       -19.1280   48.1280   -8.1510 C.3    92  ARG92       0.0307
    131  CG       -17.7220   48.3420   -7.6130 C.3    92  ARG92       0.0489
    132  CD       -16.8260   47.1490   -7.9020 C.3    92  ARG92       0.2205
    133  NE       -15.4800   47.3300   -7.3640 N.pl3  92  ARG92      -0.0865
    134  CZ       -15.1590   47.1780   -6.0820 C.cat  92  ARG92       0.5346
    135  NH1      -16.0880   46.8500   -5.1950 N.pl3  92  ARG92       0.1354
    136  NH2      -13.9080   47.3620   -5.6850 N.pl3  92  ARG92       0.1354
    137  N        -18.6160   45.4280    4.7980 N.3   135  LYS135     -0.1245
    138  CA       -18.8680   46.6010    3.9650 C.3   135  LYS135      0.1561
    139  C        -19.4980   46.2180    2.6270 C.2   135  LYS135      0.2260
    140  O        -19.5210   45.0460    2.2530 O.2   135  LYS135     -0.2867
    141  CB       -17.5680   47.3700    3.7280 C.3   135  LYS135      0.0271
    142  CG       -16.4690   46.5340    3.0970 C.3   135  LYS135      0.0035
    143  CD       -15.1770   47.3220    2.9460 C.3   135  LYS135      0.0206
    144  CE       -14.1060   46.4770    2.2700 C.3   135  LYS135      0.1093
    145  NZ       -12.8200   47.2070    2.0910 N.3   135  LYS135     -0.1314
    146  N        -18.4540   46.7680   -0.4950 N.3   137  PRO137     -0.2102
    147  CA       -17.4740   46.1360   -1.3840 C.3   137  PRO137      0.1504
    148  C        -17.2620   44.6520   -1.0830 C.2   137  PRO137      0.2575
    149  O        -16.9810   43.8830   -2.0030 O.2   137  PRO137     -0.2718
    150  CB       -16.1950   46.9180   -1.0910 C.3   137  PRO137      0.0282
    151  CG       -16.6720   48.2500   -0.6630 C.3   137  PRO137      0.0208
    152  CD       -17.9210   47.9960    0.1180 C.3   137  PRO137      0.0893
    153  N        -17.3890   44.2590    0.1820 N.am  138  ASN138     -0.1975
    154  CA       -17.2130   42.8590    0.5680 C.3   138  ASN138      0.1688
    155  C        -18.4990   42.0380    0.4910 C.2   138  ASN138      0.2292
    156  O        -18.5910   40.9610    1.0760 O.2   138  ASN138     -0.2864
    157  CB       -16.6020   42.7450    1.9670 C.3   138  ASN138      0.1181
    158  CG       -15.1350   43.1260    1.9960 C.2   138  ASN138      0.2629
    159  OD1      -14.4570   43.1120    0.9670 O.2   138  ASN138     -0.2716
    160  ND2      -14.6340   43.4610    3.1790 N.am  138  ASN138     -0.0877
    161  N        -20.9700   40.3490   -2.3800 N.3   140  LEU140     -0.1245
    162  CA       -21.0760   40.0330   -3.7990 C.3   140  LEU140      0.1561
    163  C        -22.4960   39.6360   -4.1830 C.2   140  LEU140      0.2260
    164  O        -23.2670   39.1660   -3.3490 O.2   140  LEU140     -0.2867
    165  CB       -20.0880   38.9290   -4.1710 C.3   140  LEU140      0.0270
    166  CG       -18.6200   39.2340   -3.8690 C.3   140  LEU140      0.0019
    167  CD1      -17.7870   37.9660   -3.9260 C.3   140  LEU140      0.0001
    168  CD2      -18.0760   40.2920   -4.8190 C.3   140  LEU140      0.0001
    169  N        -18.6390   37.9610    1.9610 N.3   150  CYS150     -0.1221
    170  CA       -17.3510   37.5270    1.4660 C.3   150  CYS150      0.1808
    171  C        -16.1710   38.1810    2.1530 C.2   150  CYS150      0.2601
    172  O        -16.3490   39.0770    2.9420 O.2   150  CYS150     -0.2717
    173  CB       -17.3180   37.8040   -0.0290 C.3   150  CYS150      0.0970
    174  SG       -15.7290   37.7310   -0.7730 S.3   150  CYS150     -0.0800
    175  N        -14.9640   37.7560    1.8100 N.am  151  ASP151     -0.1973
    176  CA       -13.7570   38.3230    2.4060 C.3   151  ASP151      0.1709
    177  C        -13.6380   38.1790    3.9080 C.2   151  ASP151      0.2293
    178  O        -13.8350   39.1130    4.6560 O.2   151  ASP151     -0.2864
    179  CB       -13.5500   39.7730    1.9960 C.3   151  ASP151      0.1436
    180  CG       -12.1100   40.0750    1.6610 C.2   151  ASP151      0.3671
    181  OD1      -11.2090   39.6130    2.3810 O.co2 151  ASP151     -0.2456
    182  OD2      -11.8770   40.7810    0.6690 O.co2 151  ASP151     -0.2456
@<TRIPOS>BOND
     1   101   100    1
     2   114   115    1
     3   114   111    1
     4    99   100   ar
     5    99    97   ar
     6   100    98   ar
     7   113   112    2
     8     7     5    1
     9    97    95   ar
    10     1     2    1
    11   111   112    1
    12   111   110    1
    13    98    96   ar
    14     2     5    1
    15     2     3    1
    16    95    96   ar
    17    95    94    1
    18     5     6    1
    19   110   104   am
    20    94    91    1
    21     3     4    2
    22     3     9   am
    23    32    31    2
    24     6     8    1
    25     9    10    1
    26   104   105    2
    27   104   103    1
    28    31    30    1
    29    93    92    2
    30   116   117    1
    31   129   128    2
    32    92    91    1
    33    92   102   am
    34    91    90    1
    35    36    37    1
    36    10    11    1
    37   117   118    1
    38    12    11    2
    39    37    40    1
    40    37    38    1
    41   103   102    1
    42   103   106    1
    43    90    83   am
    44    11    13   am
    45   130   131    1
    46   130   127    1
    47   128   127    1
    48    30    29    1
    49    30    33    1
    50   132   131    1
    51   132   133    1
    52    38    39    2
    53    17    14    1
    54   127   126    1
    55   133   134    2
    56    34    33    1
    57    13    14    1
    58    35    33    1
    59   118   120   am
    60   118   119    2
    61   106   107    1
    62    83    82    1
    63    83    84    2
    64    14    15    1
    65   120   121    1
    66    77    76    2
    67    82    85    1
    68    82    81    1
    69   123   122    2
    70   109   107    1
    71   134   136    1
    72   134   135    1
    73   107   108    1
    74    85    86    1
    75    41    42    1
    76    76    81   am
    77    76    75    1
    78   125   124    1
    79    88    87   ar
    80   122   121    1
    81   121   124    1
    82    15    16    2
    83    42    43    1
    84    42    45    1
    85    86    87    1
    86   168   166    1
    87    43    44    2
    88    74    75    1
    89    87    89   ar
    90    75    78    1
    91   163   162    1
    92   163   164    2
    93   165   166    1
    94   165   162    1
    95    79    78    1
    96    69    68    2
    97   167   166    1
    98   162   161    1
    99    45    46    1
   100    78    80    1
   101    68    67    1
   102    66    67    1
   103    46    47    1
   104    26    24   ar
   105    26    28   ar
   106    67    70    1
   107   149   148    2
   108    21    20    2
   109    24    23   ar
   110    20    19    1
   111    64    63    1
   112    28    27   ar
   113    47    48    1
   114   147   150    1
   115   147   148    1
   116   147   146    1
   117    70    72    1
   118    70    71    1
   119    65    63    1
   120   150   151    1
   121   148   153   am
   122   174   173    1
   123    63    60    1
   124   151   152    1
   125    23    22    1
   126    23    25   ar
   127    48    49    1
   128    18    19    1
   129   146   152    1
   130    19    22    1
   131    60    61    1
   132    60    59    1
   133    27    25   ar
   134    61    62    2
   135    71    73    1
   136   173   170    1
   137   153   154    1
   138   155   154    1
   139   155   156    2
   140   154   157    1
   141   182   180   ar
   142   159   158    2
   143   170   169    1
   144   170   171    1
   145   180   179    1
   146   180   181   ar
   147   175   171   am
   148   175   176    1
   149   157   158    1
   150   179   176    1
   151   158   160   am
   152   145   144    1
   153   171   172    2
   154   140   139    2
   155   144   143    1
   156   176   177    1
   157   139   138    1
   158    58    56   ar
   159   143   142    1
   160   142   141    1
   161    56    57   ar
   162    56    55    1
   163   141   138    1
   164   177   178    2
   165   138   137    1
   166    55    54    1
   167    53    52    2
   168    54    51    1
   169    52    51    1
   170    51    50    1
