@<TRIPOS>MOLECULE
tmp/3pqbB01.pdb
 217 207 0 0 0
SMALL
GASTEIGER

@<TRIPOS>ATOM
      1  N         20.4360   -2.2040   76.0160 N.3    19  ASP19      -0.1225
      2  CA        20.4750   -3.3770   76.8790 C.3    19  ASP19       0.1805
      3  C         20.8430   -4.6520   76.1150 C.2    19  ASP19       0.2597
      4  O         21.6610   -5.4270   76.5850 O.2    19  ASP19      -0.2718
      5  CB        19.1440   -3.5520   77.6220 C.3    19  ASP19       0.1424
      6  CG        19.1620   -4.7360   78.5940 C.2    19  ASP19       0.3668
      7  OD1       19.7610   -4.5920   79.6940 O.co2  19  ASP19      -0.2456
      8  OD2       18.5700   -5.7980   78.2560 O.co2  19  ASP19      -0.2456
      9  N         20.2460   -4.8600   74.9430 N.am   20  ASN20      -0.1974
     10  CA        20.5780   -6.0190   74.1100 C.3    20  ASN20       0.1688
     11  C         21.8470   -5.7840   73.3010 C.2    20  ASN20       0.2292
     12  O         21.8540   -5.0090   72.3520 O.2    20  ASN20      -0.2864
     13  CB        19.4150   -6.3680   73.1780 C.3    20  ASN20       0.1181
     14  CG        19.5490   -7.7610   72.5530 C.2    20  ASN20       0.2629
     15  OD1       18.5480   -8.3960   72.2110 O.2    20  ASN20      -0.2716
     16  ND2       20.7790   -8.2330   72.3990 N.am   20  ASN20      -0.0877
     17  N         15.6040   -0.9090   76.2540 N.3    60  HIS60      -0.1241
     18  CA        15.2340   -2.3010   76.3850 C.3    60  HIS60       0.1621
     19  C         14.6550   -2.9790   75.1720 C.2    60  HIS60       0.2264
     20  O         14.2220   -4.0540   75.2160 O.2    60  HIS60      -0.2867
     21  CB        14.3810   -2.5430   77.6080 C.3    60  HIS60       0.0745
     22  CG        15.1560   -2.9770   78.7970 C.ar   60  HIS60       0.0817
     23  ND1       15.4290   -4.2860   79.0690 N.ar   60  HIS60      -0.2268
     24  CD2       15.7320   -2.2630   79.7720 C.ar   60  HIS60       0.1154
     25  CE1       16.1480   -4.3550   80.1580 C.ar   60  HIS60       0.1986
     26  NE2       16.3420   -3.1420   80.6050 N.ar   60  HIS60      -0.2212
     27  N         13.8030   -5.1610   72.1840 N.3    62  GLY62      -0.1225
     28  CA        14.1820   -6.5180   71.8050 C.3    62  GLY62       0.1811
     29  C         14.8760   -6.5870   70.4390 C.2    62  GLY62       0.2280
     30  O         15.5130   -7.5790   70.1200 O.2    62  GLY62      -0.2866
     31  N          5.7260   -2.9560   84.4010 N.3   118  GLY118     -0.1210
     32  CA         6.3050   -4.2740   84.2310 C.3   118  GLY118      0.1956
     33  C          7.1250   -4.7500   85.4130 C.2   118  GLY118      0.2612
     34  O          7.3110   -4.0330   86.3970 O.2   118  GLY118     -0.2717
     35  N          7.6510   -5.9640   85.3000 N.am  119  ALA119     -0.1965
     36  CA         8.4710   -6.5350   86.3550 C.3   119  ALA119      0.1728
     37  C          9.9470   -6.1240   86.2900 C.2   119  ALA119      0.2616
     38  O         10.7210   -6.4540   87.1830 O.2   119  ALA119     -0.2715
     39  CB         8.3490   -8.0360   86.3360 C.3   119  ALA119      0.0334
     40  N         10.3500   -5.4290   85.2590 N.am  120  CYS120     -0.1968
     41  CA        11.7390   -5.0570   85.0720 C.3   120  CYS120      0.1712
     42  C         12.0190   -3.5780   85.4020 C.2   120  CYS120      0.2296
     43  O         11.5880   -2.7050   84.7120 O.2   120  CYS120     -0.2864
     44  CB        12.2050   -5.4370   83.6670 C.3   120  CYS120      0.0983
     45  SG        12.0480   -7.1310   83.0970 S.3   120  CYS120     -0.0798
     46  N          2.2950   -4.4550   80.3900 N.3   134  TYR134     -0.1227
     47  CA         1.5880   -5.2320   81.4000 C.3   134  TYR134      0.1736
     48  C          2.5270   -5.6130   82.5200 C.2   134  TYR134      0.2596
     49  O          3.7430   -5.5280   82.3810 O.2   134  TYR134     -0.2718
     50  CB         0.9430   -6.4740   80.8100 C.3   134  TYR134      0.0548
     51  CG         1.8980   -7.6200   80.6500 C.ar  134  TYR134     -0.0200
     52  CD1        2.8680   -7.6030   79.6560 C.ar  134  TYR134     -0.0009
     53  CD2        1.8280   -8.7330   81.4870 C.ar  134  TYR134     -0.0009
     54  CE1        3.7620   -8.6690   79.4960 C.ar  134  TYR134      0.0417
     55  CE2        2.7080   -9.8190   81.3300 C.ar  134  TYR134      0.0417
     56  CZ         3.6670   -9.7770   80.3370 C.ar  134  TYR134      0.1957
     57  OH         4.5410  -10.8220   80.1820 O.3   134  TYR134     -0.2866
     58  N          1.9550   -6.0390   83.6370 N.am  135  GLY135     -0.1943
     59  CA         2.7500   -6.3680   84.7980 C.3   135  GLY135      0.1998
     60  C          1.9900   -7.2460   85.7640 C.2   135  GLY135      0.2480
     61  O          0.8380   -7.5920   85.5180 O.2   135  GLY135     -0.2729
     62  N          2.6280   -7.5880   86.8860 N.am  136  PRO136     -0.2726
     63  CA         2.0400   -8.4030   87.9520 C.3   136  PRO136      0.1402
     64  C          0.7090   -7.8270   88.4430 C.2   136  PRO136      0.2269
     65  O         -0.1180   -8.5750   88.9290 O.2   136  PRO136     -0.2865
     66  CB         3.0800   -8.3050   89.0670 C.3   136  PRO136      0.0296
     67  CG         4.3680   -8.0870   88.3530 C.3   136  PRO136      0.0237
     68  CD         4.0050   -7.1740   87.2010 C.3   136  PRO136      0.0939
     69  N         -1.0820  -13.3600   90.7040 N.3   260  PHE260     -0.1241
     70  CA        -0.3000  -13.3140   89.4750 C.3   260  PHE260      0.1605
     71  C          0.9030  -14.2600   89.5480 C.2   260  PHE260      0.2264
     72  O          1.6950  -14.1980   90.4900 O.2   260  PHE260     -0.2867
     73  CB         0.1500  -11.8720   89.1620 C.3   260  PHE260      0.0534
     74  CG         1.1020  -11.7850   88.0000 C.ar  260  PHE260     -0.0203
     75  CD1        0.6240  -11.6230   86.6950 C.ar  260  PHE260     -0.0042
     76  CD2        2.4730  -11.9100   88.2030 C.ar  260  PHE260     -0.0042
     77  CE1        1.4990  -11.5660   85.6190 C.ar  260  PHE260     -0.0003
     78  CE2        3.3480  -11.8570   87.1370 C.ar  260  PHE260     -0.0003
     79  CZ         2.8620  -11.6900   85.8380 C.ar  260  PHE260     -0.0000
     80  N          4.3180  -16.2300   87.5240 N.3   262  THR262     -0.1218
     81  CA         5.3460  -16.2260   86.4920 C.3   262  THR262      0.1862
     82  C          6.0630  -17.5700   86.5650 C.2   262  THR262      0.2287
     83  O          6.7070  -17.8820   87.5500 O.2   262  THR262     -0.2866
     84  CB         6.3940  -15.1140   86.7430 C.3   262  THR262      0.1770
     85  OG1        5.7610  -13.8330   86.7120 O.3   262  THR262     -0.2211
     86  CG2        7.4980  -15.1490   85.6900 C.3   262  THR262      0.0375
     87  N          8.9520  -19.7700   85.1830 N.3   264  PHE264     -0.1241
     88  CA        10.1780  -19.9010   84.3940 C.3   264  PHE264      0.1605
     89  C         10.4320  -21.3800   84.1330 C.2   264  PHE264      0.2264
     90  O         10.8440  -22.1280   85.0290 O.2   264  PHE264     -0.2867
     91  CB        11.3780  -19.2860   85.1130 C.3   264  PHE264      0.0534
     92  CG        11.3500  -17.7960   85.1580 C.ar  264  PHE264     -0.0203
     93  CD1       10.8660  -17.1300   86.2750 C.ar  264  PHE264     -0.0042
     94  CD2       11.8080  -17.0490   84.0800 C.ar  264  PHE264     -0.0042
     95  CE1       10.8500  -15.7390   86.3270 C.ar  264  PHE264     -0.0003
     96  CE2       11.7850  -15.6590   84.1160 C.ar  264  PHE264     -0.0003
     97  CZ        11.3020  -15.0010   85.2380 C.ar  264  PHE264     -0.0000
     98  N          7.1330  -18.2290   90.3380 N.3   276  MET276     -0.1245
     99  CA         6.9520  -17.0970   91.2280 C.3   276  MET276      0.1570
    100  C          5.4840  -16.7190   91.2760 C.2   276  MET276      0.2261
    101  O          4.8250  -16.6540   90.2510 O.2   276  MET276     -0.2867
    102  CB         7.8070  -15.9150   90.7630 C.3   276  MET276      0.0387
    103  CG         9.2390  -16.3490   90.4000 C.3   276  MET276      0.0595
    104  SD        10.4170  -15.0050   90.4350 S.3   276  MET276     -0.1393
    105  CE         9.4470  -13.6610   89.7490 C.3   276  MET276      0.0692
    106  N         10.1530   -9.5820   93.8940 N.3   321  MET321     -0.1230
    107  CA         9.6420  -10.2860   92.7120 C.3   321  MET321      0.1702
    108  C         10.2510   -9.7970   91.3880 C.2   321  MET321      0.2593
    109  O         10.1840  -10.5030   90.3870 O.2   321  MET321     -0.2718
    110  CB         8.1010  -10.1570   92.6540 C.3   321  MET321      0.0401
    111  CG         7.4040  -10.6660   93.8940 C.3   321  MET321      0.0596
    112  SD         7.7260  -12.4290   94.1510 S.3   321  MET321     -0.1393
    113  CE         6.7040  -13.1520   92.8680 C.3   321  MET321      0.0692
    114  N         10.8580   -8.6000   91.4070 N.am  322  SER322     -0.1938
    115  CA        11.3340   -7.8870   90.2030 C.3   322  SER322      0.2055
    116  C         12.7470   -8.2190   89.7570 C.2   322  SER322      0.2642
    117  O         13.5360   -8.7700   90.5260 O.2   322  SER322     -0.2714
    118  CB        11.2690   -6.3630   90.4070 C.3   322  SER322      0.2130
    119  OG         9.9450   -5.8670   90.3020 O.3   322  SER322     -0.2179
    120  N         13.0420   -7.8480   88.5040 N.am  323  GLN323     -0.1976
    121  CA        14.3800   -7.9130   87.8960 C.3   323  GLN323      0.1601
    122  C         14.9820   -6.4990   87.7540 C.2   323  GLN323      0.2287
    123  O         14.4040   -5.6290   87.0850 O.2   323  GLN323     -0.2864
    124  CB        14.3160   -8.6030   86.5190 C.3   323  GLN323      0.0394
    125  CG        15.6650   -8.7150   85.7850 C.3   323  GLN323      0.0908
    126  CD        16.6970   -9.4540   86.6130 C.2   323  GLN323      0.2608
    127  OE1       16.4750  -10.5990   87.0180 O.2   323  GLN323     -0.2717
    128  NE2       17.8200   -8.7920   86.9040 N.am  323  GLN323     -0.0878
    129  N         22.0550  -10.3650   83.7550 N.3   329  VAL329     -0.1245
    130  CA        21.1920   -9.8060   82.7070 C.3   329  VAL329      0.1561
    131  C         21.8310   -8.5980   82.0000 C.2   329  VAL329      0.2260
    132  O         21.2960   -8.0950   81.0030 O.2   329  VAL329     -0.2867
    133  CB        19.8120   -9.3770   83.2720 C.3   329  VAL329      0.0252
    134  CG1       19.1110  -10.5630   83.9440 C.3   329  VAL329      0.0019
    135  CG2       19.9550   -8.1680   84.2380 C.3   329  VAL329      0.0019
    136  N         20.7200  -11.2060   73.4900 N.3   334  SER334     -0.1202
    137  CA        19.4870  -11.9700   73.7000 C.3   334  SER334      0.2020
    138  C         18.5510  -11.9870   72.5080 C.2   334  SER334      0.2619
    139  O         18.6460  -11.1560   71.6030 O.2   334  SER334     -0.2717
    140  CB        18.7280  -11.4810   74.9420 C.3   334  SER334      0.2103
    141  OG        18.4270  -10.0880   74.8850 O.3   334  SER334     -0.2182
    142  N         17.6450  -12.9520   72.5180 N.am  335  ALA335     -0.1965
    143  CA        16.5840  -13.0230   71.5390 C.3   335  ALA335      0.1728
    144  C         15.3280  -13.4960   72.2530 C.2   335  ALA335      0.2616
    145  O         15.3970  -14.3000   73.1920 O.2   335  ALA335     -0.2715
    146  CB        16.9710  -13.9610   70.3980 C.3   335  ALA335      0.0334
    147  N         14.1780  -12.9910   71.8260 N.am  336  SER336     -0.1950
    148  CA        12.9370  -13.3810   72.4710 C.3   336  SER336      0.1924
    149  C         11.8040  -13.4120   71.4720 C.2   336  SER336      0.2314
    150  O         11.8300  -12.7020   70.4760 O.2   336  SER336     -0.2863
    151  CB        12.5940  -12.4010   73.5860 C.3   336  SER336      0.2116
    152  OG        12.0590  -11.2260   73.0200 O.3   336  SER336     -0.2180
    153  N         15.0230  -20.1270   78.3970 N.3   367  TYR367     -0.1241
    154  CA        13.8100  -20.5930   79.0590 C.3   367  TYR367      0.1605
    155  C         12.5740  -20.1180   78.3670 C.2   367  TYR367      0.2264
    156  O         12.6550  -19.2790   77.4660 O.2   367  TYR367     -0.2867
    157  CB        13.7790  -20.1060   80.5020 C.3   367  TYR367      0.0534
    158  CG        13.9090  -18.5950   80.6670 C.ar  367  TYR367     -0.0201
    159  CD1       12.8490  -17.7440   80.3810 C.ar  367  TYR367     -0.0009
    160  CD2       15.0830  -18.0320   81.1570 C.ar  367  TYR367     -0.0009
    161  CE1       12.9660  -16.3600   80.5390 C.ar  367  TYR367      0.0417
    162  CE2       15.2110  -16.6670   81.3310 C.ar  367  TYR367      0.0417
    163  CZ        14.1550  -15.8250   81.0110 C.ar  367  TYR367      0.1957
    164  OH        14.2940  -14.4600   81.1800 O.3   367  TYR367     -0.2866
    165  N          9.0830  -18.3190   79.6530 N.3   369  MET369     -0.1245
    166  CA         8.3900  -17.7370   80.7890 C.3   369  MET369      0.1570
    167  C          6.8940  -17.6830   80.4590 C.2   369  MET369      0.2261
    168  O          6.4940  -17.1530   79.4170 O.2   369  MET369     -0.2867
    169  CB         8.9480  -16.3360   81.0380 C.3   369  MET369      0.0387
    170  CG         8.3450  -15.5660   82.1790 C.3   369  MET369      0.0595
    171  SD         8.8840  -13.8200   82.1870 S.3   369  MET369     -0.1393
    172  CE        10.5290  -13.9430   81.4900 C.3   369  MET369      0.0692
    173  N          3.3540  -16.1850   81.9020 N.3   371  ASN371     -0.1240
    174  CA         2.7640  -15.2470   82.8470 C.3   371  ASN371      0.1653
    175  C          1.2390  -15.2870   82.8800 C.2   371  ASN371      0.2266
    176  O          0.5860  -15.3700   81.8470 O.2   371  ASN371     -0.2867
    177  CB         3.2070  -13.8200   82.5130 C.3   371  ASN371      0.1155
    178  CG         4.6720  -13.5790   82.8200 C.2   371  ASN371      0.2627
    179  OD1        5.3340  -12.7920   82.1550 O.2   371  ASN371     -0.2716
    180  ND2        5.1870  -14.2670   83.8310 N.am  371  ASN371     -0.0877
    181  N          6.7510  -15.7190   76.9200 N.3   397  SER397     -0.1217
    182  CA         7.9580  -15.1050   76.4020 C.3   397  SER397      0.1889
    183  C          8.9990  -16.2170   76.2460 C.2   397  SER397      0.2288
    184  O          9.2870  -16.9190   77.1970 O.2   397  SER397     -0.2866
    185  CB         8.4410  -14.0200   77.3790 C.3   397  SER397      0.2089
    186  OG         9.6550  -13.4550   76.9530 O.3   397  SER397     -0.2183
    187  N         12.7460  -17.2400   75.3860 N.3   399  PHE399     -0.1241
    188  CA        13.9120  -16.4160   75.6240 C.3   399  PHE399      0.1605
    189  C         15.2520  -17.1510   75.6000 C.2   399  PHE399      0.2264
    190  O         15.4070  -18.2640   76.1070 O.2   399  PHE399     -0.2867
    191  CB        13.7290  -15.7080   76.9680 C.3   399  PHE399      0.0534
    192  CG        14.8100  -14.7200   77.2920 C.ar  399  PHE399     -0.0203
    193  CD1       15.8680  -15.0790   78.1180 C.ar  399  PHE399     -0.0042
    194  CD2       14.7620  -13.4200   76.7910 C.ar  399  PHE399     -0.0042
    195  CE1       16.8730  -14.1610   78.4310 C.ar  399  PHE399     -0.0003
    196  CE2       15.7700  -12.4920   77.0920 C.ar  399  PHE399     -0.0003
    197  CZ        16.8240  -12.8640   77.9200 C.ar  399  PHE399     -0.0000
    198  N          5.8610   -5.1970   72.1780 N.3   442  ASN442     -0.1225
    199  CA         6.9860   -4.9020   73.0630 C.3   442  ASN442      0.1785
    200  C          7.9780   -6.0640   73.2070 C.2   442  ASN442      0.2597
    201  O          9.0060   -5.9060   73.8640 O.2   442  ASN442     -0.2718
    202  CB         6.5060   -4.4280   74.4410 C.3   442  ASN442      0.1169
    203  CG         6.3610   -2.9190   74.5150 C.2   442  ASN442      0.2627
    204  OD1        6.9950   -2.1980   73.7540 O.2   442  ASN442     -0.2716
    205  ND2        5.5300   -2.4380   75.4330 N.am  442  ASN442     -0.0877
    206  N          7.6580   -7.2200   72.6170 N.am  443  TYR443     -0.1976
    207  CA         8.6350   -8.3000   72.4190 C.3   443  TYR443      0.1639
    208  C          8.7980   -8.5160   70.9240 C.2   443  TYR443      0.2290
    209  O          8.4960   -9.6070   70.4300 O.2   443  TYR443     -0.2864
    210  CB         8.1540   -9.6420   72.9670 C.3   443  TYR443      0.0560
    211  CG         7.7620   -9.7390   74.4310 C.ar  443  TYR443     -0.0198
    212  CD1        7.0050  -10.8220   74.8740 C.ar  443  TYR443     -0.0009
    213  CD2        8.1450   -8.7930   75.3650 C.ar  443  TYR443     -0.0009
    214  CE1        6.6300  -10.9600   76.1930 C.ar  443  TYR443      0.0417
    215  CE2        7.7680   -8.9310   76.7120 C.ar  443  TYR443      0.0417
    216  CZ         7.0010  -10.0130   77.1090 C.ar  443  TYR443      0.1957
    217  OH         6.6000  -10.1870   78.4110 O.3   443  TYR443     -0.2866
@<TRIPOS>BOND
     1    30    29    2
     2   146   143    1
     3   209   208    2
     4    29    28    1
     5   150   149    2
     6   208   207    1
     7   149   148    1
     8   143   144    1
     9   143   142    1
    10   139   138    2
    11    28    27    1
    12   147   144   am
    13   147   148    1
    14   198   199    1
    15    15    14    2
    16   144   145    2
    17    12    11    2
    18    16    14   am
    19   207   206    1
    20   207   210    1
    21   148   151    1
    22   138   142   am
    23   138   137    1
    24    14    13    1
    25   206   200   am
    26   210   211    1
    27   152   151    1
    28   199   200    1
    29   199   202    1
    30    13    10    1
    31   200   201    2
    32    11    10    1
    33   136   137    1
    34   137   140    1
    35   204   203    2
    36    10     9    1
    37   211   212   ar
    38   211   213   ar
    39   202   203    1
    40   203   205   am
    41   212   214   ar
    42   141   140    1
    43     9     3   am
    44    19    20    2
    45    19    18    1
    46   213   215   ar
    47   187   188    1
    48   189   188    1
    49   189   190    2
    50   188   191    1
    51     1     2    1
    52     3     4    2
    53     3     2    1
    54   214   216   ar
    55   183   182    1
    56   183   184    2
    57    17    18    1
    58    18    21    1
    59   182   181    1
    60   182   185    1
    61   215   216   ar
    62   194   196   ar
    63   194   192   ar
    64     2     5    1
    65   186   185    1
    66   191   192    1
    67   196   197   ar
    68   216   217    1
    69   192   193   ar
    70   156   155    2
    71    21    22    1
    72     5     6    1
    73   197   195   ar
    74   193   195   ar
    75     8     6   ar
    76   155   154    1
    77   153   154    1
    78     6     7   ar
    79    22    23   ar
    80    22    24   ar
    81   154   157    1
    82    23    25   ar
    83   168   167    2
    84    54    52   ar
    85    54    56   ar
    86   165   166    1
    87    52    51   ar
    88    24    26   ar
    89    25    26   ar
    90    57    56    1
    91    56    55   ar
    92   159   161   ar
    93   159   158   ar
    94    46    47    1
    95   167   166    1
    96   157   158    1
    97   161   163   ar
    98    51    50    1
    99    51    53   ar
   100   158   160   ar
   101   166   169    1
   102    50    47    1
   103   132   131    2
   104   163   164    1
   105   163   162   ar
   106   169   170    1
   107   160   162   ar
   108    55    53   ar
   109    47    48    1
   110   172   171    1
   111   176   175    2
   112   173   174    1
   113   131   130    1
   114   179   178    2
   115   170   171    1
   116    49    48    2
   117   177   178    1
   118   177   174    1
   119    48    58   am
   120   130   133    1
   121   130   129    1
   122   178   180   am
   123   174   175    1
   124    45    44    1
   125   133   134    1
   126   133   135    1
   127    58    59    1
   128    44    41    1
   129    94    96   ar
   130    94    92   ar
   131    96    97   ar
   132    89    88    1
   133    89    90    2
   134    32    31    1
   135    32    33    1
   136    88    91    1
   137    88    87    1
   138    43    42    2
   139    59    60    1
   140    41    40    1
   141    41    42    1
   142    91    92    1
   143    92    93   ar
   144    97    95   ar
   145    40    37   am
   146    35    33   am
   147    35    36    1
   148    33    34    2
   149    61    60    2
   150    77    79   ar
   151    77    75   ar
   152    86    84    1
   153    60    62   am
   154   125   124    1
   155   125   126    1
   156    79    78   ar
   157    93    95   ar
   158    37    36    1
   159    37    38    2
   160    39    36    1
   161    81    82    1
   162    81    84    1
   163    81    80    1
   164   124   121    1
   165    82    83    2
   166   126   128   am
   167   126   127    2
   168    75    74   ar
   169    85    84    1
   170    62    68    1
   171    62    63    1
   172   123   122    2
   173    78    76   ar
   174    68    67    1
   175   122   121    1
   176   121   120    1
   177    63    64    1
   178    63    66    1
   179    74    76   ar
   180    74    73    1
   181    67    66    1
   182    64    65    2
   183   120   116   am
   184    73    70    1
   185    70    71    1
   186    70    69    1
   187    71    72    2
   188   105   104    1
   189   116   115    1
   190   116   117    2
   191   115   118    1
   192   115   114    1
   193   101   100    2
   194   119   118    1
   195    98    99    1
   196   109   108    2
   197   103   104    1
   198   103   102    1
   199   102    99    1
   200    99   100    1
   201   108   114   am
   202   108   107    1
   203   110   107    1
   204   110   111    1
   205   107   106    1
   206   113   112    1
   207   111   112    1
