@<TRIPOS>MOLECULE
tmp/3pqcB00.pdb
 109 105 0 0 0
SMALL
GASTEIGER

@<TRIPOS>ATOM
      1  N        -33.8900   -3.0790  -39.1340 N.3    30  ARG30      -0.1231
      2  CA       -34.8720   -3.0860  -40.2170 C.3    30  ARG30       0.1694
      3  C        -36.2250   -3.5640  -39.6930 C.2    30  ARG30       0.2593
      4  O        -36.2830   -4.4190  -38.8090 O.2    30  ARG30      -0.2718
      5  CB       -34.3920   -3.9850  -41.3560 C.3    30  ARG30       0.0321
      6  CG       -35.1350   -3.8190  -42.6670 C.3    30  ARG30       0.0489
      7  CD       -34.4870   -4.7070  -43.7280 C.3    30  ARG30       0.2205
      8  NE       -34.8970   -4.3700  -45.0870 N.pl3  30  ARG30      -0.0865
      9  CZ       -35.5070   -5.2150  -45.9140 C.cat  30  ARG30       0.5346
     10  NH1      -35.7830   -6.4510  -45.5170 N.pl3  30  ARG30       0.1354
     11  NH2      -35.8290   -4.8290  -47.1410 N.pl3  30  ARG30       0.1354
     12  N        -37.3180   -3.0080  -40.2110 N.am   31  SER31      -0.1938
     13  CA       -38.6260   -3.5650  -39.8820 C.3    31  SER31       0.2055
     14  C        -38.6170   -5.0500  -40.1930 C.2    31  SER31       0.2643
     15  O        -38.0790   -5.4610  -41.2120 O.2    31  SER31      -0.2714
     16  CB       -39.7460   -2.8690  -40.6580 C.3    31  SER31       0.2130
     17  OG       -39.8650   -1.5320  -40.2210 O.3    31  SER31      -0.2179
     18  N        -39.2070   -5.8310  -39.2950 N.am   32  ASN32      -0.1957
     19  CA       -39.3240   -7.2910  -39.4210 C.3    32  ASN32       0.1819
     20  C        -38.0820   -8.0760  -39.0140 C.2    32  ASN32       0.2621
     21  O        -38.0620   -9.3000  -39.1280 O.2    32  ASN32      -0.2715
     22  CB       -39.7790   -7.7290  -40.8200 C.3    32  ASN32       0.1195
     23  CG       -40.4790   -9.0820  -40.7940 C.2    32  ASN32       0.2630
     24  OD1      -40.0760  -10.0340  -41.4630 O.2    32  ASN32      -0.2716
     25  ND2      -41.5140   -9.1750  -39.9810 N.am   32  ASN32      -0.0877
     26  N        -37.0590   -7.3740  -38.5300 N.am   33  VAL33      -0.1963
     27  CA       -35.8060   -8.0090  -38.1220 C.3    33  VAL33       0.1727
     28  C        -35.9940   -8.8640  -36.8670 C.2    33  VAL33       0.2617
     29  O        -35.1960   -9.7670  -36.5970 O.2    33  VAL33      -0.2715
     30  CB       -34.6960   -6.9560  -37.8770 C.3    33  VAL33       0.0290
     31  CG1      -34.9510   -6.2330  -36.5790 C.3    33  VAL33       0.0023
     32  CG2      -33.3240   -7.6210  -37.8530 C.3    33  VAL33       0.0023
     33  N        -37.0580   -8.5840  -36.1130 N.am   34  GLY34      -0.1940
     34  CA       -37.3600   -9.3180  -34.8870 C.3    34  GLY34       0.2014
     35  C        -37.1780   -8.4930  -33.6220 C.2    34  GLY34       0.2639
     36  O        -36.9020   -9.0280  -32.5420 O.2    34  GLY34      -0.2714
     37  N        -37.3320   -7.1810  -33.7510 N.am   35  LYS35      -0.1963
     38  CA       -37.0990   -6.2810  -32.6210 C.3    35  LYS35       0.1728
     39  C        -38.1400   -6.4400  -31.5030 C.2    35  LYS35       0.2617
     40  O        -37.7880   -6.4990  -30.3210 O.2    35  LYS35      -0.2715
     41  CB       -37.0080   -4.8240  -33.1000 C.3    35  LYS35       0.0311
     42  CG       -36.7790   -3.8110  -31.9840 C.3    35  LYS35       0.0038
     43  CD       -36.1360   -2.5300  -32.5070 C.3    35  LYS35       0.0206
     44  CE       -36.9010   -1.9440  -33.7070 C.3    35  LYS35       0.1093
     45  NZ       -38.3070   -1.5600  -33.3530 N.3    35  LYS35      -0.1314
     46  N        -39.4170   -6.5130  -31.8680 N.am   36  SER36      -0.1936
     47  CA       -40.4520   -6.7440  -30.8620 C.3    36  SER36       0.2055
     48  C        -40.1950   -8.0560  -30.1290 C.2    36  SER36       0.2643
     49  O        -40.2930   -8.1210  -28.9030 O.2    36  SER36      -0.2714
     50  CB       -41.8500   -6.7710  -31.4920 C.3    36  SER36       0.2130
     51  OG       -42.1820   -5.5010  -32.0170 O.3    36  SER36      -0.2179
     52  N        -39.8670   -9.0940  -30.8870 N.am   37  SER37      -0.1949
     53  CA       -39.6540  -10.4230  -30.3160 C.3    37  SER37       0.1924
     54  C        -38.4490  -10.4450  -29.3910 C.2    37  SER37       0.2314
     55  O        -38.4540  -11.1380  -28.3770 O.2    37  SER37      -0.2863
     56  CB       -39.4990  -11.4680  -31.4210 C.3    37  SER37       0.2116
     57  OG       -40.6880  -11.5450  -32.1860 O.3    37  SER37      -0.2180
     58  N        -30.2130  -11.4720  -35.1780 N.3   140  THR140     -0.1203
     59  CA       -31.4770  -12.1030  -34.8030 C.3   140  THR140      0.1994
     60  C        -31.7200  -13.4100  -35.5730 C.2   140  THR140      0.2617
     61  O        -31.0530  -13.6980  -36.5710 O.2   140  THR140     -0.2717
     62  CB       -32.6530  -11.1550  -35.0660 C.3   140  THR140      0.1784
     63  OG1      -32.7090  -10.8400  -36.4620 O.3   140  THR140     -0.2211
     64  CG2      -32.4940   -9.8620  -34.2720 C.3   140  THR140      0.0376
     65  N        -32.6660  -14.2010  -35.0820 N.am  141  LYS141     -0.1979
     66  CA       -33.1870  -15.3560  -35.8000 C.3   141  LYS141      0.1596
     67  C        -32.1170  -16.4310  -36.0440 C.2   141  LYS141      0.2287
     68  O        -32.1730  -17.1520  -37.0270 O.2   141  LYS141     -0.2864
     69  CB       -33.8510  -14.9170  -37.1190 C.3   141  LYS141      0.0298
     70  CG       -35.0020  -13.9100  -36.9420 C.3   141  LYS141      0.0038
     71  CD       -35.6270  -13.4850  -38.2910 C.3   141  LYS141      0.0206
     72  CE       -36.8090  -12.5410  -38.0860 C.3   141  LYS141      0.1093
     73  NZ       -37.3850  -12.0480  -39.3830 N.3   141  LYS141     -0.1314
     74  N        -31.7810  -19.1750  -34.7890 N.3   143  ASP143     -0.1225
     75  CA       -32.3030  -20.5340  -34.7040 C.3   143  ASP143      0.1805
     76  C        -32.6700  -21.0520  -36.0930 C.2   143  ASP143      0.2597
     77  O        -32.8490  -22.2440  -36.2810 O.2   143  ASP143     -0.2718
     78  CB       -33.5160  -20.5860  -33.7800 C.3   143  ASP143      0.1424
     79  CG       -34.6100  -19.6470  -34.2200 C.2   143  ASP143      0.3668
     80  OD1      -34.4580  -18.4240  -34.0120 O.co2 143  ASP143     -0.2456
     81  OD2      -35.6110  -20.1260  -34.7900 O.co2 143  ASP143     -0.2456
     82  N        -32.7720  -20.1440  -37.0620 N.am  144  LYS144     -0.1979
     83  CA       -33.0900  -20.5200  -38.4390 C.3   144  LYS144      0.1596
     84  C        -31.8400  -20.8170  -39.2660 C.2   144  LYS144      0.2287
     85  O        -31.9400  -21.1810  -40.4350 O.2   144  LYS144     -0.2864
     86  CB       -33.9030  -19.4260  -39.1300 C.3   144  LYS144      0.0298
     87  CG       -35.2170  -19.0680  -38.4370 C.3   144  LYS144      0.0038
     88  CD       -36.1580  -20.2650  -38.3550 C.3   144  LYS144      0.0206
     89  CE       -37.3250  -20.1300  -39.3300 C.3   144  LYS144      0.1093
     90  NZ       -38.1630  -18.9210  -39.0720 N.3   144  LYS144     -0.1314
     91  N        -31.3770  -15.5380  -30.5200 N.3   173  SER173     -0.1202
     92  CA       -32.6250  -16.0940  -31.0060 C.3   173  SER173      0.2020
     93  C        -33.6740  -15.8700  -29.9310 C.2   173  SER173      0.2619
     94  O        -33.4720  -16.2530  -28.7810 O.2   173  SER173     -0.2717
     95  CB       -32.4830  -17.5890  -31.2610 C.3   173  SER173      0.2103
     96  OG       -33.7570  -18.1630  -31.4890 O.3   173  SER173     -0.2182
     97  N        -34.7910  -15.2540  -30.2980 N.am  174  SER174     -0.1937
     98  CA       -35.8760  -15.0650  -29.3460 C.3   174  SER174      0.2055
     99  C        -36.6100  -16.3790  -29.1320 C.2   174  SER174      0.2642
    100  O        -37.4520  -16.4870  -28.2480 O.2   174  SER174     -0.2714
    101  CB       -36.8480  -13.9900  -29.8350 C.3   174  SER174      0.2130
    102  OG       -36.2090  -12.7220  -29.8680 O.3   174  SER174     -0.2179
    103  N        -36.3020  -17.3680  -29.9650 N.am  175  VAL175     -0.1977
    104  CA       -36.9330  -18.6840  -29.8610 C.3   175  VAL175      0.1596
    105  C        -36.2060  -19.6000  -28.8670 C.2   175  VAL175      0.2287
    106  O        -36.8030  -20.0900  -27.9080 O.2   175  VAL175     -0.2864
    107  CB       -37.0590  -19.3560  -31.2510 C.3   175  VAL175      0.0276
    108  CG1      -37.5110  -20.8160  -31.1180 C.3   175  VAL175      0.0022
    109  CG2      -38.0440  -18.5730  -32.1310 C.3   175  VAL175      0.0022
@<TRIPOS>BOND
     1    11     9    1
     2     9    10    1
     3     9     8    2
     4     8     7    1
     5     7     6    1
     6     6     5    1
     7    24    23    2
     8     5     2    1
     9    15    14    2
    10    22    23    1
    11    22    19    1
    12    23    25   am
    13    16    17    1
    14    16    13    1
    15    85    84    2
    16     2     3    1
    17     2     1    1
    18    12    13    1
    19    12     3   am
    20    14    13    1
    21    14    18   am
    22     3     4    2
    23    19    18    1
    24    19    20    1
    25    73    72    1
    26    89    90    1
    27    89    88    1
    28    84    83    1
    29    86    83    1
    30    86    87    1
    31    21    20    2
    32    20    26   am
    33    26    27    1
    34    83    82    1
    35    87    88    1
    36    71    72    1
    37    71    70    1
    38    27    30    1
    39    27    28    1
    40    30    32    1
    41    30    31    1
    42    69    70    1
    43    69    66    1
    44    82    76   am
    45    68    67    2
    46    28    29    2
    47    28    33   am
    48    61    60    2
    49    63    62    1
    50    77    76    2
    51    33    34    1
    52    76    75    1
    53    67    66    1
    54    66    65    1
    55    60    65   am
    56    60    59    1
    57    58    59    1
    58    62    59    1
    59    62    64    1
    60    34    35    1
    61    81    79   ar
    62    74    75    1
    63    75    78    1
    64    79    80   ar
    65    79    78    1
    66    37    35   am
    67    37    38    1
    68    44    45    1
    69    44    43    1
    70    35    36    2
    71    41    38    1
    72    41    42    1
    73    38    39    1
    74    43    42    1
    75    57    56    1
    76   109   107    1
    77    51    50    1
    78    46    39   am
    79    46    47    1
    80    39    40    2
    81    50    47    1
    82    96    95    1
    83    56    53    1
    84    95    92    1
    85   107   108    1
    86   107   104    1
    87    92    91    1
    88    92    93    1
    89    52    53    1
    90    52    48   am
    91    47    48    1
    92    53    54    1
    93    97    93   am
    94    97    98    1
    95    48    49    2
    96   103   104    1
    97   103    99   am
    98    93    94    2
    99   102   101    1
   100   104   105    1
   101   101    98    1
   102    54    55    2
   103    98    99    1
   104    99   100    2
   105   105   106    2
