@<TRIPOS>MOLECULE
tmp/3pqdC00.pdb
 93 90 0 0 0
SMALL
GASTEIGER

@<TRIPOS>ATOM
      1  N         -4.6570   74.2990   28.8980 N.3   141  SER141     -0.1217
      2  CA        -3.3580   73.7550   29.2530 C.3   141  SER141      0.1889
      3  C         -2.2990   73.9830   28.1790 C.2   141  SER141      0.2288
      4  O         -1.1440   74.2340   28.5090 O.2   141  SER141     -0.2866
      5  CB        -3.4890   72.2610   29.5490 C.3   141  SER141      0.2089
      6  OG        -4.4040   72.0480   30.6070 O.3   141  SER141     -0.2183
      7  N          0.9910   76.3430   28.3230 N.3   145  ARG145     -0.1245
      8  CA         2.2980   75.7430   28.1190 C.3   145  ARG145      0.1563
      9  C          3.1210   76.4910   27.0720 C.2   145  ARG145      0.2260
     10  O          4.3390   76.6210   27.2210 O.2   145  ARG145     -0.2867
     11  CB         2.1590   74.2700   27.7640 C.3   145  ARG145      0.0307
     12  CG         1.4290   73.4850   28.8170 C.3   145  ARG145      0.0489
     13  CD         2.0410   72.1270   28.9880 C.3   145  ARG145      0.2205
     14  NE         1.2850   71.0610   28.3470 N.pl3 145  ARG145     -0.0865
     15  CZ         1.8440   70.0940   27.6250 C.cat 145  ARG145      0.5346
     16  NH1        3.1560   70.0800   27.4330 N.pl3 145  ARG145      0.1354
     17  NH2        1.0900   69.1450   27.0880 N.pl3 145  ARG145      0.1354
     18  N          7.0600   71.1890   24.7250 N.3   157  GLN157     -0.1231
     19  CA         7.0480   69.7610   25.0140 C.3   157  GLN157      0.1698
     20  C          7.6780   69.4350   26.3810 C.2   157  GLN157      0.2592
     21  O          7.3670   68.4050   26.9810 O.2   157  GLN157     -0.2718
     22  CB         7.6910   68.9590   23.8760 C.3   157  GLN157      0.0381
     23  CG         6.8510   68.9230   22.5860 C.3   157  GLN157      0.0905
     24  CD         6.6580   70.3150   21.9590 C.2   157  GLN157      0.2608
     25  OE1        7.4140   71.2510   22.2390 O.2   157  GLN157     -0.2717
     26  NE2        5.6480   70.4470   21.1090 N.am  157  GLN157     -0.0878
     27  N          8.5320   70.3290   26.8750 N.am  158  ASN158     -0.1960
     28  CA         9.1800   70.1550   28.1770 C.3   158  ASN158      0.1819
     29  C          8.6280   71.0180   29.3330 C.2   158  ASN158      0.2621
     30  O          9.1410   70.9590   30.4550 O.2   158  ASN158     -0.2715
     31  CB        10.6900   70.3510   28.0300 C.3   158  ASN158      0.1195
     32  CG        11.3010   69.3930   27.0150 C.2   158  ASN158      0.2630
     33  OD1       11.9990   69.8100   26.0920 O.2   158  ASN158     -0.2716
     34  ND2       11.0360   68.1000   27.1860 N.am  158  ASN158     -0.0877
     35  N          7.6070   71.8290   29.0560 N.am  159  VAL159     -0.1963
     36  CA         6.8790   72.5430   30.1040 C.3   159  VAL159      0.1727
     37  C          5.6310   71.7620   30.5200 C.2   159  VAL159      0.2616
     38  O          4.6950   71.6170   29.7400 O.2   159  VAL159     -0.2715
     39  CB         6.4020   73.9290   29.6420 C.3   159  VAL159      0.0290
     40  CG1        5.4440   74.5100   30.6640 C.3   159  VAL159      0.0023
     41  CG2        7.5690   74.8630   29.4040 C.3   159  VAL159      0.0023
     42  N          5.6070   71.2750   31.7550 N.am  160  HIS160     -0.1959
     43  CA         4.4880   70.4700   32.2200 C.3   160  HIS160      0.1787
     44  C          3.5970   71.2700   33.1620 C.2   160  HIS160      0.2620
     45  O          4.0540   71.7460   34.2030 O.2   160  HIS160     -0.2715
     46  CB         5.0280   69.2130   32.8900 C.3   160  HIS160      0.0785
     47  CG         6.2710   68.6960   32.2370 C.ar  160  HIS160      0.0821
     48  ND1        6.2560   67.6920   31.2990 N.ar  160  HIS160     -0.2267
     49  CD2        7.5630   69.0840   32.3490 C.ar  160  HIS160      0.1154
     50  CE1        7.4840   67.4680   30.8700 C.ar  160  HIS160      0.1986
     51  NE2        8.2980   68.2980   31.4940 N.ar  160  HIS160     -0.2212
     52  N          2.3280   71.4210   32.7920 N.am  161  ALA161     -0.1963
     53  CA         1.3910   72.2130   33.5860 C.3   161  ALA161      0.1728
     54  C         -0.0650   72.0050   33.1620 C.2   161  ALA161      0.2616
     55  O         -0.4230   72.1080   31.9850 O.2   161  ALA161     -0.2715
     56  CB         1.7600   73.7060   33.5250 C.3   161  ALA161      0.0334
     57  N         -0.9110   71.7320   34.1410 N.am  162  HIS162     -0.1973
     58  CA        -2.3050   71.4750   33.8590 C.3   162  HIS162      0.1656
     59  C         -3.1920   72.6660   34.1910 C.2   162  HIS162      0.2291
     60  O         -2.9810   73.3420   35.1970 O.2   162  HIS162     -0.2864
     61  CB        -2.7800   70.2520   34.6420 C.3   162  HIS162      0.0771
     62  CG        -2.1180   68.9750   34.2310 C.ar  162  HIS162      0.0820
     63  ND1       -2.2110   68.4650   32.9530 N.ar  162  HIS162     -0.2267
     64  CD2       -1.3790   68.0860   34.9380 C.ar  162  HIS162      0.1154
     65  CE1       -1.5510   67.3230   32.8890 C.ar  162  HIS162      0.1986
     66  NE2       -1.0340   67.0720   34.0790 N.ar  162  HIS162     -0.2212
     67  N         11.2060   70.8500   32.7960 N.3   181  GLY181     -0.1225
     68  CA        12.2680   69.8650   32.7890 C.3   181  GLY181      0.1811
     69  C         12.3020   69.0170   34.0470 C.2   181  GLY181      0.2280
     70  O         13.2880   68.3290   34.3200 O.2   181  GLY181     -0.2866
     71  N         -2.1400   61.0220   28.7530 N.3   243  ILE243     -0.1231
     72  CA        -2.7010   61.9210   29.7530 C.3   243  ILE243      0.1692
     73  C         -3.0100   63.2720   29.0890 C.2   243  ILE243      0.2592
     74  O         -2.1080   63.9610   28.6170 O.2   243  ILE243     -0.2718
     75  CB        -1.7430   62.0790   30.9620 C.3   243  ILE243      0.0266
     76  CG1       -1.4860   60.7050   31.6130 C.3   243  ILE243      0.0019
     77  CG2       -2.2970   63.0540   31.9680 C.3   243  ILE243      0.0020
     78  CD1       -0.8950   60.7590   33.0200 C.3   243  ILE243      0.0001
     79  N         -4.2920   63.6200   29.0260 N.am  244  LEU244     -0.1966
     80  CA        -4.7360   64.9130   28.5070 C.3   244  LEU244      0.1728
     81  C         -5.8490   65.4240   29.4080 C.2   244  LEU244      0.2616
     82  O         -6.5800   64.6350   29.9980 O.2   244  LEU244     -0.2715
     83  CB        -5.2580   64.7990   27.0640 C.3   244  LEU244      0.0311
     84  CG        -4.2890   64.4210   25.9450 C.3   244  LEU244      0.0022
     85  CD1       -5.0390   63.8480   24.7530 C.3   244  LEU244      0.0001
     86  CD2       -3.3960   65.6070   25.5280 C.3   244  LEU244      0.0001
     87  N         -5.9820   66.7400   29.5120 N.am  245  THR245     -0.1951
     88  CA        -6.9930   67.3220   30.3830 C.3   245  THR245      0.1897
     89  C         -8.3290   67.4660   29.6520 C.2   245  THR245      0.2313
     90  O         -8.8500   68.5610   29.4820 O.2   245  THR245     -0.2863
     91  CB        -6.5200   68.6560   31.0120 C.3   245  THR245      0.1794
     92  OG1       -6.7980   69.7550   30.1390 O.3   245  THR245     -0.2208
     93  CG2       -5.0180   68.6050   31.2940 C.3   245  THR245      0.0378
@<TRIPOS>BOND
     1    26    24   am
     2    24    25    2
     3    24    23    1
     4    23    22    1
     5    22    19    1
     6    18    19    1
     7    85    84    1
     8    19    20    1
     9    86    84    1
    10    84    83    1
    11    33    32    2
    12    20    27   am
    13    20    21    2
    14    27    28    1
    15    32    34   am
    16    32    31    1
    17    83    80    1
    18     9    10    2
    19     9     8    1
    20    17    15    1
    21    16    15    1
    22    15    14    2
    23    11     8    1
    24    11    12    1
    25    31    28    1
    26     8     7    1
    27    28    29    1
    28     3     4    2
    29     3     2    1
    30    14    13    1
    31    80    79    1
    32    80    81    1
    33    74    73    2
    34    71    72    1
    35    12    13    1
    36     1     2    1
    37    79    73   am
    38    35    29   am
    39    35    36    1
    40    73    72    1
    41     2     5    1
    42    29    30    2
    43    41    39    1
    44    81    87   am
    45    81    82    2
    46    90    89    2
    47    87    88    1
    48     5     6    1
    49    39    36    1
    50    39    40    1
    51    89    88    1
    52    38    37    2
    53    72    75    1
    54    36    37    1
    55    92    91    1
    56    88    91    1
    57    37    42   am
    58    50    48   ar
    59    50    51   ar
    60    75    76    1
    61    75    77    1
    62    91    93    1
    63    48    47   ar
    64    51    49   ar
    65    76    78    1
    66    42    43    1
    67    55    54    2
    68    43    46    1
    69    43    44    1
    70    47    49   ar
    71    47    46    1
    72    68    67    1
    73    68    69    1
    74    52    44   am
    75    52    53    1
    76    65    63   ar
    77    65    66   ar
    78    63    62   ar
    79    44    45    2
    80    54    53    1
    81    54    57   am
    82    56    53    1
    83    58    57    1
    84    58    59    1
    85    58    61    1
    86    69    70    2
    87    66    64   ar
    88    59    60    2
    89    62    61    1
    90    62    64   ar
