@<TRIPOS>MOLECULE
tmp/3pqvB00.pdb
 119 116 0 0 0
SMALL
GASTEIGER

@<TRIPOS>ATOM
      1  N         13.2590   77.3990   33.7670 N.3     9  SER9       -0.1202
      2  CA        13.2430   75.9420   33.7800 C.3     9  SER9        0.2020
      3  C         12.6770   75.3900   35.0820 C.2     9  SER9        0.2619
      4  O         12.6030   74.1760   35.2680 O.2     9  SER9       -0.2717
      5  CB        14.6580   75.4030   33.5710 C.3     9  SER9        0.2103
      6  OG        15.4990   75.7910   34.6420 O.3     9  SER9       -0.2182
      7  N         12.2860   76.2820   35.9850 N.am   10  ARG10      -0.1965
      8  CA        11.7410   75.8740   37.2730 C.3    10  ARG10       0.1729
      9  C         10.4880   75.0210   37.1060 C.2    10  ARG10       0.2616
     10  O          9.5620   75.3920   36.3810 O.2    10  ARG10      -0.2715
     11  CB        11.4260   77.0940   38.1420 C.3    10  ARG10       0.0348
     12  CG        10.8720   76.7470   39.5180 C.3    10  ARG10       0.0492
     13  CD        10.2410   77.9520   40.1990 C.3    10  ARG10       0.2205
     14  NE        11.1830   79.0570   40.3480 N.pl3  10  ARG10      -0.0865
     15  CZ        12.0350   79.1810   41.3590 C.cat  10  ARG10       0.5346
     16  NH1       12.0650   78.2640   42.3190 N.pl3  10  ARG10       0.1354
     17  NH2       12.8580   80.2210   41.4100 N.pl3  10  ARG10       0.1354
     18  N         10.4680   73.8780   37.7850 N.am   11  ASN11      -0.1958
     19  CA         9.3090   72.9990   37.7730 C.3    11  ASN11       0.1819
     20  C          8.8940   72.6290   36.3540 C.2    11  ASN11       0.2621
     21  O          7.7070   72.4900   36.0550 O.2    11  ASN11      -0.2715
     22  CB         8.1330   73.6390   38.5180 C.3    11  ASN11       0.1195
     23  CG         8.4320   73.8870   39.9890 C.2    11  ASN11       0.2630
     24  OD1        9.3410   73.2870   40.5680 O.2    11  ASN11      -0.2716
     25  ND2        7.6620   74.7770   40.6000 N.am   11  ASN11      -0.0877
     26  N          9.8830   72.4660   35.4830 N.am   12  PHE12      -0.1960
     27  CA         9.6250   72.1570   34.0820 C.3    12  PHE12       0.1771
     28  C          8.7090   70.9490   33.9250 C.2    12  PHE12       0.2619
     29  O          7.6320   71.0550   33.3340 O.2    12  PHE12      -0.2715
     30  CB        10.9440   71.9350   33.3420 C.3    12  PHE12       0.0574
     31  CG        10.7760   71.5850   31.8950 C.ar   12  PHE12      -0.0200
     32  CD1       11.3130   70.4140   31.3870 C.ar   12  PHE12      -0.0042
     33  CD2       10.0770   72.4220   31.0430 C.ar   12  PHE12      -0.0042
     34  CE1       11.1580   70.0870   30.0610 C.ar   12  PHE12      -0.0003
     35  CE2        9.9200   72.0990   29.7140 C.ar   12  PHE12      -0.0003
     36  CZ        10.4610   70.9290   29.2220 C.ar   12  PHE12      -0.0000
     37  N          9.1370   69.8090   34.4650 N.am   13  ARG13      -0.1963
     38  CA         8.3720   68.5660   34.3640 C.3    13  ARG13       0.1729
     39  C          6.9820   68.7010   34.9750 C.2    13  ARG13       0.2616
     40  O          5.9840   68.2700   34.3930 O.2    13  ARG13      -0.2715
     41  CB         9.1200   67.4210   35.0530 C.3    13  ARG13       0.0348
     42  CG        10.4430   67.0620   34.4110 C.3    13  ARG13       0.0492
     43  CD        11.2800   66.2010   35.3410 C.3    13  ARG13       0.2205
     44  NE        11.7650   66.9530   36.4930 N.pl3  13  ARG13      -0.0865
     45  CZ        12.2360   66.4030   37.6080 C.cat  13  ARG13       0.5346
     46  NH1       12.2820   65.0840   37.7320 N.pl3  13  ARG13       0.1354
     47  NH2       12.6560   67.1730   38.6030 N.pl3  13  ARG13       0.1354
     48  N          6.9320   69.2990   36.1590 N.am   14  LEU14      -0.1977
     49  CA         5.6870   69.4380   36.9020 C.3    14  LEU14       0.1596
     50  C          4.6550   70.2710   36.1400 C.2    14  LEU14       0.2287
     51  O          3.4600   69.9650   36.1560 O.2    14  LEU14      -0.2864
     52  CB         5.9630   70.0620   38.2680 C.3    14  LEU14       0.0297
     53  CG         4.7430   70.2430   39.1660 C.3    14  LEU14       0.0022
     54  CD1        4.0700   68.8990   39.4240 C.3    14  LEU14       0.0001
     55  CD2        5.1480   70.9130   40.4650 C.3    14  LEU14       0.0001
     56  N         16.5910   79.7160   30.2610 N.3    32  ARG32      -0.1245
     57  CA        18.0460   79.8580   30.2140 C.3    32  ARG32       0.1563
     58  C         18.5020   80.7500   29.0650 C.2    32  ARG32       0.2260
     59  O         19.3950   80.3780   28.3050 O.2    32  ARG32      -0.2867
     60  CB        18.7260   78.4900   30.0950 C.3    32  ARG32       0.0307
     61  CG        18.4590   77.5510   31.2530 C.3    32  ARG32       0.0489
     62  CD        19.2640   76.2690   31.1150 C.3    32  ARG32       0.2205
     63  NE        18.8800   75.2810   32.1190 N.pl3  32  ARG32      -0.0865
     64  CZ        17.8700   74.4290   31.9780 C.cat  32  ARG32       0.5346
     65  NH1       17.1370   74.4410   30.8720 N.pl3  32  ARG32       0.1354
     66  NH2       17.5890   73.5660   32.9450 N.pl3  32  ARG32       0.1354
     67  N         18.2480   66.6620   28.5500 N.3    43  TYR43      -0.1227
     68  CA        17.3920   65.8710   29.4290 C.3    43  TYR43       0.1736
     69  C         15.9610   66.3970   29.4690 C.2    43  TYR43       0.2595
     70  O         15.0380   65.6840   29.8690 O.2    43  TYR43      -0.2718
     71  CB        17.9760   65.7570   30.8410 C.3    43  TYR43       0.0548
     72  CG        18.2400   67.0700   31.5480 C.ar   43  TYR43      -0.0200
     73  CD1       17.1980   67.8190   32.0830 C.ar   43  TYR43      -0.0009
     74  CD2       19.5370   67.5390   31.7180 C.ar   43  TYR43      -0.0009
     75  CE1       17.4410   69.0110   32.7440 C.ar   43  TYR43       0.0417
     76  CE2       19.7910   68.7250   32.3780 C.ar   43  TYR43       0.0417
     77  CZ        18.7410   69.4600   32.8880 C.ar   43  TYR43       0.1957
     78  OH        18.9940   70.6440   33.5440 O.3    43  TYR43      -0.2866
     79  N         15.7800   67.6400   29.0330 N.am   44  GLU44      -0.1979
     80  CA        14.4550   68.2490   28.9930 C.3    44  GLU44       0.1602
     81  C         13.7420   67.9590   27.6760 C.2    44  GLU44       0.2287
     82  O         12.5280   67.7760   27.6480 O.2    44  GLU44      -0.2864
     83  CB        14.5390   69.7560   29.2590 C.3    44  GLU44       0.0415
     84  CG        15.1310   70.0820   30.6270 C.3    44  GLU44       0.1163
     85  CD        15.0830   71.5590   30.9710 C.2    44  GLU44       0.3649
     86  OE1       14.7950   72.3750   30.0730 O.co2  44  GLU44      -0.2457
     87  OE2       15.3340   71.9050   32.1450 O.co2  44  GLU44      -0.2457
     88  N         20.7620   63.2030   33.2430 N.3    89  LYS89      -0.1245
     89  CA        19.8370   62.9730   34.3500 C.3    89  LYS89       0.1561
     90  C         19.5820   61.4830   34.5440 C.2    89  LYS89       0.2260
     91  O         19.3750   60.7550   33.5730 O.2    89  LYS89      -0.2867
     92  CB        18.5110   63.6970   34.1110 C.3    89  LYS89       0.0271
     93  CG        18.5810   65.2120   34.2680 C.3    89  LYS89       0.0035
     94  CD        19.0410   65.6090   35.6660 C.3    89  LYS89       0.0206
     95  CE        19.1810   67.1190   35.8070 C.3    89  LYS89       0.1093
     96  NZ        19.6640   67.5160   37.1620 N.3    89  LYS89      -0.1314
     97  N         14.7890   61.0030   37.5150 N.3    93  TYR93      -0.1241
     98  CA        14.3590   62.2500   36.9020 C.3    93  TYR93       0.1605
     99  C         13.1460   62.0370   36.0040 C.2    93  TYR93       0.2264
    100  O         12.2430   62.8690   35.9600 O.2    93  TYR93      -0.2867
    101  CB        15.5040   62.8530   36.0900 C.3    93  TYR93       0.0534
    102  CG        15.1570   64.1380   35.3600 C.ar   93  TYR93      -0.0201
    103  CD1       15.3540   65.3820   35.9590 C.ar   93  TYR93      -0.0009
    104  CD2       14.6460   64.1070   34.0670 C.ar   93  TYR93      -0.0009
    105  CE1       15.0450   66.5530   35.2910 C.ar   93  TYR93       0.0417
    106  CE2       14.3330   65.2730   33.3940 C.ar   93  TYR93       0.0417
    107  CZ        14.5340   66.4920   34.0080 C.ar   93  TYR93       0.1957
    108  OH        14.2220   67.6480   33.3240 O.3    93  TYR93      -0.2866
    109  N         10.1120   76.2530   47.7740 N.3   315  ARG315     -0.1245
    110  CA         9.5660   75.3250   46.7900 C.3   315  ARG315      0.1563
    111  C          8.0650   75.0990   46.9580 C.2   315  ARG315      0.2260
    112  O          7.3310   75.0130   45.9760 O.2   315  ARG315     -0.2867
    113  CB        10.3240   73.9950   46.8250 C.3   315  ARG315      0.0307
    114  CG        11.8230   74.1480   46.6150 C.3   315  ARG315      0.0489
    115  CD        12.5010   72.8100   46.3770 C.3   315  ARG315      0.2205
    116  NE        13.0490   72.7170   45.0260 N.pl3 315  ARG315     -0.0865
    117  CZ        14.2580   73.1510   44.6800 C.cat 315  ARG315      0.5346
    118  NH1       15.0480   73.7100   45.5880 N.pl3 315  ARG315      0.1354
    119  NH2       14.6770   73.0290   43.4250 N.pl3 315  ARG315      0.1354
@<TRIPOS>BOND
     1    82    81    2
     2    81    80    1
     3    59    58    2
     4    67    68    1
     5    80    79    1
     6    80    83    1
     7    79    69   am
     8    58    57    1
     9    36    35   ar
    10    36    34   ar
    11    83    84    1
    12    68    69    1
    13    68    71    1
    14    69    70    2
    15    35    33   ar
    16    34    32   ar
    17    86    85   ar
    18    60    57    1
    19    60    61    1
    20    57    56    1
    21    84    85    1
    22    71    72    1
    23    65    64    1
    24    85    87   ar
    25    33    31   ar
    26    62    61    1
    27    62    63    1
    28    32    31   ar
    29    72    74   ar
    30    72    73   ar
    31    74    76   ar
    32    31    30    1
    33    64    63    2
    34    64    66    1
    35    73    75   ar
    36    76    77   ar
    37    75    77   ar
    38    77    78    1
    39    88    89    1
    40   108   107    1
    41    29    28    2
    42    30    27    1
    43   106   107   ar
    44   106   104   ar
    45     5     2    1
    46     5     6    1
    47    91    90    2
    48     1     2    1
    49     2     3    1
    50    28    27    1
    51    28    37   am
    52   107   105   ar
    53   104   102   ar
    54    27    26    1
    55    92    93    1
    56    92    89    1
    57    93    94    1
    58    89    90    1
    59    38    37    1
    60    38    39    1
    61    38    41    1
    62    40    39    2
    63    42    41    1
    64    42    43    1
    65    39    48   am
    66     3     4    2
    67     3     7   am
    68   105   103   ar
    69    43    44    1
    70   102   103   ar
    71   102   101    1
    72    26    20   am
    73    94    95    1
    74    95    96    1
    75   100    99    2
    76     7     8    1
    77    99    98    1
    78    21    20    2
    79   101    98    1
    80    50    51    2
    81    50    49    1
    82    48    49    1
    83    20    19    1
    84    10     9    2
    85    44    45    2
    86    98    97    1
    87    49    52    1
    88     9     8    1
    89     9    18   am
    90     8    11    1
    91    45    46    1
    92    45    47    1
    93    19    18    1
    94    19    22    1
    95    11    12    1
    96    52    53    1
    97    22    23    1
    98    53    54    1
    99    53    55    1
   100    12    13    1
   101    23    24    2
   102    23    25   am
   103    13    14    1
   104    14    15    2
   105    15    17    1
   106    15    16    1
   107   119   117    1
   108   117   116    2
   109   117   118    1
   110   116   115    1
   111   112   111    2
   112   115   114    1
   113   114   113    1
   114   110   113    1
   115   110   111    1
   116   110   109    1
