@<TRIPOS>MOLECULE
tmp/3pr0A00.pdb
 199 187 0 0 0
SMALL
GASTEIGER

@<TRIPOS>ATOM
      1  N        -10.0010   31.5130    4.1430 N.3   110  LYS110     -0.1245
      2  CA       -11.2280   32.0910    3.6220 C.3   110  LYS110      0.1561
      3  C        -12.0700   30.9150    3.1220 C.2   110  LYS110      0.2260
      4  O        -11.5300   29.9160    2.6350 O.2   110  LYS110     -0.2867
      5  CB       -10.8910   33.0640    2.4850 C.3   110  LYS110      0.0271
      6  CG       -12.0550   33.8900    1.9590 C.3   110  LYS110      0.0035
      7  CD       -11.5690   34.8070    0.8630 C.3   110  LYS110      0.0206
      8  CE       -12.6540   35.7310    0.3570 C.3   110  LYS110      0.1093
      9  NZ       -12.1220   36.6200   -0.7180 N.3   110  LYS110     -0.1314
     10  N        -19.0820   36.6250   -2.3400 N.3   159  MET159     -0.1230
     11  CA       -17.7410   37.2010   -2.2310 C.3   159  MET159      0.1702
     12  C        -17.5410   38.4730   -3.0500 C.2   159  MET159      0.2592
     13  O        -16.4620   39.0670   -3.0240 O.2   159  MET159     -0.2718
     14  CB       -16.6690   36.1870   -2.6090 C.3   159  MET159      0.0401
     15  CG       -16.6780   34.9560   -1.7520 C.3   159  MET159      0.0596
     16  SD       -15.1630   34.0250   -2.0260 S.3   159  MET159     -0.1393
     17  CE       -15.3380   33.5670   -3.7480 C.3   159  MET159      0.0692
     18  N        -18.5580   38.8950   -3.7890 N.am  160  PHE160     -0.1962
     19  CA       -18.3920   40.1040   -4.5720 C.3   160  PHE160      0.1771
     20  C        -18.9110   41.3200   -3.8080 C.2   160  PHE160      0.2620
     21  O        -19.9310   41.9160   -4.1540 O.2   160  PHE160     -0.2715
     22  CB       -19.0130   39.9770   -5.9650 C.3   160  PHE160      0.0574
     23  CG       -18.5460   41.0350   -6.9120 C.ar  160  PHE160     -0.0200
     24  CD1      -17.2720   40.9820   -7.4510 C.ar  160  PHE160     -0.0042
     25  CD2      -19.3620   42.1060   -7.2360 C.ar  160  PHE160     -0.0042
     26  CE1      -16.8280   41.9640   -8.3050 C.ar  160  PHE160     -0.0003
     27  CE2      -18.9230   43.0930   -8.0960 C.ar  160  PHE160     -0.0003
     28  CZ       -17.6570   43.0210   -8.6310 C.ar  160  PHE160     -0.0000
     29  N        -18.1720   41.6820   -2.7690 N.am  161  SER161     -0.1936
     30  CA       -18.5860   42.7030   -1.8190 C.3   161  SER161      0.2055
     31  C        -17.3870   43.0240   -0.9440 C.2   161  SER161      0.2643
     32  O        -16.5440   42.1550   -0.7370 O.2   161  SER161     -0.2714
     33  CB       -19.6900   42.1330   -0.9390 C.3   161  SER161      0.2130
     34  OG       -19.8510   42.8940    0.2450 O.3   161  SER161     -0.2179
     35  N        -17.2860   44.2530   -0.4350 N.am  162  TYR162     -0.1973
     36  CA       -16.2310   44.5380    0.5340 C.3   162  TYR162      0.1639
     37  C        -16.7770   44.7530    1.9410 C.2   162  TYR162      0.2290
     38  O        -16.1580   45.3890    2.7880 O.2   162  TYR162     -0.2864
     39  CB       -15.2390   45.6190    0.0720 C.3   162  TYR162      0.0560
     40  CG       -15.7220   47.0490    0.0270 C.ar  162  TYR162     -0.0198
     41  CD1      -16.4440   47.5290   -1.0600 C.ar  162  TYR162     -0.0009
     42  CD2      -15.3970   47.9390    1.0380 C.ar  162  TYR162     -0.0009
     43  CE1      -16.8740   48.8460   -1.1110 C.ar  162  TYR162      0.0417
     44  CE2      -15.8160   49.2580    0.9900 C.ar  162  TYR162      0.0417
     45  CZ       -16.5590   49.7050   -0.0890 C.ar  162  TYR162      0.1957
     46  OH       -16.9810   51.0240   -0.1410 O.3   162  TYR162     -0.2866
     47  N        -13.9120   40.8930    0.5780 N.3   185  SER185     -0.1217
     48  CA       -14.6570   39.7320    1.0270 C.3   185  SER185      0.1889
     49  C        -13.9120   38.8220    2.0090 C.2   185  SER185      0.2288
     50  O        -14.5240   37.9460    2.6000 O.2   185  SER185     -0.2866
     51  CB       -15.1600   38.9290   -0.1790 C.3   185  SER185      0.2089
     52  OG       -14.0890   38.3670   -0.8900 O.3   185  SER185     -0.2183
     53  N         -8.5620   35.9820   -0.9420 N.3   204  THR204     -0.1218
     54  CA        -8.5370   36.1900   -2.3800 C.3   204  THR204      0.1862
     55  C         -8.9490   37.6340   -2.6420 C.2   204  THR204      0.2287
     56  O         -9.4900   38.2950   -1.7540 O.2   204  THR204     -0.2866
     57  CB        -9.4920   35.2200   -3.1170 C.3   204  THR204      0.1770
     58  OG1      -10.8490   35.5030   -2.7490 O.3   204  THR204     -0.2211
     59  CG2       -9.1640   33.7860   -2.7550 C.3   204  THR204      0.0375
     60  N        -10.2190   40.2750   -6.0530 N.3   206  ILE206     -0.1231
     61  CA       -10.4680   40.6640   -7.4390 C.3   206  ILE206      0.1692
     62  C        -10.7710   42.1680   -7.5480 C.2   206  ILE206      0.2592
     63  O        -10.7190   42.7420   -8.6290 O.2   206  ILE206     -0.2718
     64  CB       -11.6430   39.8510   -8.0510 C.3   206  ILE206      0.0266
     65  CG1      -11.4490   39.6630   -9.5610 C.3   206  ILE206      0.0019
     66  CG2      -12.9640   40.5230   -7.7450 C.3   206  ILE206      0.0020
     67  CD1      -12.5460   38.7990  -10.2110 C.3   206  ILE206      0.0001
     68  N        -11.1000   42.8050   -6.4270 N.am  207  GLY207     -0.1957
     69  CA       -11.3020   44.2460   -6.4140 C.3   207  GLY207      0.1869
     70  C        -10.8570   44.9170   -5.1180 C.2   207  GLY207      0.2309
     71  O        -11.1850   46.0780   -4.8740 O.2   207  GLY207     -0.2863
     72  N        -10.4230   42.6430   -2.0710 N.3   209  SER209     -0.1217
     73  CA       -10.9170   41.7390   -1.0320 C.3   209  SER209      0.1889
     74  C         -9.8890   41.1980   -0.0360 C.2   209  SER209      0.2288
     75  O        -10.2590   40.6050    0.9710 O.2   209  SER209     -0.2866
     76  CB       -11.6660   40.5730   -1.6740 C.3   209  SER209      0.2089
     77  OG       -12.9630   40.9750   -2.0710 O.3   209  SER209     -0.2183
     78  N         -9.0480   45.5100    1.6950 N.3   212  PHE212     -0.1241
     79  CA       -10.0710   46.1180    2.5500 C.3   212  PHE212      0.1605
     80  C        -10.0800   45.5190    3.9630 C.2   212  PHE212      0.2264
     81  O         -9.9920   46.2470    4.9440 O.2   212  PHE212     -0.2867
     82  CB       -11.4840   45.9720    1.9570 C.3   212  PHE212      0.0534
     83  CG       -11.7260   46.7830    0.7160 C.ar  212  PHE212     -0.0203
     84  CD1      -11.6820   48.1660    0.7530 C.ar  212  PHE212     -0.0042
     85  CD2      -12.0470   46.1570   -0.4810 C.ar  212  PHE212     -0.0042
     86  CE1      -11.9230   48.9170   -0.3920 C.ar  212  PHE212     -0.0003
     87  CE2      -12.2970   46.8980   -1.6260 C.ar  212  PHE212     -0.0003
     88  CZ       -12.2310   48.2800   -1.5800 C.ar  212  PHE212     -0.0000
     89  N        -15.4730   29.2470   -6.7940 N.3   236  GLY236     -0.1210
     90  CA       -15.8470   30.5630   -7.2850 C.3   236  GLY236      0.1956
     91  C        -17.3390   30.6710   -7.5550 C.2   236  GLY236      0.2612
     92  O        -18.0600   29.6790   -7.4510 O.2   236  GLY236     -0.2717
     93  N        -17.8070   31.8750   -7.8780 N.am  237  CYS237     -0.1956
     94  CA       -19.2010   32.0690   -8.2810 C.3   237  CYS237      0.1843
     95  C        -19.3370   32.3940   -9.7830 C.2   237  CYS237      0.2625
     96  O        -20.3700   32.1210  -10.3890 O.2   237  CYS237     -0.2714
     97  CB       -19.8870   33.1410   -7.4190 C.3   237  CYS237      0.0997
     98  SG       -19.1720   34.7610   -7.5990 S.3   237  CYS237     -0.0797
     99  N        -18.2930   32.9600  -10.3820 N.am  238  VAL238     -0.1977
    100  CA       -18.2740   33.1800  -11.8300 C.3   238  VAL238      0.1596
    101  C        -17.0820   32.4690  -12.4560 C.2   238  VAL238      0.2287
    102  O        -15.9620   32.5700  -11.9600 O.2   238  VAL238     -0.2864
    103  CB       -18.2300   34.6790  -12.1910 C.3   238  VAL238      0.0276
    104  CG1      -18.0460   34.8540  -13.6760 C.3   238  VAL238      0.0022
    105  CG2      -19.5090   35.3770  -11.7330 C.3   238  VAL238      0.0022
    106  N         -8.7390   36.9930  -10.6990 N.3   246  LEU246     -0.1245
    107  CA        -8.7380   36.8050   -9.2750 C.3   246  LEU246      0.1561
    108  C         -7.3040   36.5320   -8.8570 C.2   246  LEU246      0.2260
    109  O         -6.5400   35.8900   -9.5770 O.2   246  LEU246     -0.2867
    110  CB        -9.5970   35.5860   -8.9670 C.3   246  LEU246      0.0270
    111  CG        -9.7790   35.2310   -7.5130 C.3   246  LEU246      0.0019
    112  CD1      -10.5110   36.3640   -6.8130 C.3   246  LEU246      0.0001
    113  CD2      -10.5860   33.9650   -7.4680 C.3   246  LEU246      0.0001
    114  N        -15.0530   47.3920  -14.4970 N.3   345  THR345     -0.1218
    115  CA       -16.4740   47.0830  -14.4950 C.3   345  THR345      0.1862
    116  C        -16.8520   46.2530  -15.7100 C.2   345  THR345      0.2287
    117  O        -17.5620   45.2620  -15.5920 O.2   345  THR345     -0.2866
    118  CB       -17.3120   48.3550  -14.4820 C.3   345  THR345      0.1770
    119  OG1      -17.0010   49.1010  -13.3010 O.3   345  THR345     -0.2211
    120  CG2      -18.7850   48.0170  -14.4950 C.3   345  THR345      0.0375
    121  N        -15.5160   42.7600  -15.3190 N.3   348  LEU348     -0.1231
    122  CA       -16.2010   41.9410  -14.3120 C.3   348  LEU348      0.1693
    123  C        -17.6240   41.5620  -14.7330 C.2   348  LEU348      0.2592
    124  O        -18.1260   40.5290  -14.3220 O.2   348  LEU348     -0.2718
    125  CB       -16.2160   42.6300  -12.9480 C.3   348  LEU348      0.0284
    126  CG       -14.8230   42.8020  -12.3350 C.3   348  LEU348      0.0019
    127  CD1      -14.8310   43.8010  -11.1760 C.3   348  LEU348      0.0001
    128  CD2      -14.3070   41.4630  -11.8950 C.3   348  LEU348      0.0001
    129  N        -18.2560   42.3970  -15.5550 N.am  349  PHE349     -0.1976
    130  CA       -19.6610   42.2040  -15.9350 C.3   349  PHE349      0.1639
    131  C        -19.8940   42.1850  -17.4480 C.2   349  PHE349      0.2290
    132  O        -20.9010   42.6980  -17.9450 O.2   349  PHE349     -0.2864
    133  CB       -20.5350   43.2800  -15.2640 C.3   349  PHE349      0.0560
    134  CG       -20.5140   43.2080  -13.7540 C.ar  349  PHE349     -0.0200
    135  CD1      -21.1490   42.1710  -13.0900 C.ar  349  PHE349     -0.0042
    136  CD2      -19.8340   44.1530  -13.0060 C.ar  349  PHE349     -0.0042
    137  CE1      -21.1180   42.0780  -11.7020 C.ar  349  PHE349     -0.0003
    138  CE2      -19.8030   44.0720  -11.6100 C.ar  349  PHE349     -0.0003
    139  CZ       -20.4420   43.0330  -10.9620 C.ar  349  PHE349     -0.0000
    140  N        -23.1480   35.7090  -12.8550 N.3   356  PHE356     -0.1241
    141  CA       -23.2150   36.0720  -11.4580 C.3   356  PHE356      0.1605
    142  C        -24.6100   35.8310  -10.8780 C.2   356  PHE356      0.2264
    143  O        -24.7600   35.1750   -9.8460 O.2   356  PHE356     -0.2867
    144  CB       -22.8500   37.5360  -11.3110 C.3   356  PHE356      0.0534
    145  CG       -22.7730   37.9970   -9.8920 C.ar  356  PHE356     -0.0203
    146  CD1      -21.7800   37.5160   -9.0450 C.ar  356  PHE356     -0.0042
    147  CD2      -23.6860   38.9120   -9.4040 C.ar  356  PHE356     -0.0042
    148  CE1      -21.7000   37.9530   -7.7280 C.ar  356  PHE356     -0.0003
    149  CE2      -23.6080   39.3540   -8.0920 C.ar  356  PHE356     -0.0003
    150  CZ       -22.6120   38.8720   -7.2560 C.ar  356  PHE356     -0.0000
    151  N        -26.9940   45.8480   -5.8590 N.3   372  LEU372     -0.1245
    152  CA       -26.2370   45.2440   -6.9560 C.3   372  LEU372      0.1561
    153  C        -27.0640   44.2400   -7.7590 C.2   372  LEU372      0.2260
    154  O        -27.1180   44.3090   -8.9880 O.2   372  LEU372     -0.2867
    155  CB       -24.9650   44.5840   -6.4380 C.3   372  LEU372      0.0270
    156  CG       -24.1240   43.8820   -7.5010 C.3   372  LEU372      0.0019
    157  CD1      -23.6530   44.8740   -8.5590 C.3   372  LEU372      0.0001
    158  CD2      -22.9460   43.1750   -6.8500 C.3   372  LEU372      0.0001
    159  N        -20.7540   53.5500  -14.7880 N.3   400  PHE400     -0.1241
    160  CA       -20.7590   52.1860  -14.2420 C.3   400  PHE400      0.1605
    161  C        -21.9110   51.3900  -14.8330 C.2   400  PHE400      0.2264
    162  O        -21.7490   50.2470  -15.2570 O.2   400  PHE400     -0.2867
    163  CB       -20.8610   52.1890  -12.7140 C.3   400  PHE400      0.0534
    164  CG       -19.5300   52.1520  -12.0200 C.ar  400  PHE400     -0.0203
    165  CD1      -19.0130   50.9530  -11.5460 C.ar  400  PHE400     -0.0042
    166  CD2      -18.7920   53.3090  -11.8460 C.ar  400  PHE400     -0.0042
    167  CE1      -17.7880   50.9120  -10.9120 C.ar  400  PHE400     -0.0003
    168  CE2      -17.5640   53.2700  -11.2110 C.ar  400  PHE400     -0.0003
    169  CZ       -17.0620   52.0710  -10.7450 C.ar  400  PHE400     -0.0000
    170  N        -22.0180   47.8390  -17.3630 N.3   404  MET404     -0.1245
    171  CA       -22.4530   46.5840  -16.7690 C.3   404  MET404      0.1570
    172  C        -23.4510   45.8840  -17.6940 C.2   404  MET404      0.2261
    173  O        -24.1970   45.0050  -17.2730 O.2   404  MET404     -0.2867
    174  CB       -23.0650   46.8350  -15.3850 C.3   404  MET404      0.0387
    175  CG       -22.0240   47.0430  -14.2780 C.3   404  MET404      0.0595
    176  SD       -22.6510   47.8470  -12.7700 S.3   404  MET404     -0.1393
    177  CE       -24.3440   47.2870  -12.7940 C.3   404  MET404      0.0692
    178  N        -19.8800   51.8990   -3.8470 N.3   456  THR456     -0.1218
    179  CA       -19.0920   51.2030   -4.8520 C.3   456  THR456      0.1862
    180  C        -17.9040   52.0150   -5.3670 C.2   456  THR456      0.2287
    181  O        -16.8450   51.4630   -5.6600 O.2   456  THR456     -0.2866
    182  CB       -19.9730   50.7920   -6.0250 C.3   456  THR456      0.1770
    183  OG1      -20.8900   49.7890   -5.5780 O.3   456  THR456     -0.2211
    184  CG2      -19.1270   50.2250   -7.1540 C.3   456  THR456      0.0375
    185  N        -14.1230   51.6350   -4.1600 N.3   459  VAL459     -0.1245
    186  CA       -13.1900   50.5910   -4.5630 C.3   459  VAL459      0.1561
    187  C        -12.0900   51.1460   -5.4720 C.2   459  VAL459      0.2260
    188  O        -11.1820   50.4160   -5.8540 O.2   459  VAL459     -0.2867
    189  CB       -13.8820   49.3980   -5.2510 C.3   459  VAL459      0.0252
    190  CG1      -14.9870   48.8550   -4.3650 C.3   459  VAL459      0.0019
    191  CG2      -14.4230   49.7980   -6.6180 C.3   459  VAL459      0.0019
    192  N         -9.1590   48.6270   -6.7680 N.3   463  MET463     -0.1245
    193  CA        -9.5130   47.9080   -7.9810 C.3   463  MET463      0.1570
    194  C         -8.6390   48.2780   -9.1790 C.2   463  MET463      0.2261
    195  O         -8.4560   47.4830  -10.0950 O.2   463  MET463     -0.2867
    196  CB       -10.9820   48.1180   -8.3230 C.3   463  MET463      0.0387
    197  CG       -11.4310   47.2050   -9.4790 C.3   463  MET463      0.0595
    198  SD       -13.2110   47.0400   -9.5520 S.3   463  MET463     -0.1393
    199  CE       -13.7090   48.6680  -10.1380 C.3   463  MET463      0.0692
@<TRIPOS>BOND
     1   132   131    2
     2   172   173    2
     3   172   171    1
     4   131   130    1
     5   170   171    1
     6   171   174    1
     7   130   129    1
     8   130   133    1
     9   116   117    2
    10   116   115    1
    11   129   123   am
    12   174   175    1
    13   121   122    1
    14   133   134    1
    15   162   161    2
    16   161   160    1
    17   159   160    1
    18   123   124    2
    19   123   122    1
    20   114   115    1
    21   120   118    1
    22   115   118    1
    23   118   119    1
    24   122   125    1
    25   175   176    1
    26   160   163    1
    27   134   135   ar
    28   134   136   ar
    29   104   103    1
    30   135   137   ar
    31   136   138   ar
    32   125   126    1
    33   140   141    1
    34   177   176    1
    35   163   164    1
    36   101   102    2
    37   101   100    1
    38   126   128    1
    39   126   127    1
    40   103   100    1
    41   103   105    1
    42   164   166   ar
    43   164   165   ar
    44   166   168   ar
    45   100    99    1
    46   137   139   ar
    47   138   139   ar
    48   165   167   ar
    49   141   144    1
    50   141   142    1
    51   144   145    1
    52   168   169   ar
    53   167   169   ar
    54   142   143    2
    55   106   107    1
    56    96    95    2
    57    99    95   am
    58    67    65    1
    59   199   198    1
    60   195   194    2
    61   145   147   ar
    62   145   146   ar
    63    95    94    1
    64   109   108    2
    65    65    64    1
    66   198   197    1
    67   197   196    1
    68   147   149   ar
    69   107   110    1
    70   107   108    1
    71   194   193    1
    72   146   148   ar
    73   154   153    2
    74   110   111    1
    75    28    26   ar
    76    28    27   ar
    77    63    62    2
    78   157   156    1
    79   196   193    1
    80    26    24   ar
    81    94    93    1
    82    94    97    1
    83    27    25   ar
    84   149   150   ar
    85    64    66    1
    86    64    61    1
    87   193   192    1
    88    93    91   am
    89   153   152    1
    90   148   150   ar
    91    98    97    1
    92    91    92    2
    93    91    90    1
    94    62    61    1
    95    62    68   am
    96   111   113    1
    97   111   112    1
    98   156   158    1
    99   156   155    1
   100    24    23   ar
   101    61    60    1
   102    90    89    1
   103    25    23   ar
   104   184   182    1
   105   152   155    1
   106   152   151    1
   107    23    22    1
   108   191   189    1
   109    68    69    1
   110    69    70    1
   111   182   183    1
   112   182   179    1
   113    22    19    1
   114   188   187    2
   115   181   180    2
   116   187   186    1
   117   180   179    1
   118   189   186    1
   119   189   190    1
   120    70    71    2
   121   179   178    1
   122    19    20    1
   123    19    18    1
   124   186   185    1
   125    21    20    2
   126    20    29   am
   127    18    12   am
   128    17    16    1
   129    57    59    1
   130    57    58    1
   131    57    54    1
   132    12    13    2
   133    12    11    1
   134    29    30    1
   135    55    54    1
   136    55    56    2
   137    14    11    1
   138    14    15    1
   139    54    53    1
   140    10    11    1
   141    72    73    1
   142    77    76    1
   143    16    15    1
   144    30    31    1
   145    30    33    1
   146    76    73    1
   147    87    88   ar
   148    87    85   ar
   149    88    86   ar
   150    43    41   ar
   151    43    45   ar
   152    41    40   ar
   153    73    74    1
   154    31    32    2
   155    31    35   am
   156    33    34    1
   157    52    51    1
   158     9     8    1
   159    85    83   ar
   160    35    36    1
   161    86    84   ar
   162    51    48    1
   163    46    45    1
   164    45    44   ar
   165    74    75    2
   166    40    39    1
   167    40    42   ar
   168    39    36    1
   169     8     7    1
   170    36    37    1
   171    47    48    1
   172    83    84   ar
   173    83    82    1
   174     7     6    1
   175    44    42   ar
   176    48    49    1
   177    78    79    1
   178    37    38    2
   179    82    79    1
   180     6     5    1
   181    49    50    2
   182     5     2    1
   183    79    80    1
   184     4     3    2
   185     3     2    1
   186     2     1    1
   187    80    81    2
