@<TRIPOS>MOLECULE
tmp/3pr3A00.pdb
 124 114 0 0 0
SMALL
GASTEIGER

@<TRIPOS>ATOM
      1  N         11.3580    7.2160   16.3400 N.3   155  ILE155     -0.1231
      2  CA        10.4250    8.3100   16.1110 C.3   155  ILE155      0.1692
      3  C         10.6940    8.9010   14.7360 C.2   155  ILE155      0.2593
      4  O         11.7890    8.6980   14.2050 O.2   155  ILE155     -0.2718
      5  CB        10.5800    9.3460   17.2670 C.3   155  ILE155      0.0266
      6  CG1        9.2910   10.1700   17.5070 C.3   155  ILE155      0.0019
      7  CG2       11.8910   10.1900   17.1520 C.3   155  ILE155      0.0020
      8  CD1        9.1920   10.7490   18.9260 C.3   155  ILE155      0.0001
      9  N          9.7050    9.6050   14.1670 N.am  156  GLY156     -0.1942
     10  CA         9.8190   10.2070   12.8450 C.3   156  GLY156      0.2014
     11  C         10.2180    9.2340   11.7460 C.2   156  GLY156      0.2639
     12  O          9.6090    8.1620   11.5870 O.2   156  GLY156     -0.2714
     13  N         11.2630    9.6060   11.0050 N.am  157  GLY157     -0.1939
     14  CA        11.7870    8.8110    9.8940 C.3   157  GLY157      0.2014
     15  C         12.1930    7.3900   10.2480 C.2   157  GLY157      0.2639
     16  O         12.2630    6.5220    9.3690 O.2   157  GLY157     -0.2714
     17  N         12.4430    7.1440   11.5420 N.am  158  SER158     -0.1949
     18  CA        12.8540    5.8540   12.0740 C.3   158  SER158      0.1924
     19  C         11.7130    4.8680   12.2970 C.2   158  SER158      0.2314
     20  O         11.9790    3.7250   12.6550 O.2   158  SER158     -0.2863
     21  CB        13.7310    6.0360   13.3030 C.3   158  SER158      0.2116
     22  OG        14.9830    6.5390   12.8580 O.3   158  SER158     -0.2180
     23  N         15.9610    1.9880   16.7360 N.3   229  ILE229     -0.1231
     24  CA        16.1690    2.6550   15.4380 C.3   229  ILE229      0.1692
     25  C         16.3250    4.1620   15.5960 C.2   229  ILE229      0.2593
     26  O         15.3700    4.8670   15.9580 O.2   229  ILE229     -0.2718
     27  CB        15.0420    2.2650   14.4370 C.3   229  ILE229      0.0266
     28  CG1       14.7500    0.7500   14.5030 C.3   229  ILE229      0.0019
     29  CG2       15.3640    2.7220   13.0080 C.3   229  ILE229      0.0020
     30  CD1       13.5950    0.2400   13.7190 C.3   229  ILE229      0.0001
     31  N         17.5260    4.6560   15.2800 N.am  230  SER230     -0.1938
     32  CA        17.8630    6.0720   15.3980 C.3   230  SER230      0.2055
     33  C         19.0930    6.4340   14.5250 C.2   230  SER230      0.2643
     34  O         20.1740    5.9080   14.7630 O.2   230  SER230     -0.2714
     35  CB        18.1270    6.3980   16.8690 C.3   230  SER230      0.2130
     36  OG        18.3250    7.7790   17.1030 O.3   230  SER230     -0.2179
     37  N         18.9370    7.3200   13.5340 N.am  231  LYS231     -0.1963
     38  CA        20.0440    7.7590   12.6620 C.3   231  LYS231      0.1728
     39  C         21.2520    8.2670   13.4850 C.2   231  LYS231      0.2616
     40  O         22.3900    7.8550   13.2580 O.2   231  LYS231     -0.2715
     41  CB        19.5750    8.8470   11.6590 C.3   231  LYS231      0.0311
     42  CG        20.6990    9.2840   10.7070 C.3   231  LYS231      0.0038
     43  CD        20.2330   10.0120    9.4450 C.3   231  LYS231      0.0206
     44  CE        21.4260   10.3990    8.5960 C.3   231  LYS231      0.1093
     45  NZ        21.0540   11.2750    7.4530 N.3   231  LYS231     -0.1314
     46  N         20.9670    9.1590   14.4370 N.am  232  THR232     -0.1951
     47  CA        21.9130    9.8150   15.3280 C.3   232  THR232      0.1897
     48  C         22.2640    8.9590   16.5390 C.2   232  THR232      0.2313
     49  O         23.4210    8.9880   16.9720 O.2   232  THR232     -0.2863
     50  CB        21.2970   11.1300   15.8740 C.3   232  THR232      0.1794
     51  OG1       20.0250   10.8550   16.4890 O.3   232  THR232     -0.2208
     52  CG2       21.1690   12.2150   14.8270 C.3   232  THR232      0.0378
     53  N         18.6170   11.0590   19.9120 N.3   235  THR235     -0.1218
     54  CA        17.2400   11.5660   20.0500 C.3   235  THR235      0.1862
     55  C         16.7150   11.3110   21.4490 C.2   235  THR235      0.2287
     56  O         16.6510   10.1490   21.8730 O.2   235  THR235     -0.2866
     57  CB        16.3310   10.9990   18.9490 C.3   235  THR235      0.1770
     58  OG1       16.8820   11.2930   17.6730 O.3   235  THR235     -0.2211
     59  CG2       14.9140   11.5220   19.0380 C.3   235  THR235      0.0375
     60  N         13.7530    8.5200   21.7060 N.3   238  THR238     -0.1218
     61  CA        14.1590    7.1550   21.3510 C.3   238  THR238      0.1862
     62  C         15.0870    6.5780   22.4000 C.2   238  THR238      0.2287
     63  O         14.9360    5.4170   22.7850 O.2   238  THR238     -0.2866
     64  CB        14.8180    7.1160   19.9710 C.3   238  THR238      0.1770
     65  OG1       14.0270    7.8730   19.0610 O.3   238  THR238     -0.2211
     66  CG2       15.0100    5.6960   19.4530 C.3   238  THR238      0.0375
     67  N         16.3590   10.5410    7.1460 N.3   292  GLY292     -0.1210
     68  CA        15.3870    9.7980    7.9470 C.3   292  GLY292      0.1956
     69  C         14.0730    9.5090    7.2420 C.2   292  GLY292      0.2611
     70  O         13.6220    8.3600    7.2230 O.2   292  GLY292     -0.2717
     71  N         13.4740   10.5360    6.6160 N.am  293  ARG293     -0.1979
     72  CA        12.1940   10.4410    5.8780 C.3   293  ARG293      0.1597
     73  C         12.3400    9.7170    4.5110 C.2   293  ARG293      0.2287
     74  O         11.3480    9.5240    3.7890 O.2   293  ARG293     -0.2864
     75  CB        11.4950   11.8310    5.7630 C.3   293  ARG293      0.0334
     76  CG        12.3270   12.9030    5.0490 C.3   293  ARG293      0.0492
     77  CD        11.9720   14.2770    5.5420 C.3   293  ARG293      0.2205
     78  NE        12.8220   15.3040    4.9500 N.pl3 293  ARG293     -0.0865
     79  CZ        13.7150   16.0220    5.6260 C.cat 293  ARG293      0.5346
     80  NH1       13.8700   15.8440    6.9330 N.pl3 293  ARG293      0.1354
     81  NH2       14.4350   16.9460    5.0080 N.pl3 293  ARG293      0.1354
     82  N          5.4580   13.5200    6.8940 N.3   375  GLN375     -0.1245
     83  CA         6.8590   13.8160    7.2000 C.3   375  GLN375      0.1566
     84  C          7.6950   14.0130    5.9460 C.2   375  GLN375      0.2260
     85  O          8.4100   15.0070    5.8260 O.2   375  GLN375     -0.2867
     86  CB         7.5200   12.7700    8.1010 C.3   375  GLN375      0.0367
     87  CG         8.9960   13.1630    8.3850 C.3   375  GLN375      0.0905
     88  CD         9.7960   12.1320    9.0950 C.2   375  GLN375      0.2608
     89  OE1        9.3850   10.9810    9.2200 O.2   375  GLN375     -0.2717
     90  NE2       10.9870   12.5210    9.5440 N.am  375  GLN375     -0.0878
     91  N          8.3990   17.9100    6.3010 N.3   379  GLU379     -0.1245
     92  CA         9.7280   18.0940    6.8420 C.3   379  GLU379      0.1567
     93  C         10.7270   18.3990    5.7150 C.2   379  GLU379      0.2260
     94  O         11.6730   19.1460    5.9530 O.2   379  GLU379     -0.2867
     95  CB        10.1570   16.9010    7.6820 C.3   379  GLU379      0.0388
     96  CG        11.2950   17.2470    8.6130 C.3   379  GLU379      0.1160
     97  CD        11.5810   16.2140    9.6680 C.2   379  GLU379      0.3649
     98  OE1       12.0280   15.0980    9.3090 O.co2 379  GLU379     -0.2457
     99  OE2       11.3700   16.5370   10.8590 O.co2 379  GLU379     -0.2457
    100  N         16.7560   19.8390    7.9310 N.3   532  GLN532     -0.1245
    101  CA        15.6720   20.0600    8.9070 C.3   532  GLN532      0.1566
    102  C         16.1560   20.9360   10.0820 C.2   532  GLN532      0.2260
    103  O         16.1610   20.5110   11.2350 O.2   532  GLN532     -0.2867
    104  CB        14.9820   18.7430    9.3630 C.3   532  GLN532      0.0367
    105  CG        15.9060   17.6400    9.9550 C.3   532  GLN532      0.0905
    106  CD        16.7900   16.9520    8.9320 C.2   532  GLN532      0.2608
    107  OE1       16.3690   16.6170    7.8230 O.2   532  GLN532     -0.2717
    108  NE2       18.0540   16.7730    9.2630 N.am  532  GLN532     -0.0878
    109  N         13.7310   22.0910   13.3990 N.3   535  VAL535     -0.1245
    110  CA        13.3890   21.2740   14.5750 C.3   535  VAL535      0.1561
    111  C         14.3040   21.5470   15.7760 C.2   535  VAL535      0.2260
    112  O         14.0630   21.0210   16.8680 O.2   535  VAL535     -0.2867
    113  CB        13.3080   19.7420   14.2690 C.3   535  VAL535      0.0252
    114  CG1       12.2610   19.4340   13.2010 C.3   535  VAL535      0.0019
    115  CG2       14.6740   19.1610   13.9080 C.3   535  VAL535      0.0019
    116  N         14.1190   21.6780   20.5910 N.3   539  LYS539     -0.1245
    117  CA        14.9810   20.7330   21.3090 C.3   539  LYS539      0.1561
    118  C         15.7900   21.4970   22.3760 C.2   539  LYS539      0.2260
    119  O         15.8690   21.0570   23.5300 O.2   539  LYS539     -0.2867
    120  CB        15.9470   20.0140   20.3490 C.3   539  LYS539      0.0271
    121  CG        15.2920   19.0250   19.4150 C.3   539  LYS539      0.0035
    122  CD        16.2970   18.4350   18.4400 C.3   539  LYS539      0.0206
    123  CE        15.6030   17.5980   17.3910 C.3   539  LYS539      0.1093
    124  NZ        16.5730   17.0430   16.4030 N.3   539  LYS539     -0.1314
@<TRIPOS>BOND
     1    74    73    2
     2    73    72    1
     3    78    77    1
     4    78    79    2
     5    81    79    1
     6    76    77    1
     7    76    75    1
     8    79    80    1
     9    93    94    2
    10    93    92    1
    11    75    72    1
    12    85    84    2
    13    72    71    1
    14    84    83    1
    15    91    92    1
    16    71    69   am
    17    92    95    1
    18    82    83    1
    19    67    68    1
    20    83    86    1
    21    70    69    2
    22    69    68    1
    23    45    44    1
    24    95    96    1
    25   107   106    2
    26   100   101    1
    27    86    87    1
    28    87    88    1
    29    44    43    1
    30    96    97    1
    31   101   104    1
    32   101   102    1
    33   106   108   am
    34   106   105    1
    35    88    89    2
    36    88    90   am
    37    98    97   ar
    38   104   105    1
    39    16    15    2
    40    43    42    1
    41    97    99   ar
    42    14    15    1
    43    14    13    1
    44   102   103    2
    45    15    17   am
    46    42    41    1
    47    13    11   am
    48    17    18    1
    49    12    11    2
    50    41    38    1
    51    11    10    1
    52    18    19    1
    53    18    21    1
    54    19    20    2
    55    38    39    1
    56    38    37    1
    57    10     9    1
    58    22    21    1
    59    29    27    1
    60   114   113    1
    61    40    39    2
    62   109   110    1
    63    39    46   am
    64    37    33   am
    65    30    28    1
    66   115   113    1
    67     9     3   am
    68     4     3    2
    69   113   110    1
    70    27    28    1
    71    27    24    1
    72    46    47    1
    73    33    34    2
    74    33    32    1
    75   110   111    1
    76     3     2    1
    77    52    50    1
    78    31    32    1
    79    31    25   am
    80    47    50    1
    81    47    48    1
    82    32    35    1
    83    24    25    1
    84    24    23    1
    85    25    26    2
    86   111   112    2
    87    50    51    1
    88     2     1    1
    89     2     5    1
    90   124   123    1
    91    48    49    2
    92    35    36    1
    93     7     5    1
    94     5     6    1
    95   123   122    1
    96     6     8    1
    97    58    57    1
    98   122   121    1
    99    57    59    1
   100    57    54    1
   101    65    64    1
   102   121   120    1
   103    66    64    1
   104    53    54    1
   105    64    61    1
   106    54    55    1
   107   120   117    1
   108   116   117    1
   109   117   118    1
   110    61    60    1
   111    61    62    1
   112    55    56    2
   113   118   119    2
   114    62    63    2
