@<TRIPOS>MOLECULE
tmp/3pr5A00.pdb
 159 152 0 0 0
SMALL
GASTEIGER

@<TRIPOS>ATOM
      1  N        -32.0880    9.8260   -9.0780 N.3     7  ASP7       -0.1225
      2  CA       -30.6740   10.0760   -8.8920 C.3     7  ASP7        0.1805
      3  C        -30.0500    8.8220   -8.2490 C.2     7  ASP7        0.2597
      4  O        -30.3260    8.5110   -7.1040 O.2     7  ASP7       -0.2718
      5  CB       -30.4910   11.3300   -8.0260 C.3     7  ASP7        0.1424
      6  CG       -29.0450   11.7160   -7.8520 C.2     7  ASP7        0.3668
      7  OD1      -28.1890   10.8980   -8.1820 O.co2   7  ASP7       -0.2456
      8  OD2      -28.7510   12.8250   -7.3860 O.co2   7  ASP7       -0.2456
      9  N        -29.2290    8.0890   -8.9920 N.am    8  PHE8       -0.1976
     10  CA       -28.6670    6.8410   -8.4700 C.3     8  PHE8        0.1639
     11  C        -27.7240    7.1360   -7.2950 C.2     8  PHE8        0.2290
     12  O        -26.8800    7.9860   -7.4020 O.2     8  PHE8       -0.2864
     13  CB       -27.9070    6.0460   -9.5530 C.3     8  PHE8        0.0560
     14  CG       -28.6960    5.7640  -10.8020 C.ar    8  PHE8       -0.0200
     15  CD1      -30.0610    5.9680  -10.8550 C.ar    8  PHE8       -0.0042
     16  CD2      -28.0520    5.2910  -11.9360 C.ar    8  PHE8       -0.0042
     17  CE1      -30.7720    5.7150  -12.0180 C.ar    8  PHE8       -0.0003
     18  CE2      -28.7510    5.0280  -13.1170 C.ar    8  PHE8       -0.0003
     19  CZ       -30.1160    5.2420  -13.1580 C.ar    8  PHE8       -0.0000
     20  N        -24.6410    7.3460   -4.9020 N.3    10  TYR10      -0.1227
     21  CA       -23.1890    7.1540   -5.0290 C.3    10  TYR10       0.1736
     22  C        -22.7990    6.0610   -6.0730 C.2    10  TYR10       0.2595
     23  O        -22.0660    5.1300   -5.7830 O.2    10  TYR10      -0.2718
     24  CB       -22.5570    6.9020   -3.6430 C.3    10  TYR10       0.0548
     25  CG       -23.1140    5.6990   -2.8990 C.ar   10  TYR10      -0.0200
     26  CD1      -24.2430    5.8060   -2.0810 C.ar   10  TYR10      -0.0009
     27  CD2      -22.5120    4.4420   -3.0170 C.ar   10  TYR10      -0.0009
     28  CE1      -24.7590    4.6830   -1.3990 C.ar   10  TYR10       0.0417
     29  CE2      -23.0120    3.3270   -2.3410 C.ar   10  TYR10       0.0417
     30  CZ       -24.1340    3.4450   -1.5350 C.ar   10  TYR10       0.1957
     31  OH       -24.6120    2.3140   -0.8890 O.3    10  TYR10      -0.2866
     32  N        -23.2710    6.2430   -7.3030 N.am   11  PHE11      -0.1962
     33  CA       -23.3650    5.1850   -8.3050 C.3    11  PHE11       0.1771
     34  C        -22.1640    4.2710   -8.5550 C.2    11  PHE11       0.2619
     35  O        -22.3170    3.0650   -8.5300 O.2    11  PHE11      -0.2715
     36  CB       -23.9000    5.7330   -9.6400 C.3    11  PHE11       0.0574
     37  CG       -24.2750    4.6550  -10.6390 C.ar   11  PHE11      -0.0200
     38  CD1      -25.2930    3.7600  -10.3680 C.ar   11  PHE11      -0.0042
     39  CD2      -23.6020    4.5350  -11.8410 C.ar   11  PHE11      -0.0042
     40  CE1      -25.6430    2.7640  -11.2960 C.ar   11  PHE11      -0.0003
     41  CE2      -23.9480    3.5490  -12.7660 C.ar   11  PHE11      -0.0003
     42  CZ       -24.9630    2.6650  -12.4940 C.ar   11  PHE11      -0.0000
     43  N        -20.9970    4.8250   -8.8370 N.am   12  ALA12      -0.1977
     44  CA       -19.8600    3.9850   -9.1810 C.3    12  ALA12       0.1597
     45  C        -19.5040    3.0760   -8.0070 C.2    12  ALA12       0.2287
     46  O        -19.3330    1.8490   -8.1740 O.2    12  ALA12      -0.2864
     47  CB       -18.6630    4.8360   -9.6060 C.3    12  ALA12       0.0319
     48  N         -9.5360    7.7560   -9.9420 N.3    32  VAL32      -0.1245
     49  CA        -8.8970    7.8150  -11.2400 C.3    32  VAL32       0.1561
     50  C         -7.4170    8.0300  -11.0080 C.2    32  VAL32       0.2260
     51  O         -6.9930    9.1270  -10.6180 O.2    32  VAL32      -0.2867
     52  CB        -9.4290    8.9710  -12.1140 C.3    32  VAL32       0.0252
     53  CG1       -8.8060    8.8900  -13.4990 C.3    32  VAL32       0.0019
     54  CG2      -10.9380    8.9320  -12.2080 C.3    32  VAL32       0.0019
     55  N        -10.1880   11.3260   -6.5410 N.3    43  VAL43      -0.1231
     56  CA       -11.3420   10.5030   -6.1920 C.3    43  VAL43       0.1692
     57  C        -12.4940   10.8180   -7.1380 C.2    43  VAL43       0.2592
     58  O        -12.8450   11.9840   -7.3250 O.2    43  VAL43      -0.2718
     59  CB       -11.8060   10.7750   -4.7320 C.3    43  VAL43       0.0266
     60  CG1      -13.0760    9.9700   -4.3950 C.3    43  VAL43       0.0020
     61  CG2      -10.6680   10.5060   -3.7560 C.3    43  VAL43       0.0020
     62  N        -13.0840    9.7840   -7.7320 N.am   44  ALA44      -0.1966
     63  CA       -14.2020    9.9930   -8.6430 C.3    44  ALA44       0.1728
     64  C        -15.5090    9.9940   -7.8690 C.2    44  ALA44       0.2616
     65  O        -16.4040   10.7770   -8.1390 O.2    44  ALA44      -0.2715
     66  CB       -14.2210    8.9210   -9.7130 C.3    44  ALA44       0.0334
     67  N        -15.6010    9.1060   -6.8950 N.am   45  THR45      -0.1951
     68  CA       -16.8070    8.9740   -6.0960 C.3    45  THR45       0.1897
     69  C        -16.5700    8.0670   -4.8800 C.2    45  THR45       0.2313
     70  O        -15.8250    7.0740   -4.9330 O.2    45  THR45      -0.2863
     71  CB       -17.9980    8.4840   -6.9640 C.3    45  THR45       0.1794
     72  OG1      -18.9350    7.7450   -6.1700 O.3    45  THR45      -0.2208
     73  CG2      -17.5050    7.6120   -8.0600 C.3    45  THR45       0.0378
     74  N        -21.1650    6.5910    1.1240 N.3    48  TYR48      -0.1241
     75  CA       -21.4530    7.4880    2.2340 C.3    48  TYR48       0.1605
     76  C        -20.5770    7.2300    3.4640 C.2    48  TYR48       0.2264
     77  O        -20.2140    8.1620    4.1890 O.2    48  TYR48      -0.2867
     78  CB       -22.9550    7.5430    2.5020 C.3    48  TYR48       0.0534
     79  CG       -23.6390    8.3390    1.4000 C.ar   48  TYR48      -0.0201
     80  CD1      -23.6950    7.8490    0.0910 C.ar   48  TYR48      -0.0009
     81  CD2      -24.1660    9.6020    1.6460 C.ar   48  TYR48      -0.0009
     82  CE1      -24.2810    8.5760   -0.9200 C.ar   48  TYR48       0.0417
     83  CE2      -24.7580   10.3350    0.6410 C.ar   48  TYR48       0.0417
     84  CZ       -24.8150    9.8190   -0.6380 C.ar   48  TYR48       0.1957
     85  OH       -25.4080   10.5580   -1.6430 O.3    48  TYR48      -0.2866
     86  N        -17.7070    9.2810    2.7100 N.3    51  ARG51      -0.1245
     87  CA       -18.0540   10.6960    2.6930 C.3    51  ARG51       0.1563
     88  C        -18.1930   11.2700    4.0930 C.2    51  ARG51       0.2260
     89  O        -17.7430   12.3860    4.3410 O.2    51  ARG51      -0.2867
     90  CB       -19.3210   10.9610    1.8760 C.3    51  ARG51       0.0307
     91  CG       -19.0570   11.0470    0.3890 C.3    51  ARG51       0.0489
     92  CD       -20.2620   11.5360   -0.3890 C.3    51  ARG51       0.2205
     93  NE       -20.6800   10.5400   -1.3620 N.pl3  51  ARG51      -0.0865
     94  CZ       -21.7330   10.6670   -2.1630 C.cat  51  ARG51       0.5346
     95  NH1      -22.4800   11.7650   -2.1080 N.pl3  51  ARG51       0.1354
     96  NH2      -22.0420    9.6960   -3.0190 N.pl3  51  ARG51       0.1354
     97  N        -15.6420   13.1210   -3.9180 N.3    57  ALA57      -0.1231
     98  CA       -15.2240   13.3400   -5.3000 C.3    57  ALA57       0.1694
     99  C        -14.4380   14.6490   -5.4170 C.2    57  ALA57       0.2592
    100  O        -14.8400   15.6820   -4.8810 O.2    57  ALA57      -0.2718
    101  CB       -16.4280   13.3550   -6.2250 C.3    57  ALA57       0.0304
    102  N        -13.2980   14.5890   -6.0920 N.am   58  GLY58      -0.1957
    103  CA       -12.5500   15.7910   -6.3790 C.3    58  GLY58       0.1869
    104  C        -11.2250   15.9310   -5.6680 C.2    58  GLY58       0.2309
    105  O        -10.2680   16.4720   -6.2210 O.2    58  GLY58      -0.2863
    106  N        -11.5350    3.4010  -11.3040 N.3    76  MET76      -0.1245
    107  CA       -12.7350    3.6080  -12.0900 C.3    76  MET76       0.1570
    108  C        -12.9270    2.4880  -13.0900 C.2    76  MET76       0.2261
    109  O        -12.0100    2.1470  -13.8240 O.2    76  MET76      -0.2867
    110  CB       -12.6270    4.9270  -12.8410 C.3    76  MET76       0.0387
    111  CG       -13.0470    6.1230  -12.0360 C.3    76  MET76       0.0595
    112  SD       -14.8270    6.1120  -11.8800 S.3    76  MET76      -0.1393
    113  CE       -15.2250    5.6280  -13.5610 C.3    76  MET76       0.0692
    114  N        -15.4470    2.5740  -15.6560 N.3    78  LYS78      -0.1245
    115  CA       -16.4890    3.3560  -16.3240 C.3    78  LYS78       0.1561
    116  C        -17.4520    2.5510  -17.2030 C.2    78  LYS78       0.2260
    117  O        -18.6690    2.7340  -17.1470 O.2    78  LYS78      -0.2867
    118  CB       -15.8420    4.4730  -17.1470 C.3    78  LYS78       0.0271
    119  CG       -16.8300    5.4600  -17.6630 C.3    78  LYS78       0.0035
    120  CD       -17.7380    5.9400  -16.5420 C.3    78  LYS78       0.0206
    121  CE       -18.6010    7.1070  -17.0130 C.3    78  LYS78       0.1093
    122  NZ       -17.7620    8.1590  -17.6910 N.3    78  LYS78      -0.1314
    123  N        -20.0830    0.6310  -15.1630 N.3    81  TYR81      -0.1241
    124  CA       -21.1040    1.4840  -14.5640 C.3    81  TYR81       0.1605
    125  C        -22.0910    1.9030  -15.6330 C.2    81  TYR81       0.2264
    126  O        -23.2790    2.0850  -15.3730 O.2    81  TYR81      -0.2867
    127  CB       -20.4720    2.7150  -13.9250 C.3    81  TYR81       0.0534
    128  CG       -19.2640    2.4260  -13.0630 C.ar   81  TYR81      -0.0201
    129  CD1      -19.1700    1.2480  -12.3220 C.ar   81  TYR81      -0.0009
    130  CD2      -18.2080    3.3310  -12.9950 C.ar   81  TYR81      -0.0009
    131  CE1      -18.0670    0.9920  -11.5460 C.ar   81  TYR81       0.0417
    132  CE2      -17.1060    3.0820  -12.2210 C.ar   81  TYR81       0.0417
    133  CZ       -17.0410    1.9190  -11.4940 C.ar   81  TYR81       0.1957
    134  OH       -15.9330    1.6830  -10.7380 O.3    81  TYR81      -0.2866
    135  N        -24.9250    9.6700  -16.5070 N.3   104  ILE104     -0.1231
    136  CA       -24.8660    8.2410  -16.2910 C.3   104  ILE104      0.1692
    137  C        -25.7380    7.7830  -15.1090 C.2   104  ILE104      0.2592
    138  O        -26.1180    6.6170  -15.0310 O.2   104  ILE104     -0.2718
    139  CB       -23.4090    7.7660  -16.1600 C.3   104  ILE104      0.0266
    140  CG1      -23.3440    6.2520  -16.1300 C.3   104  ILE104      0.0019
    141  CG2      -22.7400    8.3790  -14.9480 C.3   104  ILE104      0.0020
    142  CD1      -21.9480    5.7510  -16.0660 C.3   104  ILE104      0.0001
    143  N        -26.0960    8.6980  -14.2130 N.am  105  ASP105     -0.1974
    144  CA       -26.9220    8.2910  -13.0890 C.3   105  ASP105      0.1709
    145  C        -28.0490    9.2580  -12.7420 C.2   105  ASP105      0.2293
    146  O        -28.5150    9.2810  -11.6090 O.2   105  ASP105     -0.2864
    147  CB       -26.0530    8.0200  -11.8540 C.3   105  ASP105      0.1436
    148  CG       -25.4980    9.2850  -11.2430 C.2   105  ASP105      0.3671
    149  OD1      -25.3410   10.2900  -11.9630 O.co2 105  ASP105     -0.2456
    150  OD2      -25.2180    9.2740  -10.0360 O.co2 105  ASP105     -0.2456
    151  N        -31.2600   12.5370   -0.5610 N.3   159  LYS159     -0.1245
    152  CA       -30.2620   11.4940   -0.7780 C.3   159  LYS159      0.1561
    153  C        -29.4560   11.2280    0.4960 C.2   159  LYS159      0.2260
    154  O        -29.1380   12.1550    1.2420 O.2   159  LYS159     -0.2867
    155  CB       -29.3300   11.8430   -1.9550 C.3   159  LYS159      0.0271
    156  CG       -28.4500   13.0710   -1.7500 C.3   159  LYS159      0.0035
    157  CD       -27.4480   13.2580   -2.8910 C.3   159  LYS159      0.0206
    158  CE       -28.1460   13.4220   -4.2410 C.3   159  LYS159      0.1093
    159  NZ       -27.2580   14.0250   -5.2910 N.3   159  LYS159     -0.1314
@<TRIPOS>BOND
     1   122   121    1
     2   119   118    1
     3   119   120    1
     4   116   117    2
     5   116   115    1
     6   118   115    1
     7   121   120    1
     8   135   136    1
     9   115   114    1
    10   136   139    1
    11   136   137    1
    12   139   140    1
    13   139   141    1
    14   140   142    1
    15   125   126    2
    16   125   124    1
    17   123   124    1
    18   137   138    2
    19   137   143   am
    20   124   127    1
    21   143   144    1
    22   127   128    1
    23   109   108    2
    24   113   112    1
    25    53    52    1
    26    19    18   ar
    27    19    17   ar
    28    18    16   ar
    29   108   107    1
    30   144   145    1
    31   144   147    1
    32   128   130   ar
    33   128   129   ar
    34   130   132   ar
    35   110   107    1
    36   110   111    1
    37    41    42   ar
    38    41    39   ar
    39   145   146    2
    40    42    40   ar
    41   129   131   ar
    42   132   133   ar
    43    54    52    1
    44    52    49    1
    45   107   106    1
    46   111   112    1
    47    17    15   ar
    48   149   148   ar
    49    16    14   ar
    50   147   148    1
    51    39    37   ar
    52   131   133   ar
    53   133   134    1
    54    40    38   ar
    55   148   150   ar
    56    49    50    1
    57    49    48    1
    58    50    51    2
    59    15    14   ar
    60    14    13    1
    61    37    38   ar
    62    37    36    1
    63    66    63    1
    64    36    33    1
    65    47    44    1
    66    13    10    1
    67    44    43    1
    68    44    45    1
    69     1     2    1
    70     9    10    1
    71     9     3   am
    72     2     3    1
    73     2     5    1
    74    43    34   am
    75    63    64    1
    76    63    62    1
    77    34    35    2
    78    34    33    1
    79    10    11    1
    80    33    32    1
    81     3     4    2
    82     7     6   ar
    83    46    45    2
    84    65    64    2
    85    73    71    1
    86     5     6    1
    87    64    67   am
    88     6     8   ar
    89    62    57   am
    90    12    11    2
    91    58    57    2
    92    32    22   am
    93    57    56    1
    94    71    72    1
    95    71    68    1
    96    67    68    1
    97    55    56    1
    98   103   102    1
    99   103   104    1
   100   101    98    1
   101   105   104    2
   102    56    59    1
   103    68    69    1
   104   102    99   am
   105    22    23    2
   106    22    21    1
   107    99    98    1
   108    99   100    2
   109    98    97    1
   110   159   158    1
   111    21    20    1
   112    21    24    1
   113    70    69    2
   114    59    60    1
   115    59    61    1
   116   158   157    1
   117    24    25    1
   118    96    94    1
   119    27    25   ar
   120    27    29   ar
   121    25    26   ar
   122   157   156    1
   123    29    30   ar
   124    94    95    1
   125    94    93    2
   126    26    28   ar
   127   155   156    1
   128   155   152    1
   129    85    84    1
   130    30    28   ar
   131    30    31    1
   132    93    92    1
   133    82    84   ar
   134    82    80   ar
   135   152   151    1
   136   152   153    1
   137    84    83   ar
   138    92    91    1
   139    80    79   ar
   140    91    90    1
   141   153   154    2
   142    83    81   ar
   143    74    75    1
   144    79    81   ar
   145    79    78    1
   146    90    87    1
   147    75    78    1
   148    75    76    1
   149    87    86    1
   150    87    88    1
   151    76    77    2
   152    88    89    2
