@<TRIPOS>MOLECULE
tmp/3prcB08.pdb
 95 90 0 0 0
SMALL
GASTEIGER

@<TRIPOS>ATOM
      1  N        127.3570   66.4290    3.9680 N.3   186  ALA186     -0.1245
      2  CA       127.6620   67.5610    3.1080 C.3   186  ALA186      0.1562
      3  C        128.0340   68.8230    3.8830 C.2   186  ALA186      0.2260
      4  O        128.8750   69.5860    3.4300 O.2   186  ALA186     -0.2867
      5  CB       126.4840   67.8520    2.1980 C.3   186  ALA186      0.0290
      6  N        131.4800   68.2190    4.8550 N.3   189  LEU189     -0.1245
      7  CA       132.3590   68.3840    3.7200 C.3   189  LEU189      0.1561
      8  C        132.5460   69.8580    3.4040 C.2   189  LEU189      0.2260
      9  O        133.6820   70.2950    3.2270 O.2   189  LEU189     -0.2867
     10  CB       131.7960   67.6830    2.4960 C.3   189  LEU189      0.0270
     11  CG       131.8150   66.1650    2.4880 C.3   189  LEU189      0.0019
     12  CD1      131.3490   65.6660    1.1370 C.3   189  LEU189      0.0001
     13  CD2      133.2130   65.6780    2.7990 C.3   189  LEU189      0.0001
     14  N        137.9630   68.0840   -4.8310 N.3   216  PHE216     -0.1241
     15  CA       136.8680   67.1390   -5.0200 C.3   216  PHE216      0.1605
     16  C        136.8600   66.4000   -6.3550 C.2   216  PHE216      0.2264
     17  O        136.5040   65.2190   -6.4070 O.2   216  PHE216     -0.2867
     18  CB       135.5270   67.8070   -4.7420 C.3   216  PHE216      0.0534
     19  CG       135.1500   67.7440   -3.2990 C.ar  216  PHE216     -0.0203
     20  CD1      135.0950   66.5080   -2.6510 C.ar  216  PHE216     -0.0042
     21  CD2      135.0390   68.9020   -2.5400 C.ar  216  PHE216     -0.0042
     22  CE1      134.9500   66.4250   -1.2710 C.ar  216  PHE216     -0.0003
     23  CE2      134.8910   68.8320   -1.1630 C.ar  216  PHE216     -0.0003
     24  CZ       134.8510   67.5890   -0.5240 C.ar  216  PHE216     -0.0000
     25  N        136.6820   62.5090   -5.7220 N.3   220  VAL220     -0.1245
     26  CA       135.4630   61.8440   -6.1940 C.3   220  VAL220      0.1561
     27  C        135.1370   62.0490   -7.6790 C.2   220  VAL220      0.2260
     28  O        134.0920   61.6270   -8.1450 O.2   220  VAL220     -0.2867
     29  CB       134.1890   62.2610   -5.3480 C.3   220  VAL220      0.0252
     30  CG1      134.4190   62.0190   -3.8900 C.3   220  VAL220      0.0019
     31  CG2      133.8260   63.7140   -5.5650 C.3   220  VAL220      0.0019
     32  N        134.2890   64.7480   -9.2610 N.3   222  TYR222     -0.1227
     33  CA       133.3890   65.8670   -9.5540 C.3   222  TYR222      0.1736
     34  C        133.4280   66.9570   -8.4620 C.2   222  TYR222      0.2596
     35  O        133.5570   66.6480   -7.2790 O.2   222  TYR222     -0.2718
     36  CB       131.9590   65.3370   -9.6990 C.3   222  TYR222      0.0548
     37  CG       130.9510   66.3960  -10.0740 C.ar  222  TYR222     -0.0200
     38  CD1      131.0360   67.0680  -11.2990 C.ar  222  TYR222     -0.0009
     39  CD2      129.9870   66.8140   -9.1660 C.ar  222  TYR222     -0.0009
     40  CE1      130.1880   68.1360  -11.6080 C.ar  222  TYR222      0.0417
     41  CE2      129.1490   67.8980   -9.4590 C.ar  222  TYR222      0.0417
     42  CZ       129.2580   68.5470  -10.6820 C.ar  222  TYR222      0.1957
     43  OH       128.4400   69.6110  -10.9590 O.3   222  TYR222     -0.2866
     44  N        133.3410   68.2280   -8.8500 N.am  223  SER223     -0.1938
     45  CA       133.0580   69.2770   -7.8820 C.3   223  SER223      0.2055
     46  C        131.9120   70.1770   -8.3490 C.2   223  SER223      0.2642
     47  O        131.9150   70.6770   -9.4750 O.2   223  SER223     -0.2714
     48  CB       134.3010   70.1080   -7.6050 C.3   223  SER223      0.2130
     49  OG       134.0360   71.0440   -6.5790 O.3   223  SER223     -0.2179
     50  N        130.8970   70.3210   -7.5020 N.am  224  ILE224     -0.1977
     51  CA       129.7020   71.0640   -7.8700 C.3   224  ILE224      0.1596
     52  C        129.9860   72.5740   -7.9270 C.2   224  ILE224      0.2287
     53  O        129.3890   73.2990   -8.7320 O.2   224  ILE224     -0.2864
     54  CB       128.4970   70.7030   -6.9020 C.3   224  ILE224      0.0276
     55  CG1      127.1640   71.1160   -7.5340 C.3   224  ILE224      0.0022
     56  CG2      128.6910   71.3150   -5.4990 C.3   224  ILE224      0.0022
     57  CD1      125.9450   70.7490   -6.7150 C.3   224  ILE224      0.0001
     58  N        127.1550   74.4790   -4.2140 N.3   229  ILE229     -0.1245
     59  CA       127.1170   73.7060   -2.9840 C.3   229  ILE229      0.1561
     60  C        126.1610   74.3290   -1.9500 C.2   229  ILE229      0.2260
     61  O        125.5320   73.6250   -1.1690 O.2   229  ILE229     -0.2867
     62  CB       128.5220   73.5410   -2.3790 C.3   229  ILE229      0.0252
     63  CG1      128.4600   72.5320   -1.2450 C.3   229  ILE229      0.0019
     64  CG2      129.0510   74.8610   -1.8480 C.3   229  ILE229      0.0019
     65  CD1      127.9300   71.2000   -1.6780 C.3   229  ILE229      0.0001
     66  N        123.3620   76.0130   -2.8890 N.3   231  ARG231     -0.1231
     67  CA       122.0730   75.6770   -3.4710 C.3   231  ARG231      0.1694
     68  C        121.7560   74.2140   -3.2170 C.2   231  ARG231      0.2591
     69  O        120.6540   73.8800   -2.7950 O.2   231  ARG231     -0.2718
     70  CB       122.0630   75.9400   -4.9750 C.3   231  ARG231      0.0321
     71  CG       120.6630   75.8670   -5.5850 C.3   231  ARG231      0.0489
     72  CD       120.7140   75.7610   -7.0940 C.3   231  ARG231      0.2205
     73  NE       121.3090   76.9370   -7.7220 N.pl3 231  ARG231     -0.0865
     74  CZ       122.4200   76.9210   -8.4540 C.cat 231  ARG231      0.5346
     75  NH1      123.1100   75.7890   -8.6230 N.pl3 231  ARG231      0.1354
     76  NH2      122.8410   78.0510   -9.0220 N.pl3 231  ARG231      0.1354
     77  N        122.7350   73.3400   -3.3970 N.am  232  LEU232     -0.1980
     78  CA       122.5330   71.9410   -3.0630 C.3   232  LEU232      0.1596
     79  C        122.1740   71.7630   -1.5820 C.2   232  LEU232      0.2287
     80  O        121.2590   71.0100   -1.2470 O.2   232  LEU232     -0.2864
     81  CB       123.7700   71.1330   -3.4090 C.3   232  LEU232      0.0297
     82  CG       123.6280   69.6210   -3.2490 C.3   232  LEU232      0.0022
     83  CD1      122.6600   69.0280   -4.2580 C.3   232  LEU232      0.0001
     84  CD2      125.0000   69.0130   -3.4330 C.3   232  LEU232      0.0001
     85  N        118.7840   72.6100   -0.6390 N.3   235  PHE235     -0.1241
     86  CA       117.9390   71.5840   -1.2020 C.3   235  PHE235      0.1605
     87  C        117.9270   70.3070   -0.3760 C.2   235  PHE235      0.2264
     88  O        116.8630   69.7340   -0.1600 O.2   235  PHE235     -0.2867
     89  CB       118.4040   71.3000   -2.6220 C.3   235  PHE235      0.0534
     90  CG       117.8750   70.0140   -3.2150 C.ar  235  PHE235     -0.0203
     91  CD1      118.5930   68.8290   -3.0790 C.ar  235  PHE235     -0.0042
     92  CD2      116.7860   70.0400   -4.0930 C.ar  235  PHE235     -0.0042
     93  CE1      118.2520   67.7150   -3.8140 C.ar  235  PHE235     -0.0003
     94  CE2      116.4380   68.9160   -4.8370 C.ar  235  PHE235     -0.0003
     95  CZ       117.1730   67.7600   -4.7020 C.ar  235  PHE235     -0.0000
@<TRIPOS>BOND
     1    40    38   ar
     2    40    42   ar
     3    38    37   ar
     4    43    42    1
     5    42    41   ar
     6    37    36    1
     7    37    39   ar
     8    36    33    1
     9    33    32    1
    10    33    34    1
    11    47    46    2
    12    41    39   ar
    13    76    74    1
    14    44    34   am
    15    44    45    1
    16    53    52    2
    17    75    74    1
    18    34    35    2
    19    74    73    2
    20    46    45    1
    21    46    50   am
    22    28    27    2
    23    52    51    1
    24    45    48    1
    25    51    50    1
    26    51    54    1
    27    73    72    1
    28    27    26    1
    29    48    49    1
    30    55    54    1
    31    55    57    1
    32    72    71    1
    33    54    56    1
    34    17    16    2
    35    16    15    1
    36    26    25    1
    37    26    29    1
    38    71    70    1
    39    31    29    1
    40    29    30    1
    41    15    14    1
    42    15    18    1
    43    70    67    1
    44    94    95   ar
    45    94    92   ar
    46    18    19    1
    47    95    93   ar
    48    83    82    1
    49    58    59    1
    50    92    90   ar
    51    93    91   ar
    52    67    68    1
    53    67    66    1
    54    84    82    1
    55    81    82    1
    56    81    78    1
    57    77    68   am
    58    77    78    1
    59    19    20   ar
    60    19    21   ar
    61    68    69    2
    62    90    91   ar
    63    90    89    1
    64    78    79    1
    65    59    62    1
    66    59    60    1
    67    20    22   ar
    68    89    86    1
    69    21    23   ar
    70    62    64    1
    71    62    63    1
    72    60    61    2
    73    65    63    1
    74    79    80    2
    75    22    24   ar
    76    86    85    1
    77    86    87    1
    78    23    24   ar
    79    87    88    2
    80    12    11    1
    81     5     2    1
    82    11    10    1
    83    11    13    1
    84    10     7    1
    85     2     3    1
    86     2     1    1
    87     9     8    2
    88     8     7    1
    89     4     3    2
    90     7     6    1
