@<TRIPOS>MOLECULE
tmp/3preA00.pdb
 172 162 0 0 0
SMALL
GASTEIGER

@<TRIPOS>ATOM
      1  N         47.6420   18.1100   40.6960 N.3   559  MET559     -0.1230
      2  CA        47.4220   19.0280   39.5800 C.3   559  MET559      0.1702
      3  C         46.5890   20.2590   39.9490 C.2   559  MET559      0.2592
      4  O         46.0960   20.3630   41.0710 O.2   559  MET559     -0.2718
      5  CB        46.8000   18.2800   38.4030 C.3   559  MET559      0.0401
      6  CG        47.7060   17.2590   37.7500 C.3   559  MET559      0.0596
      7  SD        49.0490   17.9860   36.7730 S.3   559  MET559     -0.1393
      8  CE        50.4590   17.9010   37.8840 C.3   559  MET559      0.0692
      9  N         46.4320   21.1820   39.0000 N.am  560  ALA560     -0.1966
     10  CA        45.7380   22.4470   39.2490 C.3   560  ALA560      0.1728
     11  C         44.3850   22.5480   38.5370 C.2   560  ALA560      0.2616
     12  O         44.2920   23.1150   37.4340 O.2   560  ALA560     -0.2715
     13  CB        46.6300   23.6150   38.8540 C.3   560  ALA560      0.0334
     14  N         43.3510   22.0030   39.1780 N.am  561  SER561     -0.1950
     15  CA        41.9810   22.0070   38.6500 C.3   561  SER561      0.1924
     16  C         40.9960   21.8380   39.8030 C.2   561  SER561      0.2314
     17  O         41.3910   21.4090   40.8970 O.2   561  SER561     -0.2863
     18  CB        41.7890   20.8700   37.6340 C.3   561  SER561      0.2116
     19  OG        40.4190   20.4760   37.5200 O.3   561  SER561     -0.2180
     20  N         43.5950   16.1010   40.3980 N.3   565  PRO565     -0.2116
     21  CA        44.0140   14.7660   40.0070 C.3   565  PRO565      0.1372
     22  C         45.4340   14.4970   40.4550 C.2   565  PRO565      0.2244
     23  O         46.2480   15.4130   40.5360 O.2   565  PRO565     -0.2868
     24  CB        43.9060   14.7790   38.4760 C.3   565  PRO565      0.0268
     25  CG        43.7510   16.1750   38.0620 C.3   565  PRO565      0.0207
     26  CD        43.6110   17.0470   39.2650 C.3   565  PRO565      0.0892
     27  N         48.7990   13.1480   39.4400 N.3   567  TRP567     -0.1241
     28  CA        49.6890   12.7370   38.3560 C.3   567  TRP567      0.1605
     29  C         50.8130   11.8400   38.8920 C.2   567  TRP567      0.2264
     30  O         51.6230   12.2750   39.6930 O.2   567  TRP567     -0.2867
     31  CB        50.2220   13.9860   37.6410 C.3   567  TRP567      0.0550
     32  CG        51.3100   13.7650   36.6510 C.ar  567  TRP567      0.0003
     33  CD1       52.5120   13.1620   36.8690 C.ar  567  TRP567      0.0946
     34  CD2       51.3160   14.1860   35.2890 C.ar  567  TRP567      0.0152
     35  NE1       53.2580   13.1610   35.7180 N.ar  567  TRP567     -0.2442
     36  CE2       52.5510   13.7940   34.7350 C.ar  567  TRP567      0.0810
     37  CE3       50.3900   14.8480   34.4760 C.ar  567  TRP567      0.0012
     38  CZ2       52.8910   14.0450   33.4130 C.ar  567  TRP567      0.0191
     39  CZ3       50.7250   15.0990   33.1520 C.ar  567  TRP567      0.0001
     40  CH2       51.9680   14.6980   32.6370 C.ar  567  TRP567      0.0015
     41  N         47.2580    8.9030   35.6030 N.3   586  ILE586     -0.1245
     42  CA        46.6140    9.9600   36.3540 C.3   586  ILE586      0.1561
     43  C         45.4340    9.3650   37.0640 C.2   586  ILE586      0.2260
     44  O         44.6250    8.7060   36.4250 O.2   586  ILE586     -0.2867
     45  CB        46.0620   11.0370   35.4180 C.3   586  ILE586      0.0252
     46  CG1       47.2020   11.7600   34.6970 C.3   586  ILE586      0.0019
     47  CG2       45.0820   11.9940   36.1750 C.3   586  ILE586      0.0019
     48  CD1       46.6950   12.7420   33.6910 C.3   586  ILE586      0.0001
     49  N         42.0060   10.1530   39.0190 N.3   588  LYS588     -0.1245
     50  CA        41.0840   11.2690   39.1330 C.3   588  LYS588      0.1561
     51  C         39.8090   10.8290   39.8260 C.2   588  LYS588      0.2260
     52  O         39.3770    9.6630   39.6870 O.2   588  LYS588     -0.2867
     53  CB        40.7610   11.8460   37.7420 C.3   588  LYS588      0.0271
     54  CG        40.1240   13.2490   37.7180 C.3   588  LYS588      0.0035
     55  CD        39.9930   13.8070   36.2900 C.3   588  LYS588      0.0206
     56  CE        38.9080   13.0630   35.4800 C.3   588  LYS588      0.1093
     57  NZ        38.2250   13.8820   34.4180 N.3   588  LYS588     -0.1314
     58  N         34.5590    8.9970   34.3270 N.3   593  LEU593     -0.1245
     59  CA        35.4910    8.2020   33.5280 C.3   593  LEU593      0.1561
     60  C         34.8910    7.0630   32.6750 C.2   593  LEU593      0.2260
     61  O         35.4980    6.6170   31.6930 O.2   593  LEU593     -0.2867
     62  CB        36.5780    7.6640   34.4540 C.3   593  LEU593      0.0270
     63  CG        37.8840    8.4620   34.4770 C.3   593  LEU593      0.0019
     64  CD1       37.7390    9.8700   33.8960 C.3   593  LEU593      0.0001
     65  CD2       38.4910    8.5040   35.8520 C.3   593  LEU593      0.0001
     66  N         34.0190    8.5860   29.2220 N.3   596  ASP596     -0.1239
     67  CA        35.2920    8.5650   28.4930 C.3   596  ASP596      0.1674
     68  C         35.4690    7.1950   27.8590 C.2   596  ASP596      0.2266
     69  O         35.6130    7.1040   26.6440 O.2   596  ASP596     -0.2867
     70  CB        36.4870    8.8720   29.3910 C.3   596  ASP596      0.1410
     71  CG        36.6560   10.3670   29.6950 C.2   596  ASP596      0.3668
     72  OD1       35.8340   10.9500   30.4470 O.co2 596  ASP596     -0.2456
     73  OD2       37.6660   10.9540   29.2360 O.co2 596  ASP596     -0.2456
     74  N         43.6250    7.3920   24.2620 N.3   622  TYR622     -0.1241
     75  CA        44.4350    7.0060   25.4060 C.3   622  TYR622      0.1605
     76  C         43.7210    5.9730   26.2880 C.2   622  TYR622      0.2264
     77  O         42.4860    5.9600   26.3770 O.2   622  TYR622     -0.2867
     78  CB        44.7490    8.2470   26.2390 C.3   622  TYR622      0.0534
     79  CG        43.5110    9.0250   26.6640 C.ar  622  TYR622     -0.0201
     80  CD1       42.7050    8.5890   27.7190 C.ar  622  TYR622     -0.0009
     81  CD2       43.1550   10.2020   26.0110 C.ar  622  TYR622     -0.0009
     82  CE1       41.5680    9.2900   28.0850 C.ar  622  TYR622      0.0417
     83  CE2       42.0350   10.9200   26.3850 C.ar  622  TYR622      0.0417
     84  CZ        41.2440   10.4560   27.4050 C.ar  622  TYR622      0.1957
     85  OH        40.1300   11.1780   27.7510 O.3   622  TYR622     -0.2866
     86  N         43.7120    7.1230   34.0960 N.3   634  ILE634     -0.1231
     87  CA        43.8740    7.5850   32.7190 C.3   634  ILE634      0.1692
     88  C         45.3170    7.3650   32.2540 C.2   634  ILE634      0.2592
     89  O         46.2670    7.5510   33.0090 O.2   634  ILE634     -0.2718
     90  CB        43.5900    9.1080   32.6670 C.3   634  ILE634      0.0266
     91  CG1       42.1370    9.4160   33.0310 C.3   634  ILE634      0.0019
     92  CG2       43.9210    9.7200   31.3140 C.3   634  ILE634      0.0020
     93  CD1       41.8390    9.3660   34.5370 C.3   634  ILE634      0.0001
     94  N         45.5230    6.9860   31.0150 N.am  635  GLU635     -0.1966
     95  CA        46.8930    6.9350   30.5350 C.3   635  GLU635      0.1733
     96  C         47.4610    8.3500   30.2750 C.2   635  GLU635      0.2616
     97  O         46.7300    9.2300   29.8190 O.2   635  GLU635     -0.2715
     98  CB        46.9490    6.0960   29.2710 C.3   635  GLU635      0.0429
     99  CG        48.3160    5.9660   28.6620 C.3   635  GLU635      0.1163
    100  CD        48.2400    5.4400   27.2630 C.2   635  GLU635      0.3649
    101  OE1       49.3090    5.1520   26.6970 O.co2 635  GLU635     -0.2457
    102  OE2       47.1100    5.3190   26.7270 O.co2 635  GLU635     -0.2457
    103  N         48.7440    8.5790   30.5720 N.am  636  ILE636     -0.1963
    104  CA        49.3620    9.8570   30.2430 C.3   636  ILE636      0.1727
    105  C         50.0520    9.7610   28.8990 C.2   636  ILE636      0.2616
    106  O         50.9440    8.9410   28.7030 O.2   636  ILE636     -0.2715
    107  CB        50.3900   10.3270   31.2760 C.3   636  ILE636      0.0290
    108  CG1       49.7640   10.4070   32.6590 C.3   636  ILE636      0.0022
    109  CG2       50.9020   11.7010   30.9040 C.3   636  ILE636      0.0023
    110  CD1       50.7350   10.8160   33.7620 C.3   636  ILE636      0.0001
    111  N         49.6420   10.6260   27.9780 N.am  637  VAL637     -0.1977
    112  CA        50.3240   10.7380   26.7020 C.3   637  VAL637      0.1596
    113  C         51.5300   11.6450   26.8370 C.2   637  VAL637      0.2287
    114  O         51.4280   12.7940   27.2620 O.2   637  VAL637     -0.2864
    115  CB        49.3830   11.2110   25.6030 C.3   637  VAL637      0.0276
    116  CG1       50.1620   11.5570   24.3450 C.3   637  VAL637      0.0022
    117  CG2       48.3730   10.1240   25.3130 C.3   637  VAL637      0.0022
    118  N         53.0070   16.3020   25.7870 N.3   640  ALA640     -0.1245
    119  CA        51.7890   16.8960   25.2710 C.3   640  ALA640      0.1562
    120  C         51.4690   18.0910   26.0950 C.2   640  ALA640      0.2260
    121  O         51.8450   18.1520   27.2540 O.2   640  ALA640     -0.2867
    122  CB        50.6700   15.9170   25.3960 C.3   640  ALA640      0.0290
    123  N         48.1220   21.1410   26.7630 N.3   642  THR642     -0.1218
    124  CA        46.8190   21.6800   26.5130 C.3   642  THR642      0.1862
    125  C         46.9570   22.8970   25.5980 C.2   642  THR642      0.2287
    126  O         47.9090   23.6690   25.7290 O.2   642  THR642     -0.2866
    127  CB        46.2010   22.0210   27.8580 C.3   642  THR642      0.1770
    128  OG1       45.2690   20.9950   28.1930 O.3   642  THR642     -0.2211
    129  CG2       45.5120   23.3620   27.8610 C.3   642  THR642      0.0375
    130  N         41.0240   24.0800   26.5710 N.3   705  ASP705     -0.1239
    131  CA        41.4560   23.4200   27.8020 C.3   705  ASP705      0.1674
    132  C         41.3810   21.8820   27.6480 C.2   705  ASP705      0.2266
    133  O         42.2370   21.1590   28.1450 O.2   705  ASP705     -0.2867
    134  CB        40.5600   23.8830   28.9500 C.3   705  ASP705      0.1410
    135  CG        41.3180   24.1280   30.2600 C.2   705  ASP705      0.3668
    136  OD1       42.5370   23.8250   30.3480 O.co2 705  ASP705     -0.2456
    137  OD2       40.6710   24.6350   31.2090 O.co2 705  ASP705     -0.2456
    138  N         44.4120   18.5770   23.5550 N.3   708  MET708     -0.1245
    139  CA        45.8460   18.4600   23.6620 C.3   708  MET708      0.1570
    140  C         46.5150   18.1580   22.3110 C.2   708  MET708      0.2261
    141  O         45.8570   17.6940   21.3570 O.2   708  MET708     -0.2867
    142  CB        46.2280   17.3850   24.6890 C.3   708  MET708      0.0387
    143  CG        45.3790   17.3360   25.9420 C.3   708  MET708      0.0595
    144  SD        46.3740   17.2090   27.4350 S.3   708  MET708     -0.1393
    145  CE        47.5410   15.9730   26.9580 C.3   708  MET708      0.0692
    146  N         44.6710   15.7720   19.8360 N.3   716  PHE716     -0.1241
    147  CA        43.7090   14.8060   20.4030 C.3   716  PHE716      0.1605
    148  C         42.8910   15.4060   21.5150 C.2   716  PHE716      0.2264
    149  O         43.3570   16.3220   22.1790 O.2   716  PHE716     -0.2867
    150  CB        44.4170   13.5580   20.9260 C.3   716  PHE716      0.0534
    151  CG        45.3060   13.7970   22.1170 C.ar  716  PHE716     -0.0203
    152  CD1       44.8080   13.7170   23.4080 C.ar  716  PHE716     -0.0042
    153  CD2       46.6620   14.0540   21.9420 C.ar  716  PHE716     -0.0042
    154  CE1       45.6410   13.9090   24.4860 C.ar  716  PHE716     -0.0003
    155  CE2       47.5080   14.2490   23.0280 C.ar  716  PHE716     -0.0003
    156  CZ        47.0030   14.1730   24.2840 C.ar  716  PHE716     -0.0000
    157  N         40.4440   15.1830   25.1320 N.3   718  ILE718     -0.1231
    158  CA        40.4850   14.5520   26.4420 C.3   718  ILE718      0.1692
    159  C         39.2470   14.9260   27.2420 C.2   718  ILE718      0.2592
    160  O         38.4930   15.8020   26.8420 O.2   718  ILE718     -0.2718
    161  CB        41.7010   15.0060   27.2470 C.3   718  ILE718      0.0266
    162  CG1       41.6220   16.5060   27.5090 C.3   718  ILE718      0.0019
    163  CG2       42.9830   14.6160   26.5370 C.3   718  ILE718      0.0020
    164  CD1       42.5860   16.9790   28.5140 C.3   718  ILE718      0.0001
    165  N         39.0540   14.2520   28.3740 N.am  719  ASP719     -0.1974
    166  CA        38.0620   14.6180   29.3780 C.3   719  ASP719      0.1709
    167  C         36.6220   14.6410   28.8620 C.2   719  ASP719      0.2293
    168  O         35.8440   15.5630   29.1270 O.2   719  ASP719     -0.2864
    169  CB        38.4460   15.9160   30.0820 C.3   719  ASP719      0.1436
    170  CG        38.0020   15.9430   31.5380 C.2   719  ASP719      0.3671
    171  OD1       37.5240   14.9020   32.0630 O.co2 719  ASP719     -0.2456
    172  OD2       38.1300   17.0160   32.1660 O.co2 719  ASP719     -0.2456
@<TRIPOS>BOND
     1   146   147    1
     2   147   150    1
     3   147   148    1
     4   150   151    1
     5   141   140    2
     6   148   149    2
     7   153   151   ar
     8   153   155   ar
     9   151   152   ar
    10   140   139    1
    11   155   156   ar
    12   152   154   ar
    13   138   139    1
    14   139   142    1
    15    74    75    1
    16   156   154   ar
    17   116   115    1
    18   142   143    1
    19   157   158    1
    20   119   122    1
    21   119   118    1
    22   119   120    1
    23   117   115    1
    24    75    78    1
    25    75    76    1
    26   125   126    2
    27   125   124    1
    28   115   112    1
    29   143   144    1
    30    81    83   ar
    31    81    79   ar
    32   120   121    2
    33    78    79    1
    34    76    77    2
    35    83    84   ar
    36   158   159    1
    37   158   161    1
    38   124   123    1
    39   124   127    1
    40   163   161    1
    41   130   131    1
    42    69    68    2
    43    79    80   ar
    44   101   100   ar
    45   112   113    1
    46   112   111    1
    47   102   100   ar
    48   113   114    2
    49   160   159    2
    50   145   144    1
    51   159   165   am
    52   161   162    1
    53   100    99    1
    54    84    85    1
    55    84    82   ar
    56   162   164    1
    57   132   131    1
    58   132   133    2
    59    80    82   ar
    60   131   134    1
    61   127   129    1
    62   127   128    1
    63    68    67    1
    64   111   105   am
    65   165   166    1
    66    67    66    1
    67    67    70    1
    68    99    98    1
    69   106   105    2
    70   167   168    2
    71   167   166    1
    72   105   104    1
    73   134   135    1
    74    73    71   ar
    75    98    95    1
    76   166   169    1
    77    70    71    1
    78    71    72   ar
    79    97    96    2
    80   169   170    1
    81   104   103    1
    82   104   107    1
    83   135   136   ar
    84   135   137   ar
    85    96    95    1
    86    96   103   am
    87    95    94    1
    88   109   107    1
    89    94    88   am
    90   107   108    1
    91    92    90    1
    92   170   171   ar
    93   170   172   ar
    94    61    60    2
    95    88    87    1
    96    88    89    2
    97    40    39   ar
    98    40    38   ar
    99   108   110    1
   100    90    87    1
   101    90    91    1
   102    60    59    1
   103    87    86    1
   104    91    93    1
   105    39    37   ar
   106    38    36   ar
   107    59    58    1
   108    59    62    1
   109    48    46    1
   110    64    63    1
   111    57    56    1
   112    62    63    1
   113    37    34   ar
   114    63    65    1
   115    46    45    1
   116    36    34   ar
   117    36    35   ar
   118    34    32   ar
   119    45    47    1
   120    45    42    1
   121    56    55    1
   122    41    42    1
   123    35    33   ar
   124    55    54    1
   125    42    43    1
   126    44    43    2
   127    32    33   ar
   128    32    31    1
   129     7     6    1
   130     7     8    1
   131    12    11    2
   132    19    18    1
   133    18    15    1
   134    31    28    1
   135    54    53    1
   136    53    50    1
   137     6     5    1
   138    25    24    1
   139    25    26    1
   140    28    29    1
   141    28    27    1
   142     5     2    1
   143    24    21    1
   144    11    14   am
   145    11    10    1
   146    15    14    1
   147    15    16    1
   148    13    10    1
   149    29    30    2
   150     9    10    1
   151     9     3   am
   152    49    50    1
   153    50    51    1
   154    26    20    1
   155     2     3    1
   156     2     1    1
   157    52    51    2
   158    16    17    2
   159     3     4    2
   160    21    20    1
   161    21    22    1
   162    22    23    2
