@<TRIPOS>MOLECULE
tmp/3prfB00.pdb
 188 179 0 0 0
SMALL
GASTEIGER

@<TRIPOS>ATOM
      1  N         59.8980   33.0630    4.7410 N.3    16  ILE16      -0.1231
      2  CA        60.6890   33.8170    3.7730 C.3    16  ILE16       0.1696
      3  C         59.8690   34.2390    2.5500 C.2    16  ILE16       0.2632
      4  O         60.3150   35.0660    1.7490 O.2    16  ILE16      -0.2714
      5  CB        61.9630   33.0450    3.3250 C.3    16  ILE16       0.0266
      6  CG1       61.5930   31.7020    2.6870 C.3    16  ILE16       0.0019
      7  CG2       62.9270   32.8590    4.4970 C.3    16  ILE16       0.0020
      8  CD1       62.6200   31.1820    1.7080 C.3    16  ILE16       0.0001
      9  N         58.6750   33.6690    2.4070 N.am   17  GLY17      -0.1718
     10  CA        57.8060   34.0070    1.2820 C.2    17  GLY17       0.1480
     11  C         56.6780   33.0370    0.9760 C.2    17  GLY17       0.2821
     12  O         56.2760   32.2320    1.8220 O.2    17  GLY17      -0.2669
     13  N         56.1790   33.1150   -0.2550 N.am   18  SER18      -0.1901
     14  CA        54.9850   32.3850   -0.6570 C.3    18  SER18       0.2058
     15  C         55.2650   31.3390   -1.7390 C.2    18  SER18       0.2643
     16  O         56.0390   31.5810   -2.6680 O.2    18  SER18      -0.2714
     17  CB        53.9220   33.3710   -1.1380 C.3    18  SER18       0.2130
     18  OG        52.6670   32.7350   -1.2660 O.3    18  SER18      -0.2179
     19  N         54.6380   30.1740   -1.6110 N.am   19  GLY19      -0.1954
     20  CA        54.7390   29.1230   -2.6260 C.3    19  GLY19       0.1869
     21  C         53.4300   28.9830   -3.3720 C.2    19  GLY19       0.2309
     22  O         52.5520   29.8370   -3.2570 O.2    19  GLY19      -0.2863
     23  N         56.1020   29.3860    2.8080 N.3    24  VAL24      -0.1245
     24  CA        57.4060   28.7340    2.7980 C.3    24  VAL24       0.1561
     25  C         58.3370   29.3140    3.8580 C.2    24  VAL24       0.2260
     26  O         58.4910   30.5290    3.9580 O.2    24  VAL24      -0.2867
     27  CB        58.0700   28.8280    1.3880 C.3    24  VAL24       0.0252
     28  CG1       59.4860   28.2580    1.3960 C.3    24  VAL24       0.0019
     29  CG2       57.2140   28.1230    0.3320 C.3    24  VAL24       0.0019
     30  N         64.3150   23.8350    3.2760 N.3    34  ALA34      -0.1245
     31  CA        63.1710   24.6740    2.9170 C.3    34  ALA34       0.1562
     32  C         61.8650   23.9280    3.2000 C.2    34  ALA34       0.2260
     33  O         61.7100   22.7540    2.8340 O.2    34  ALA34      -0.2867
     34  CB        63.2500   25.0950    1.4680 C.3    34  ALA34       0.0290
     35  N         57.6270   24.0110    2.8870 N.3    36  LYS36      -0.1245
     36  CA        56.3950   24.5560    2.3240 C.3    36  LYS36       0.1561
     37  C         55.2250   24.0200    3.1370 C.2    36  LYS36       0.2260
     38  O         54.9440   22.8210    3.1270 O.2    36  LYS36      -0.2867
     39  CB        56.2550   24.1560    0.8510 C.3    36  LYS36       0.0271
     40  CG        55.0940   24.8100    0.0940 C.3    36  LYS36       0.0035
     41  CD        54.9960   24.2640   -1.3300 C.3    36  LYS36       0.0206
     42  CE        53.8960   24.9350   -2.1270 C.3    36  LYS36       0.1093
     43  NZ        53.8860   24.4420   -3.5290 N.3    36  LYS36      -0.1314
     44  N         51.7760   17.0790   -5.4670 N.3    54  GLU54      -0.1245
     45  CA        53.1440   17.5850   -5.4110 C.3    54  GLU54       0.1567
     46  C         54.0860   16.4980   -4.8830 C.2    54  GLU54       0.2260
     47  O         55.0870   16.1580   -5.5310 O.2    54  GLU54      -0.2867
     48  CB        53.2280   18.8730   -4.5720 C.3    54  GLU54       0.0388
     49  CG        54.5130   19.6780   -4.8200 C.3    54  GLU54       0.1160
     50  CD        54.5150   21.0770   -4.2120 C.2    54  GLU54       0.3649
     51  OE1       53.4900   21.4730   -3.6200 O.co2  54  GLU54      -0.2457
     52  OE2       55.5500   21.7810   -4.3230 O.co2  54  GLU54      -0.2457
     53  N         57.1030   14.9770   -6.8570 N.3    58  LEU58      -0.1245
     54  CA        58.4500   15.1970   -6.3660 C.3    58  LEU58       0.1561
     55  C         59.1980   13.9010   -6.0840 C.2    58  LEU58       0.2260
     56  O         60.3850   13.7920   -6.3770 O.2    58  LEU58      -0.2867
     57  CB        58.4080   16.0540   -5.1150 C.3    58  LEU58       0.0270
     58  CG        58.1740   17.5370   -5.3620 C.3    58  LEU58       0.0019
     59  CD1       57.5750   18.1450   -4.1240 C.3    58  LEU58       0.0001
     60  CD2       59.4750   18.2420   -5.7670 C.3    58  LEU58       0.0001
     61  N         65.0600   20.7750   -7.5890 N.3    67  LEU67      -0.1245
     62  CA        65.0680   20.9500   -6.1320 C.3    67  LEU67       0.1561
     63  C         64.8440   19.6150   -5.4390 C.2    67  LEU67       0.2260
     64  O         63.8590   18.9210   -5.7130 O.2    67  LEU67      -0.2867
     65  CB        64.0020   21.9630   -5.6930 C.3    67  LEU67       0.0270
     66  CG        64.1520   22.6050   -4.3110 C.3    67  LEU67       0.0019
     67  CD1       65.4950   23.2650   -4.1730 C.3    67  LEU67       0.0001
     68  CD2       63.0650   23.6320   -4.0570 C.3    67  LEU67       0.0001
     69  N         55.9320   20.2060    2.8340 N.3    80  ILE80      -0.1245
     70  CA        56.9110   19.6830    1.8830 C.3    80  ILE80       0.1561
     71  C         58.3010   20.1410    2.3140 C.2    80  ILE80       0.2260
     72  O         58.5100   21.3180    2.5920 O.2    80  ILE80      -0.2867
     73  CB        56.6510   20.1910    0.4420 C.3    80  ILE80       0.0252
     74  CG1       55.1640   20.0900    0.0530 C.3    80  ILE80       0.0019
     75  CG2       57.5770   19.4870   -0.5580 C.3    80  ILE80       0.0019
     76  CD1       54.6740   18.7170   -0.2760 C.3    80  ILE80       0.0001
     77  N         62.3530   20.3000    1.3280 N.3    82  THR82      -0.1203
     78  CA        63.3520   20.2240    0.2650 C.3    82  THR82       0.1994
     79  C         64.6840   20.7340    0.7970 C.2    82  THR82       0.2618
     80  O         64.7260   21.3830    1.8400 O.2    82  THR82      -0.2717
     81  CB        62.9790   21.1090   -0.9670 C.3    82  THR82       0.1784
     82  OG1       63.3080   22.4770   -0.6980 O.3    82  THR82      -0.2211
     83  CG2       61.5020   21.0150   -1.3330 C.3    82  THR82       0.0376
     84  N         65.7670   20.4630    0.0730 N.am   83  GLN83      -0.1965
     85  CA        67.0500   21.1070    0.3550 C.3    83  GLN83       0.1733
     86  C         66.8770   22.6240    0.4760 C.2    83  GLN83       0.2616
     87  O         66.0660   23.2110   -0.2300 O.2    83  GLN83      -0.2715
     88  CB        68.0790   20.7750   -0.7390 C.3    83  GLN83       0.0408
     89  CG        67.8160   21.4090   -2.1160 C.3    83  GLN83       0.0908
     90  CD        68.7040   20.8600   -3.2220 C.2    83  GLN83       0.2608
     91  OE1       68.2300   20.5390   -4.3090 O.2    83  GLN83      -0.2717
     92  NE2       69.9910   20.7520   -2.9510 N.am   83  GLN83      -0.0878
     93  N         67.6110   23.2550    1.3870 N.am   84  TRP84      -0.1960
     94  CA        67.6650   24.7120    1.4150 C.3    84  TRP84       0.1771
     95  C         68.7030   25.1940    0.4100 C.2    84  TRP84       0.2619
     96  O         69.8630   24.8020    0.4800 O.2    84  TRP84      -0.2715
     97  CB        68.0010   25.2420    2.8080 C.3    84  TRP84       0.0590
     98  CG        68.3400   26.7170    2.8090 C.ar   84  TRP84       0.0006
     99  CD1       69.5870   27.2700    2.7420 C.ar   84  TRP84       0.0946
    100  CD2       67.4200   27.8150    2.8560 C.ar   84  TRP84       0.0152
    101  NE1       69.5040   28.6390    2.7510 N.ar   84  TRP84      -0.2442
    102  CE2       68.1870   29.0040    2.8200 C.ar   84  TRP84       0.0810
    103  CE3       66.0220   27.9120    2.9260 C.ar   84  TRP84       0.0012
    104  CZ2       67.6050   30.2770    2.8510 C.ar   84  TRP84       0.0191
    105  CZ3       65.4420   29.1790    2.9580 C.ar   84  TRP84       0.0001
    106  CH2       66.2370   30.3450    2.9210 C.ar   84  TRP84       0.0015
    107  N         68.2870   26.0450   -0.5240 N.am   85  CYS85      -0.1968
    108  CA        69.2290   26.6400   -1.4660 C.3    85  CYS85       0.1712
    109  C         69.7490   27.9740   -0.9820 C.2    85  CYS85       0.2296
    110  O         68.9710   28.8680   -0.6550 O.2    85  CYS85      -0.2864
    111  CB        68.6000   26.8010   -2.8420 C.3    85  CYS85       0.0983
    112  SG        68.6480   25.2960   -3.8270 S.3    85  CYS85      -0.0798
    113  N         71.2580   31.4940   -1.6480 N.3    87  GLY87      -0.1210
    114  CA        71.1400   32.4230   -2.7860 C.3    87  GLY87       0.1956
    115  C         69.7860   32.2580   -3.4640 C.2    87  GLY87       0.2613
    116  O         69.4140   31.1420   -3.8500 O.2    87  GLY87      -0.2717
    117  N         69.0600   33.3660   -3.6250 N.am   88  SER88      -0.1938
    118  CA        67.6200   33.3190   -3.9260 C.3    88  SER88       0.2055
    119  C         67.2580   32.7770   -5.3340 C.2    88  SER88       0.2643
    120  O         68.0570   32.0810   -5.9730 O.2    88  SER88      -0.2714
    121  CB        66.9860   34.6970   -3.6520 C.3    88  SER88       0.2130
    122  OG        65.6100   34.5990   -3.2950 O.3    88  SER88      -0.2179
    123  N         66.0460   33.0920   -5.7920 N.am   89  SER89      -0.1949
    124  CA        65.5490   32.6870   -7.1090 C.3    89  SER89       0.1924
    125  C         66.2130   33.4570   -8.2560 C.2    89  SER89       0.2314
    126  O         66.7840   34.5350   -8.0410 O.2    89  SER89      -0.2863
    127  CB        64.0450   32.9250   -7.1770 C.3    89  SER89       0.2116
    128  OG        63.7770   34.3120   -7.1820 O.3    89  SER89      -0.2180
    129  N         64.7050   36.9010   -8.3960 N.3    92  HIS92      -0.1241
    130  CA        65.2550   37.8250   -7.4160 C.3    92  HIS92       0.1621
    131  C         66.5210   38.4640   -7.9500 C.2    92  HIS92       0.2264
    132  O         66.6890   39.6820   -7.8560 O.2    92  HIS92      -0.2867
    133  CB        65.5510   37.0940   -6.1160 C.3    92  HIS92       0.0745
    134  CG        65.8060   38.0070   -4.9620 C.ar   92  HIS92       0.0817
    135  ND1       67.0610   38.1940   -4.4240 N.ar   92  HIS92      -0.2268
    136  CD2       64.9660   38.7920   -4.2440 C.ar   92  HIS92       0.1154
    137  CE1       66.9840   39.0520   -3.4220 C.ar   92  HIS92       0.1986
    138  NE2       65.7240   39.4300   -3.2930 N.ar   92  HIS92      -0.2212
    139  N         60.8580   32.5350  -10.8850 N.3   133  ASN133     -0.1225
    140  CA        60.5870   32.4310   -9.4550 C.3   133  ASN133      0.1785
    141  C         60.7780   31.0290   -8.9330 C.2   133  ASN133      0.2597
    142  O         60.9310   30.8240   -7.7300 O.2   133  ASN133     -0.2718
    143  CB        59.1370   32.8030   -9.1710 C.3   133  ASN133      0.1169
    144  CG        58.9100   34.2750   -9.2020 C.2   133  ASN133      0.2627
    145  OD1       59.4700   35.0050   -8.3740 O.2   133  ASN133     -0.2716
    146  ND2       58.0940   34.7420  -10.1620 N.am  133  ASN133     -0.0877
    147  N         60.7040   30.0610   -9.8350 N.am  134  ASN134     -0.1974
    148  CA        60.8380   28.6640   -9.4630 C.3   134  ASN134      0.1688
    149  C         62.1820   28.1140   -9.9050 C.2   134  ASN134      0.2292
    150  O         62.3610   26.9030  -10.0290 O.2   134  ASN134     -0.2864
    151  CB        59.6800   27.8590  -10.0460 C.3   134  ASN134      0.1181
    152  CG        58.3330   28.3440   -9.5510 C.2   134  ASN134      0.2629
    153  OD1       58.2170   28.8410   -8.4350 O.2   134  ASN134     -0.2716
    154  ND2       57.3050   28.2060  -10.3810 N.am  134  ASN134     -0.0877
    155  N         65.9570   28.3940   -8.6510 N.3   136  PHE136     -0.1241
    156  CA        66.7740   28.8200   -7.5410 C.3   136  PHE136      0.1605
    157  C         68.2230   28.5160   -7.8290 C.2   136  PHE136      0.2264
    158  O         68.5540   27.5050   -8.4470 O.2   136  PHE136     -0.2867
    159  CB        66.3100   28.1440   -6.2600 C.3   136  PHE136      0.0534
    160  CG        64.8380   28.3150   -5.9930 C.ar  136  PHE136     -0.0203
    161  CD1       63.9320   27.3320   -6.3700 C.ar  136  PHE136     -0.0042
    162  CD2       64.3590   29.4640   -5.3850 C.ar  136  PHE136     -0.0042
    163  CE1       62.5750   27.4900   -6.1330 C.ar  136  PHE136     -0.0003
    164  CE2       63.0110   29.6270   -5.1520 C.ar  136  PHE136     -0.0003
    165  CZ        62.1140   28.6350   -5.5230 C.ar  136  PHE136     -0.0000
    166  N         62.0860   24.2580   -9.0430 N.3   146  GLY146     -0.1210
    167  CA        61.2030   23.8160   -7.9770 C.3   146  GLY146      0.1956
    168  C         59.9750   24.6280   -7.6110 C.2   146  GLY146      0.2612
    169  O         60.0800   25.7810   -7.1900 O.2   146  GLY146     -0.2717
    170  N         58.8120   24.0120   -7.7990 N.am  147  ASP147     -0.1959
    171  CA        57.5500   24.3060   -7.0900 C.3   147  ASP147      0.1840
    172  C         56.5430   23.5310   -7.9000 C.2   147  ASP147      0.2622
    173  O         56.4610   23.7050   -9.1150 O.2   147  ASP147     -0.2715
    174  CB        57.1720   25.7880   -7.0320 C.3   147  ASP147      0.1450
    175  CG        55.9140   26.0270   -6.2110 C.2   147  ASP147      0.3671
    176  OD1       55.1000   25.0880   -6.0980 O.co2 147  ASP147     -0.2456
    177  OD2       55.7290   27.1370   -5.6660 O.co2 147  ASP147     -0.2456
    178  N         55.8000   22.6430   -7.2610 N.am  148  PHE148     -0.1974
    179  CA        55.2010   21.5890   -8.0560 C.3   148  PHE148      0.1639
    180  C         53.6680   21.3820   -7.9620 C.2   148  PHE148      0.2290
    181  O         53.2180   20.2480   -7.8520 O.2   148  PHE148     -0.2864
    182  CB        56.0240   20.2780   -7.9090 C.3   148  PHE148      0.0560
    183  CG        57.3310   20.2650   -8.7030 C.ar  148  PHE148     -0.0200
    184  CD1       58.4620   20.9190   -8.2420 C.ar  148  PHE148     -0.0042
    185  CD2       57.4320   19.5690   -9.9030 C.ar  148  PHE148     -0.0042
    186  CE1       59.6530   20.9030   -8.9790 C.ar  148  PHE148     -0.0003
    187  CE2       58.6230   19.5500  -10.6410 C.ar  148  PHE148     -0.0003
    188  CZ        59.7270   20.2160  -10.1740 C.ar  148  PHE148     -0.0000
@<TRIPOS>BOND
     1   139   140    1
     2   187   188   ar
     3   187   185   ar
     4   154   152   am
     5   188   186   ar
     6   146   144   am
     7   151   152    1
     8   151   148    1
     9   150   149    2
    10   149   148    1
    11   185   183   ar
    12   147   148    1
    13   147   141   am
    14   152   153    2
    15   140   143    1
    16   140   141    1
    17   144   143    1
    18   144   145    2
    19   173   172    2
    20   166   167    1
    21   186   184   ar
    22   141   142    2
    23   183   184   ar
    24   183   182    1
    25   155   156    1
    26   158   157    2
    27   129   130    1
    28   125   126    2
    29   125   124    1
    30   179   180    1
    31   179   182    1
    32   179   178    1
    33   167   168    1
    34   180   181    2
    35   131   132    2
    36   131   130    1
    37   172   178   am
    38   172   171    1
    39   157   156    1
    40   170   168   am
    41   170   171    1
    42   168   169    2
    43    61    62    1
    44   156   159    1
    45   130   133    1
    46   128   127    1
    47   127   124    1
    48   124   123    1
    49   171   174    1
    50   174   175    1
    51    53    54    1
    52    56    55    2
    53   161   163   ar
    54   161   160   ar
    55    54    55    1
    56    54    57    1
    57   159   160    1
    58   175   176   ar
    59   175   177   ar
    60   163   165   ar
    61    62    65    1
    62    62    63    1
    63   133   134    1
    64   160   162   ar
    65   120   119    2
    66   123   119   am
    67    60    58    1
    68    64    63    2
    69    65    66    1
    70    47    46    2
    71   165   164   ar
    72    44    45    1
    73    45    46    1
    74    45    48    1
    75   162   164   ar
    76    58    57    1
    77    58    59    1
    78   119   118    1
    79   134   135   ar
    80   134   136   ar
    81    49    48    1
    82    49    50    1
    83   135   137   ar
    84    52    50   ar
    85    66    67    1
    86    66    68    1
    87    91    90    2
    88   136   138   ar
    89    50    51   ar
    90   118   121    1
    91   118   117    1
    92   116   115    2
    93   112   111    1
    94   121   122    1
    95   117   115   am
    96    43    42    1
    97   115   114    1
    98   137   138   ar
    99    21    22    2
   100    21    20    1
   101    90    92   am
   102    90    89    1
   103   111   108    1
   104   114   113    1
   105    16    15    2
   106    20    19    1
   107    42    41    1
   108    89    88    1
   109    15    19   am
   110    15    14    1
   111   108   109    1
   112   108   107    1
   113    83    81    1
   114    41    40    1
   115    18    17    1
   116    17    14    1
   117   109   110    2
   118    81    82    1
   119    81    78    1
   120    88    85    1
   121    14    13    1
   122    75    73    1
   123   107    95   am
   124    76    74    1
   125    13    11   am
   126    87    86    2
   127    74    73    1
   128    84    85    1
   129    84    79   am
   130    40    39    1
   131    78    79    1
   132    78    77    1
   133    29    27    1
   134    85    86    1
   135    95    96    2
   136    95    94    1
   137    73    70    1
   138    86    93   am
   139    79    80    2
   140    39    36    1
   141    11    10    1
   142    11    12    2
   143    10     9    2
   144    93    94    1
   145    27    28    1
   146    27    24    1
   147    94    97    1
   148    34    31    1
   149     8     6    1
   150     4     3    2
   151    70    71    1
   152    70    69    1
   153    71    72    2
   154    36    35    1
   155    36    37    1
   156     9     3    1
   157     3     2    1
   158     6     5    1
   159    99   101   ar
   160    99    98   ar
   161   101   102   ar
   162    24    23    1
   163    24    25    1
   164    97    98    1
   165    98   100   ar
   166   102   104   ar
   167   102   100   ar
   168    33    32    2
   169   104   106   ar
   170   100   103   ar
   171    31    32    1
   172    31    30    1
   173   106   105   ar
   174   103   105   ar
   175    38    37    2
   176     5     2    1
   177     5     7    1
   178     2     1    1
   179    25    26    2
