@<TRIPOS>MOLECULE
tmp/3priB00.pdb
 157 148 0 0 0
SMALL
GASTEIGER

@<TRIPOS>ATOM
      1  N         59.7120   32.5140    5.1230 N.3    16  ILE16      -0.1231
      2  CA        60.3760   33.1580    3.9940 C.3    16  ILE16       0.1692
      3  C         59.4840   33.4760    2.7770 C.2    16  ILE16       0.2593
      4  O         59.9390   34.1340    1.8310 O.2    16  ILE16      -0.2718
      5  CB        61.6100   32.3300    3.5330 C.3    16  ILE16       0.0266
      6  CG1       61.1620   30.9730    2.9870 C.3    16  ILE16       0.0019
      7  CG2       62.5570   32.1050    4.7010 C.3    16  ILE16       0.0020
      8  CD1       62.2950   30.1640    2.3830 C.3    16  ILE16       0.0001
      9  N         58.2240   33.0310    2.7940 N.am   17  GLY17      -0.1942
     10  CA        57.2980   33.4380    1.7440 C.3    17  GLY17       0.2014
     11  C         56.1360   32.5010    1.4510 C.2    17  GLY17       0.2640
     12  O         55.8850   31.5390    2.1920 O.2    17  GLY17      -0.2714
     13  N         55.4170   32.7980    0.3650 N.am   18  SER18      -0.1935
     14  CA        54.3230   31.9480   -0.1210 C.3    18  SER18       0.2055
     15  C         54.7110   31.2290   -1.4200 C.2    18  SER18       0.2644
     16  O         55.0670   31.8630   -2.4170 O.2    18  SER18      -0.2714
     17  CB        53.0480   32.7810   -0.3720 C.3    18  SER18       0.2130
     18  OG        52.7120   33.5880    0.7410 O.3    18  SER18      -0.2179
     19  N         54.6470   29.9020   -1.3940 N.am   19  GLY19      -0.1939
     20  CA        54.6380   29.1310   -2.6230 C.3    19  GLY19       0.2014
     21  C         53.2780   28.4750   -2.7600 C.2    19  GLY19       0.2639
     22  O         52.5200   28.4250   -1.7860 O.2    19  GLY19      -0.2714
     23  N         52.9670   27.9670   -3.9490 N.am   20  SER20      -0.1949
     24  CA        51.6180   27.4710   -4.2320 C.3    20  SER20       0.1924
     25  C         50.9950   26.8120   -2.9990 C.2    20  SER20       0.2314
     26  O         51.6140   25.9520   -2.3620 O.2    20  SER20      -0.2863
     27  CB        51.6320   26.4830   -5.4200 C.3    20  SER20       0.2116
     28  OG        52.5330   25.4040   -5.2190 O.3    20  SER20      -0.2180
     29  N         56.1420   28.8930    3.2910 N.3    24  VAL24      -0.1245
     30  CA        57.4240   28.2070    3.3600 C.3    24  VAL24       0.1561
     31  C         58.3230   28.7320    4.4510 C.2    24  VAL24       0.2260
     32  O         58.2780   29.9110    4.7950 O.2    24  VAL24      -0.2867
     33  CB        58.1790   28.2760    2.0190 C.3    24  VAL24       0.0252
     34  CG1       59.6600   28.0780    2.2390 C.3    24  VAL24       0.0019
     35  CG2       57.6550   27.1890    1.0840 C.3    24  VAL24       0.0019
     36  N         64.1570   23.1620    3.7530 N.3    34  ALA34      -0.1245
     37  CA        63.0250   24.0600    3.6150 C.3    34  ALA34       0.1562
     38  C         61.7430   23.3010    3.8950 C.2    34  ALA34       0.2260
     39  O         61.5540   22.1540    3.4610 O.2    34  ALA34      -0.2867
     40  CB        62.9850   24.6450    2.2350 C.3    34  ALA34       0.0290
     41  N         57.7010   23.5040    3.5450 N.3    36  LYS36      -0.1245
     42  CA        56.5730   24.1300    2.8810 C.3    36  LYS36       0.1561
     43  C         55.3120   23.5250    3.4670 C.2    36  LYS36       0.2260
     44  O         55.0540   22.3330    3.3020 O.2    36  LYS36      -0.2867
     45  CB        56.6580   23.8620    1.3750 C.3    36  LYS36       0.0271
     46  CG        55.3440   23.9560    0.6220 C.3    36  LYS36       0.0035
     47  CD        55.3200   25.1470   -0.3230 C.3    36  LYS36       0.0206
     48  CE        54.7690   24.7560   -1.6870 C.3    36  LYS36       0.1093
     49  NZ        55.8570   24.4570   -2.6560 N.3    36  LYS36      -0.1314
     50  N         52.1890   17.4290   -4.9280 N.3    54  GLU54      -0.1245
     51  CA        53.6020   17.7890   -4.9510 C.3    54  GLU54       0.1567
     52  C         54.4710   16.6660   -4.3710 C.2    54  GLU54       0.2260
     53  O         55.5710   16.3740   -4.8720 O.2    54  GLU54      -0.2867
     54  CB        53.8410   19.0900   -4.1760 C.3    54  GLU54       0.0388
     55  CG        55.3010   19.5320   -4.2120 C.3    54  GLU54       0.1160
     56  CD        55.5110   20.9850   -3.8100 C.2    54  GLU54       0.3649
     57  OE1       56.6250   21.5140   -4.0520 O.co2  54  GLU54      -0.2457
     58  OE2       54.5650   21.5930   -3.2540 O.co2  54  GLU54      -0.2457
     59  N         57.3120   15.0160   -6.6060 N.3    58  LEU58      -0.1245
     60  CA        58.6570   15.3070   -6.1530 C.3    58  LEU58       0.1561
     61  C         59.3480   13.9790   -5.8740 C.2    58  LEU58       0.2260
     62  O         60.5440   13.8020   -6.1360 O.2    58  LEU58      -0.2867
     63  CB        58.6070   16.1790   -4.8940 C.3    58  LEU58       0.0270
     64  CG        58.4870   17.6890   -5.1130 C.3    58  LEU58       0.0019
     65  CD1       58.3890   18.4050   -3.7680 C.3    58  LEU58       0.0001
     66  CD2       59.7040   18.1790   -5.9120 C.3    58  LEU58       0.0001
     67  N         64.6560   20.3500   -7.6280 N.3    67  LEU67      -0.1245
     68  CA        64.8180   20.5800   -6.1890 C.3    67  LEU67       0.1561
     69  C         64.6980   19.2780   -5.4060 C.2    67  LEU67       0.2260
     70  O         63.8640   18.4280   -5.7410 O.2    67  LEU67      -0.2867
     71  CB        63.7580   21.5430   -5.6860 C.3    67  LEU67       0.0270
     72  CG        63.9210   21.9120   -4.2190 C.3    67  LEU67       0.0019
     73  CD1       65.0830   22.8810   -4.1100 C.3    67  LEU67       0.0001
     74  CD2       62.6350   22.5270   -3.6650 C.3    67  LEU67       0.0001
     75  N         55.9400   19.6290    3.2210 N.3    80  ILE80      -0.1245
     76  CA        56.9290   19.0180    2.3530 C.3    80  ILE80       0.1561
     77  C         58.3310   19.4630    2.7610 C.2    80  ILE80       0.2260
     78  O         58.6420   20.6550    2.7560 O.2    80  ILE80      -0.2867
     79  CB        56.6790   19.3990    0.8870 C.3    80  ILE80       0.0252
     80  CG1       55.2710   18.9800    0.4820 C.3    80  ILE80       0.0019
     81  CG2       57.6790   18.6930   -0.0100 C.3    80  ILE80       0.0019
     82  CD1       55.0330   19.0600   -0.9780 C.3    80  ILE80       0.0001
     83  N         62.0890   19.6430    1.8200 N.3    82  THR82      -0.1203
     84  CA        63.1140   19.5330    0.7900 C.3    82  THR82       0.1994
     85  C         64.4370   20.0660    1.3300 C.2    82  THR82       0.2618
     86  O         64.4990   20.6560    2.4130 O.2    82  THR82      -0.2717
     87  CB        62.7590   20.3420   -0.4730 C.3    82  THR82       0.1784
     88  OG1       63.0370   21.7260   -0.2420 O.3    82  THR82      -0.2211
     89  CG2       61.2810   20.1720   -0.8220 C.3    82  THR82       0.0376
     90  N         65.4980   19.8450    0.5690 N.am   83  GLN83      -0.1965
     91  CA        66.7870   20.4230    0.8930 C.3    83  GLN83       0.1733
     92  C         66.6170   21.9260    1.0850 C.2    83  GLN83       0.2616
     93  O         65.5630   22.4860    0.7840 O.2    83  GLN83      -0.2715
     94  CB        67.7730   20.1580   -0.2460 C.3    83  GLN83       0.0408
     95  CG        67.4270   20.8590   -1.5570 C.3    83  GLN83       0.0908
     96  CD        68.4410   20.5830   -2.6420 C.2    83  GLN83       0.2608
     97  OE1       68.1170   20.0130   -3.6750 O.2    83  GLN83      -0.2717
     98  NE2       69.6780   20.9870   -2.4110 N.am   83  GLN83      -0.0878
     99  N         67.6630   22.5700    1.5870 N.am   84  TRP84      -0.1960
    100  CA        67.7000   24.0210    1.6810 C.3    84  TRP84       0.1771
    101  C         68.7580   24.5840    0.7360 C.2    84  TRP84       0.2619
    102  O         69.8520   24.0360    0.6180 O.2    84  TRP84      -0.2715
    103  CB        68.0050   24.4460    3.1220 C.3    84  TRP84       0.0590
    104  CG        68.1780   25.9350    3.2750 C.ar   84  TRP84       0.0006
    105  CD1       69.3590   26.6230    3.3860 C.ar   84  TRP84       0.0946
    106  CD2       67.1420   26.9280    3.2400 C.ar   84  TRP84       0.0152
    107  NE1       69.1190   27.9800    3.4100 N.ar   84  TRP84      -0.2442
    108  CE2       67.7670   28.1910    3.3200 C.ar   84  TRP84       0.0810
    109  CE3       65.7450   26.8720    3.1410 C.ar   84  TRP84       0.0012
    110  CZ2       67.0450   29.3820    3.3030 C.ar   84  TRP84       0.0191
    111  CZ3       65.0300   28.0560    3.1250 C.ar   84  TRP84       0.0001
    112  CH2       65.6810   29.2930    3.2050 C.ar   84  TRP84       0.0015
    113  N         68.4210   25.6800    0.0670 N.am   85  CYS85      -0.1968
    114  CA        69.3560   26.3390   -0.8320 C.3    85  CYS85       0.1712
    115  C         69.6620   27.7540   -0.3790 C.2    85  CYS85       0.2296
    116  O         68.8740   28.6700   -0.6200 O.2    85  CYS85      -0.2864
    117  CB        68.7900   26.4070   -2.2490 C.3    85  CYS85       0.0983
    118  SG        68.4970   24.8180   -3.0330 S.3    85  CYS85      -0.0798
    119  N         60.4890   32.7160  -10.9290 N.3   133  ASN133     -0.1225
    120  CA        60.1620   32.5610   -9.5130 C.3   133  ASN133      0.1785
    121  C         60.5710   31.1890   -8.9620 C.2   133  ASN133      0.2597
    122  O         61.0440   31.0870   -7.8300 O.2   133  ASN133     -0.2718
    123  CB        58.6520   32.7190   -9.3090 C.3   133  ASN133      0.1169
    124  CG        58.2380   34.1430   -9.0420 C.2   133  ASN133      0.2627
    125  OD1       58.4530   34.6630   -7.9380 O.2   133  ASN133     -0.2716
    126  ND2       57.6200   34.7870  -10.0460 N.am  133  ASN133     -0.0877
    127  N         60.3580   30.1430   -9.7600 N.am  134  ASN134     -0.1974
    128  CA        60.4750   28.7700   -9.2950 C.3   134  ASN134      0.1688
    129  C         61.7830   28.1320   -9.7030 C.2   134  ASN134      0.2292
    130  O         61.9440   26.9180   -9.5900 O.2   134  ASN134     -0.2864
    131  CB        59.3300   27.9340   -9.8410 C.3   134  ASN134      0.1181
    132  CG        58.0030   28.3500   -9.2790 C.2   134  ASN134      0.2629
    133  OD1       57.9400   29.1790   -8.3760 O.2   134  ASN134     -0.2716
    134  ND2       56.9240   27.7760   -9.8020 N.am  134  ASN134     -0.0877
    135  N         65.7600   28.0890   -8.9100 N.3   136  PHE136     -0.1241
    136  CA        66.6490   28.4720   -7.8180 C.3   136  PHE136      0.1605
    137  C         68.1190   28.3370   -8.1590 C.2   136  PHE136      0.2264
    138  O         68.5550   27.3450   -8.7480 O.2   136  PHE136     -0.2867
    139  CB        66.3450   27.6460   -6.5740 C.3   136  PHE136      0.0534
    140  CG        65.1250   28.1010   -5.8400 C.ar  136  PHE136     -0.0203
    141  CD1       63.8570   27.8230   -6.3350 C.ar  136  PHE136     -0.0042
    142  CD2       65.2390   28.8320   -4.6680 C.ar  136  PHE136     -0.0042
    143  CE1       62.7190   28.2700   -5.6730 C.ar  136  PHE136     -0.0003
    144  CE2       64.1100   29.2800   -4.0030 C.ar  136  PHE136     -0.0003
    145  CZ        62.8450   28.9990   -4.5070 C.ar  136  PHE136     -0.0000
    146  N         61.8120   24.2860   -8.9180 N.3   146  GLY146     -0.1210
    147  CA        60.9980   24.0300   -7.7460 C.3   146  GLY146      0.1956
    148  C         59.5230   24.3610   -7.8510 C.2   146  GLY146      0.2611
    149  O         59.0790   25.0420   -8.7720 O.2   146  GLY146     -0.2717
    150  N         58.7710   23.8650   -6.8750 N.am  147  ASP147     -0.1973
    151  CA        57.3220   24.0440   -6.7810 C.3   147  ASP147      0.1709
    152  C         56.5570   23.1980   -7.7880 C.2   147  ASP147      0.2293
    153  O         56.3350   23.6100   -8.9210 O.2   147  ASP147     -0.2864
    154  CB        56.9330   25.5160   -6.9530 C.3   147  ASP147      0.1436
    155  CG        55.4630   25.7620   -6.6620 C.2   147  ASP147      0.3671
    156  OD1       54.8240   24.8790   -6.0320 O.co2 147  ASP147     -0.2456
    157  OD2       54.9520   26.8340   -7.0670 O.co2 147  ASP147     -0.2456
@<TRIPOS>BOND
     1   119   120    1
     2   126   124   am
     3   131   128    1
     4   131   132    1
     5   134   132   am
     6   127   128    1
     7   127   121   am
     8   129   130    2
     9   129   128    1
    10   120   123    1
    11   120   121    1
    12   123   124    1
    13   132   133    2
    14   124   125    2
    15   121   122    2
    16   153   152    2
    17   146   147    1
    18   135   136    1
    19   149   148    2
    20   138   137    2
    21   137   136    1
    22   148   147    1
    23   148   150   am
    24   136   139    1
    25   152   151    1
    26    67    68    1
    27   157   155   ar
    28   154   151    1
    29   154   155    1
    30   150   151    1
    31   155   156   ar
    32    59    60    1
    33   139   140    1
    34   141   140   ar
    35   141   143   ar
    36    68    71    1
    37    68    69    1
    38    60    61    1
    39    60    63    1
    40    62    61    2
    41    66    64    1
    42   140   142   ar
    43    70    69    2
    44    71    72    1
    45   143   145   ar
    46    27    28    1
    47    27    24    1
    48    64    63    1
    49    64    65    1
    50    51    50    1
    51    51    52    1
    52    51    54    1
    53    53    52    2
    54   142   144   ar
    55   145   144   ar
    56    24    23    1
    57    24    25    1
    58    72    73    1
    59    72    74    1
    60    55    54    1
    61    55    56    1
    62    57    56   ar
    63    23    21   am
    64    56    58   ar
    65    97    96    2
    66   118   117    1
    67    25    26    2
    68    21    20    1
    69    21    22    2
    70    49    48    1
    71    96    98   am
    72    96    95    1
    73    20    19    1
    74    16    15    2
    75   117   114    1
    76    48    47    1
    77    95    94    1
    78    15    19   am
    79    15    14    1
    80    82    80    1
    81   114   115    1
    82   114   113    1
    83    89    87    1
    84   116   115    2
    85    87    88    1
    86    87    84    1
    87    17    14    1
    88    17    18    1
    89    47    46    1
    90    94    91    1
    91    14    13    1
    92    81    79    1
    93   113   101   am
    94    13    11   am
    95    80    79    1
    96    90    91    1
    97    90    85   am
    98   102   101    2
    99    46    45    1
   100   101   100    1
   101    93    92    2
   102    84    85    1
   103    84    83    1
   104    79    76    1
   105    91    92    1
   106    35    33    1
   107    92    99   am
   108    85    86    2
   109    45    42    1
   110    11    10    1
   111    11    12    2
   112    99   100    1
   113   100   103    1
   114    10     9    1
   115     4     3    2
   116    33    34    1
   117    33    30    1
   118    40    37    1
   119    76    77    1
   120    76    75    1
   121     8     6    1
   122    78    77    2
   123     3     9   am
   124     3     2    1
   125    42    43    1
   126    42    41    1
   127     6     5    1
   128   103   104    1
   129   111   109   ar
   130   111   112   ar
   131   109   106   ar
   132   112   110   ar
   133   106   104   ar
   134   106   108   ar
   135   104   105   ar
   136    29    30    1
   137    44    43    2
   138   110   108   ar
   139   108   107   ar
   140    30    31    1
   141   105   107   ar
   142    39    38    2
   143     5     2    1
   144     5     7    1
   145    37    36    1
   146    37    38    1
   147     2     1    1
   148    31    32    2
