@<TRIPOS>MOLECULE
tmp/3prkA00.pdb
 166 158 0 0 0
SMALL
GASTEIGER

@<TRIPOS>ATOM
      1  N        -21.0210   26.2650    6.4250 N.3    39  ASP39      -0.1225
      2  CA       -20.3110   25.6740    7.5660 C.3    39  ASP39       0.1805
      3  C        -19.5930   26.7110    8.4390 C.2    39  ASP39       0.2598
      4  O        -20.1490   27.7480    8.8300 O.2    39  ASP39      -0.2718
      5  CB       -19.2940   24.6270    7.0570 C.3    39  ASP39       0.1424
      6  CG       -19.2180   23.3560    7.8710 C.2    39  ASP39       0.3668
      7  OD1      -18.8590   23.5770    9.1080 O.co2  39  ASP39      -0.2456
      8  OD2      -19.2930   22.2190    7.3970 O.co2  39  ASP39      -0.2456
      9  N        -18.3140   26.4190    8.7030 N.am   40  THR40      -0.1953
     10  CA       -17.4310   27.2540    9.5210 C.3    40  THR40       0.1897
     11  C        -16.5990   28.2660    8.7280 C.2    40  THR40       0.2313
     12  O        -15.8010   29.0140    9.3020 O.2    40  THR40      -0.2863
     13  CB       -16.4830   26.3870   10.3770 C.3    40  THR40       0.1794
     14  OG1      -15.7090   25.4860    9.5720 O.3    40  THR40      -0.2208
     15  CG2      -17.3120   25.6610   11.4220 C.3    40  THR40       0.0378
     16  N        -11.9350   26.8350   12.5400 N.3    67  ASN67      -0.1240
     17  CA       -12.3880   25.5300   12.9890 C.3    67  ASN67       0.1653
     18  C        -11.7710   24.4030   12.1790 C.2    67  ASN67       0.2266
     19  O        -11.1810   23.4740   12.7150 O.2    67  ASN67      -0.2867
     20  CB       -13.9270   25.4360   12.9200 C.3    67  ASN67       0.1155
     21  CG       -14.4610   24.0590   13.2610 C.2    67  ASN67       0.2627
     22  OD1      -14.5030   23.1580   12.4060 O.2    67  ASN67      -0.2716
     23  ND2      -14.9540   23.9350   14.4930 N.am   67  ASN67      -0.0877
     24  N        -13.7450   22.5080    9.9270 N.3    69  HIS69      -0.1241
     25  CA       -14.8660   21.7590    9.3690 C.3    69  HIS69       0.1621
     26  C        -15.2100   22.2050    7.9480 C.2    69  HIS69       0.2264
     27  O        -15.2250   21.4010    7.0210 O.2    69  HIS69      -0.2867
     28  CB       -16.0940   21.7210   10.3170 C.3    69  HIS69       0.0745
     29  CG       -17.0730   20.5850   10.0820 C.ar   69  HIS69       0.0817
     30  ND1      -18.2040   20.7430    9.2860 N.ar   69  HIS69      -0.2268
     31  CD2      -17.1550   19.3360   10.6370 C.ar   69  HIS69       0.1154
     32  CE1      -18.8680   19.5960    9.2810 C.ar   69  HIS69       0.1986
     33  NE2      -18.3000   18.7350   10.1260 N.ar   69  HIS69      -0.2212
     34  N        -21.4970   28.8740   11.1630 N.3    96  LEU96      -0.1245
     35  CA       -21.0530   28.2890   12.3930 C.3    96  LEU96       0.1561
     36  C        -19.8030   29.0110   12.8690 C.2    96  LEU96       0.2260
     37  O        -18.9810   29.4290   12.0560 O.2    96  LEU96      -0.2867
     38  CB       -20.8020   26.7710   12.2970 C.3    96  LEU96       0.0270
     39  CG       -22.0430   25.8710   12.1010 C.3    96  LEU96       0.0019
     40  CD1      -21.6360   24.4090   11.9430 C.3    96  LEU96       0.0001
     41  CD2      -23.0010   25.9590   13.2800 C.3    96  LEU96       0.0001
     42  N        -17.7650   25.8520   16.3010 N.3   100  GLY100     -0.1210
     43  CA       -18.6780   24.9840   15.5950 C.3   100  GLY100      0.1956
     44  C        -20.1000   25.1170   16.1020 C.2   100  GLY100      0.2613
     45  O        -20.9560   24.2850   15.8250 O.2   100  GLY100     -0.2717
     46  N        -20.3650   26.1560   16.8690 N.am  101  SER101     -0.1938
     47  CA       -21.7320   26.3410   17.2810 C.3   101  SER101      0.2055
     48  C        -22.4050   27.3620   16.3960 C.2   101  SER101      0.2644
     49  O        -21.7420   28.1270   15.7070 O.2   101  SER101     -0.2714
     50  CB       -21.9240   26.6500   18.7600 C.3   101  SER101      0.2130
     51  OG       -20.9480   25.9560   19.5160 O.3   101  SER101     -0.2179
     52  N        -23.7260   27.3270   16.4170 N.am  102  GLY102     -0.1939
     53  CA       -24.5470   28.2040   15.6200 C.3   102  GLY102      0.2014
     54  C        -26.0100   28.0510   15.9930 C.2   102  GLY102      0.2639
     55  O        -26.5070   26.9300   16.1150 O.2   102  GLY102     -0.2714
     56  N        -26.6630   29.1880   16.2450 N.am  103  GLN103     -0.1963
     57  CA       -28.0960   29.2590   16.5520 C.3   103  GLN103      0.1733
     58  C        -28.9320   29.0980   15.2860 C.2   103  GLN103      0.2616
     59  O        -28.4750   29.3890   14.1830 O.2   103  GLN103     -0.2715
     60  CB       -28.4600   30.5530   17.2980 C.3   103  GLN103      0.0408
     61  CG       -27.7610   30.6990   18.6490 C.3   103  GLN103      0.0908
     62  CD       -27.9920   29.5250   19.5800 C.2   103  GLN103      0.2608
     63  OE1      -29.1180   29.0110   19.6900 O.2   103  GLN103     -0.2717
     64  NE2      -26.9580   29.1310   20.2850 N.am  103  GLN103     -0.0878
     65  N        -30.1220   28.5480   15.4290 N.am  104  TYR104     -0.1974
     66  CA       -30.9280   28.1880   14.2720 C.3   104  TYR104      0.1639
     67  C        -31.2570   29.3690   13.3730 C.2   104  TYR104      0.2290
     68  O        -31.3040   29.2260   12.1370 O.2   104  TYR104     -0.2864
     69  CB       -32.1930   27.3920   14.6460 C.3   104  TYR104      0.0560
     70  CG       -31.9590   25.9130   14.6830 C.ar  104  TYR104     -0.0198
     71  CD1      -30.7130   25.3780   14.3440 C.ar  104  TYR104     -0.0009
     72  CD2      -32.9470   25.0550   15.1620 C.ar  104  TYR104     -0.0009
     73  CE1      -30.4540   24.0070   14.4050 C.ar  104  TYR104      0.0417
     74  CE2      -32.7110   23.6810   15.2280 C.ar  104  TYR104      0.0417
     75  CZ       -31.4690   23.1600   14.8540 C.ar  104  TYR104      0.1957
     76  OH       -31.2500   21.8100   14.9140 O.3   104  TYR104     -0.2866
     77  N        -28.5560   29.8770   10.9970 N.3   107  ILE107     -0.1245
     78  CA       -28.5040   28.9640    9.8840 C.3   107  ILE107      0.1561
     79  C        -29.6330   29.1950    8.8920 C.2   107  ILE107      0.2260
     80  O        -29.4550   29.1260    7.6760 O.2   107  ILE107     -0.2867
     81  CB       -28.1080   27.5110   10.1650 C.3   107  ILE107      0.0252
     82  CG1      -29.3120   26.6000   10.2310 C.3   107  ILE107      0.0019
     83  CG2      -27.2330   27.3500   11.4150 C.3   107  ILE107      0.0019
     84  CD1      -29.4200   25.6600    9.0390 C.3   107  ILE107      0.0001
     85  N        -23.1450   20.4920    5.8380 N.3   132  SER132     -0.1202
     86  CA       -22.6960   19.4450    6.7660 C.3   132  SER132      0.2020
     87  C        -22.8250   19.8600    8.2080 C.2   132  SER132      0.2619
     88  O        -21.8250   20.0580    8.8800 O.2   132  SER132     -0.2717
     89  CB       -21.2560   19.0360    6.5510 C.3   132  SER132      0.2103
     90  OG       -21.0970   18.6270    5.2200 O.3   132  SER132     -0.2182
     91  N        -24.0600   20.0580    8.6330 N.am  133  LEU133     -0.1965
     92  CA       -24.3440   20.4420    9.9790 C.3   133  LEU133      0.1728
     93  C        -25.7410   19.9750   10.2780 C.2   133  LEU133      0.2617
     94  O        -26.4130   19.5630    9.3460 O.2   133  LEU133     -0.2715
     95  CB       -24.1470   21.9520   10.2180 C.3   133  LEU133      0.0311
     96  CG       -24.9530   22.9160    9.3560 C.3   133  LEU133      0.0022
     97  CD1      -24.1350   23.3770    8.1730 C.3   133  LEU133      0.0001
     98  CD2      -26.3110   22.3810    8.9140 C.3   133  LEU133      0.0001
     99  N        -26.1720   20.1000   11.5290 N.am  134  GLY134     -0.1940
    100  CA       -27.5020   19.6860   11.8980 C.3   134  GLY134      0.2014
    101  C        -27.7220   19.8340   13.3870 C.2   134  GLY134      0.2639
    102  O        -26.8250   20.2000   14.1480 O.2   134  GLY134     -0.2714
    103  N        -28.9490   19.5540   13.7970 N.am  135  GLY135     -0.1939
    104  CA       -29.2940   19.5850   15.2040 C.3   135  GLY135      0.2014
    105  C        -30.5860   18.8220   15.3790 C.2   135  GLY135      0.2639
    106  O        -31.0460   18.1500   14.4480 O.2   135  GLY135     -0.2714
    107  N        -31.1840   18.9910   16.5480 N.am  136  GLY136     -0.1954
    108  CA       -32.4850   18.4210   16.8260 C.3   136  GLY136      0.1869
    109  C        -33.5650   18.9790   15.8860 C.2   136  GLY136      0.2309
    110  O        -33.4010   20.0650   15.2790 O.2   136  GLY136     -0.2863
    111  N        -26.2680   16.6860    5.4720 N.3   158  ALA158     -0.1245
    112  CA       -25.7620   15.6060    6.2440 C.3   158  ALA158      0.1562
    113  C        -26.9010   14.9910    7.0180 C.2   158  ALA158      0.2260
    114  O        -27.6970   15.7110    7.5990 O.2   158  ALA158     -0.2867
    115  CB       -24.6920   16.1550    7.1640 C.3   158  ALA158      0.0290
    116  N        -26.4760   13.2130    9.7740 N.3   160  GLY160     -0.1210
    117  CA       -26.0800   13.2720   11.1860 C.3   160  GLY160      0.1956
    118  C        -25.2970   12.0430   11.6760 C.2   160  GLY160      0.2611
    119  O        -25.4190   10.9300   11.1740 O.2   160  GLY160     -0.2717
    120  N        -24.5470   12.2080   12.7550 N.am  161  ASN161     -0.1974
    121  CA       -23.7450   11.1300   13.2860 C.3   161  ASN161      0.1688
    122  C        -24.2220   10.6150   14.6370 C.2   161  ASN161      0.2292
    123  O        -23.4340   10.4770   15.5830 O.2   161  ASN161     -0.2864
    124  CB       -22.3100   11.6620   13.4150 C.3   161  ASN161      0.1181
    125  CG       -21.8830   12.4440   12.1850 C.2   161  ASN161      0.2629
    126  OD1      -22.0320   11.9980   11.0450 O.2   161  ASN161     -0.2716
    127  ND2      -21.3290   13.6190   12.4000 N.am  161  ASN161     -0.0877
    128  N        -10.6620   12.9340    8.5010 N.3   220  ILE220     -0.1231
    129  CA       -11.6760   12.8840    9.5090 C.3   220  ILE220      0.1692
    130  C        -12.8870   12.1080    9.0200 C.2   220  ILE220      0.2593
    131  O        -13.0190   11.8070    7.8230 O.2   220  ILE220     -0.2718
    132  CB       -11.9870   14.2480   10.0850 C.3   220  ILE220      0.0266
    133  CG1      -12.5340   15.1460    9.0050 C.3   220  ILE220      0.0019
    134  CG2      -10.7000   14.8560   10.6620 C.3   220  ILE220      0.0020
    135  CD1      -13.5580   16.1380    9.5430 C.3   220  ILE220      0.0001
    136  N        -13.7770   11.7750    9.9520 N.am  221  SER221     -0.1938
    137  CA       -14.9140   10.9580    9.6560 C.3   221  SER221      0.2055
    138  C        -16.2350   11.6390    9.9650 C.2   221  SER221      0.2644
    139  O        -16.3520   12.3020   11.0010 O.2   221  SER221     -0.2714
    140  CB       -14.7890    9.6850   10.4760 C.3   221  SER221      0.2130
    141  OG       -13.7100    8.9540    9.9600 O.3   221  SER221     -0.2179
    142  N        -17.2750   11.3550    9.1490 N.am  222  GLY222     -0.1939
    143  CA       -18.6110   11.8910    9.4180 C.3   222  GLY222      0.2014
    144  C        -19.5420   11.9690    8.1980 C.2   222  GLY222      0.2640
    145  O        -19.1290   11.8510    7.0400 O.2   222  GLY222     -0.2714
    146  N        -20.8390   12.1860    8.4690 N.am  223  THR223     -0.1936
    147  CA       -21.7900   12.4360    7.3980 C.3   223  THR223      0.2028
    148  C        -21.4800   13.8040    6.7840 C.2   223  THR223      0.2643
    149  O        -21.8040   14.0890    5.6230 O.2   223  THR223     -0.2714
    150  CB       -23.2720   12.3420    7.8330 C.3   223  THR223      0.1808
    151  OG1      -23.4660   13.1960    8.9390 O.3   223  THR223     -0.2208
    152  CG2      -23.6760   10.9030    8.1640 C.3   223  THR223      0.0379
    153  N        -20.6970   14.5980    7.5130 N.am  224  SER224     -0.1935
    154  CA       -20.2360   15.8290    6.9160 C.3   224  SER224      0.2055
    155  C        -19.3330   15.5640    5.7430 C.2   224  SER224      0.2642
    156  O        -19.2410   16.4170    4.8640 O.2   224  SER224     -0.2714
    157  CB       -19.4400   16.6860    7.8490 C.3   224  SER224      0.2130
    158  OG       -20.2850   17.2240    8.8200 O.3   224  SER224     -0.2179
    159  N        -18.5310   14.4900    5.8330 N.am  225  MET225     -0.1976
    160  CA       -17.6070   14.1380    4.7740 C.3   225  MET225      0.1605
    161  C        -18.3370   13.5460    3.5720 C.2   225  MET225      0.2287
    162  O        -17.8990   13.6550    2.4100 O.2   225  MET225     -0.2864
    163  CB       -16.4980   13.1960    5.2540 C.3   225  MET225      0.0413
    164  CG       -15.4280   13.8530    6.1010 C.3   225  MET225      0.0598
    165  SD       -16.0720   14.5510    7.6430 S.3   225  MET225     -0.1393
    166  CE       -16.0650   16.3150    7.2260 C.3   225  MET225      0.0692
@<TRIPOS>BOND
     1   162   161    2
     2   161   160    1
     3   160   163    1
     4   160   159    1
     5   156   155    2
     6    90    89    1
     7   163   164    1
     8   111   112    1
     9   149   148    2
    10   155   159   am
    11   155   154    1
    12    85    86    1
    13   164   165    1
    14   112   113    1
    15   112   115    1
    16     1     2    1
    17    89    86    1
    18    86    87    1
    19   148   147    1
    20   148   153   am
    21   154   153    1
    22   154   157    1
    23   113   114    2
    24    27    26    2
    25   145   144    2
    26     5     2    1
    27     5     6    1
    28   166   165    1
    29     8     6   ar
    30   147   150    1
    31   147   146    1
    32     2     3    1
    33    80    79    2
    34   131   130    2
    35   150   152    1
    36   150   151    1
    37   157   158    1
    38     6     7   ar
    39    26    25    1
    40    97    96    1
    41   144   146   am
    42   144   143    1
    43    87    91   am
    44    87    88    2
    45     3     9   am
    46     3     4    2
    47   128   129    1
    48    91    92    1
    49     9    10    1
    50    11    12    2
    51    11    10    1
    52    79    78    1
    53    98    96    1
    54   133   135    1
    55   133   132    1
    56   130   129    1
    57   130   136   am
    58    84    82    1
    59   142   143    1
    60   142   138   am
    61    32    30   ar
    62    32    33   ar
    63    30    29   ar
    64    94    93    2
    65    96    95    1
    66    25    24    1
    67    25    28    1
    68   129   132    1
    69    10    13    1
    70    14    13    1
    71   137   136    1
    72   137   138    1
    73   137   140    1
    74   116   117    1
    75    78    81    1
    76    78    77    1
    77   141   140    1
    78   138   139    2
    79    92    95    1
    80    92    93    1
    81    29    28    1
    82    29    31   ar
    83   132   134    1
    84    33    31   ar
    85    81    82    1
    86    81    83    1
    87    93    99   am
    88    13    15    1
    89   126   125    2
    90    34    35    1
    91   119   118    2
    92   117   118    1
    93    99   100    1
    94   118   120   am
    95   100   101    1
    96    40    39    1
    97    37    36    2
    98    39    38    1
    99    39    41    1
   100    68    67    2
   101    18    19    2
   102    18    17    1
   103   125   127   am
   104   125   124    1
   105    38    35    1
   106    35    36    1
   107    22    21    2
   108    16    17    1
   109   120   121    1
   110    20    17    1
   111    20    21    1
   112    21    23   am
   113   121   124    1
   114   121   122    1
   115    67    66    1
   116   101   103   am
   117   101   102    2
   118   103   104    1
   119    59    58    2
   120    66    69    1
   121    66    65    1
   122    71    73   ar
   123    71    70   ar
   124    73    75   ar
   125   106   105    2
   126   122   123    2
   127    69    70    1
   128    70    72   ar
   129    75    76    1
   130    75    74   ar
   131    72    74   ar
   132   104   105    1
   133   110   109    2
   134    58    65   am
   135    58    57    1
   136   105   107   am
   137    43    44    1
   138    43    42    1
   139    53    54    1
   140    53    52    1
   141    49    48    2
   142    45    44    2
   143   109   108    1
   144    54    55    2
   145    54    56   am
   146    44    46   am
   147    56    57    1
   148    48    52   am
   149    48    47    1
   150   107   108    1
   151    57    60    1
   152    46    47    1
   153    47    50    1
   154    60    61    1
   155    61    62    1
   156    50    51    1
   157    62    63    2
   158    62    64   am
