@<TRIPOS>MOLECULE
tmp/3przA00.pdb
 163 152 0 0 0
SMALL
GASTEIGER

@<TRIPOS>ATOM
      1  N         47.6530   17.8990   40.6750 N.3   563  MET563     -0.1245
      2  CA        47.4530   18.8260   39.5680 C.3   563  MET563      0.1570
      3  C         46.4600   19.9170   39.9550 C.2   563  MET563      0.2261
      4  O         45.7440   19.7840   40.9550 O.2   563  MET563     -0.2867
      5  CB        46.9540   18.0930   38.3250 C.3   563  MET563      0.0387
      6  CG        47.6920   16.8300   38.0230 C.3   563  MET563      0.0595
      7  SD        47.1480   16.1800   36.4440 S.3   563  MET563     -0.1393
      8  CE        47.3610   14.6130   36.7480 C.3   563  MET563      0.0692
      9  N         49.0900   12.8980   39.5660 N.3   571  TRP571     -0.1241
     10  CA        49.9070   12.6630   38.3840 C.3   571  TRP571      0.1605
     11  C         50.9930   11.7430   38.8750 C.2   571  TRP571      0.2264
     12  O         51.8820   12.1820   39.6020 O.2   571  TRP571     -0.2867
     13  CB        50.4740   13.9940   37.8310 C.3   571  TRP571      0.0550
     14  CG        51.5200   13.8640   36.7540 C.ar  571  TRP571      0.0003
     15  CD1       52.7960   13.4210   36.9190 C.ar  571  TRP571      0.0946
     16  CD2       51.4190   14.2860   35.3790 C.ar  571  TRP571      0.0152
     17  NE1       53.4730   13.4670   35.7250 N.ar  571  TRP571     -0.2442
     18  CE2       52.6560   13.9970   34.7640 C.ar  571  TRP571      0.0810
     19  CE3       50.3870   14.8290   34.5890 C.ar  571  TRP571      0.0012
     20  CZ2       52.8980   14.2480   33.4080 C.ar  571  TRP571      0.0191
     21  CZ3       50.6340   15.0820   33.2470 C.ar  571  TRP571      0.0001
     22  CH2       51.8800   14.8090   32.6750 C.ar  571  TRP571      0.0015
     23  N         47.2190    9.0320   35.4640 N.3   590  ILE590     -0.1245
     24  CA        46.4750   10.0390   36.2090 C.3   590  ILE590      0.1561
     25  C         45.4360    9.2800   37.0170 C.2   590  ILE590      0.2260
     26  O         44.7890    8.3760   36.4930 O.2   590  ILE590     -0.2867
     27  CB        45.8170   11.1420   35.3330 C.3   590  ILE590      0.0252
     28  CG1       46.8760   11.9720   34.5690 C.3   590  ILE590      0.0019
     29  CG2       44.8790   12.0460   36.1710 C.3   590  ILE590      0.0019
     30  CD1       46.3430   12.9680   33.5750 C.3   590  ILE590      0.0001
     31  N         42.1320   10.0260   39.4160 N.3   592  LYS592     -0.1245
     32  CA        41.1910   11.1110   39.6030 C.3   592  LYS592      0.1561
     33  C         39.8370   10.7090   40.1680 C.2   592  LYS592      0.2260
     34  O         39.3850    9.5830   39.9680 O.2   592  LYS592     -0.2867
     35  CB        41.0420   11.7990   38.2170 C.3   592  LYS592      0.0271
     36  CG        39.8370   12.7030   38.0110 C.3   592  LYS592      0.0035
     37  CD        40.2990   14.0550   37.5630 C.3   592  LYS592      0.0206
     38  CE        40.5270   14.0820   36.0700 C.3   592  LYS592      0.1093
     39  NZ        41.0390   15.3860   35.5860 N.3   592  LYS592     -0.1314
     40  N         35.3600   12.7260   37.5490 N.3   595  ASP595     -0.1239
     41  CA        35.0390   12.5780   36.1410 C.3   595  ASP595      0.1674
     42  C         34.3540   11.2610   35.9900 C.2   595  ASP595      0.2266
     43  O         34.8160   10.2730   36.5660 O.2   595  ASP595     -0.2867
     44  CB        36.3060   12.5890   35.2800 C.3   595  ASP595      0.1410
     45  CG        36.9620   13.9340   35.0030 C.2   595  ASP595      0.3668
     46  OD1       36.3630   14.9860   35.3610 O.co2 595  ASP595     -0.2456
     47  OD2       38.0520   13.9440   34.3820 O.co2 595  ASP595     -0.2456
     48  N         34.4400    8.6750   34.2860 N.3   597  LEU597     -0.1245
     49  CA        35.3650    7.9980   33.3790 C.3   597  LEU597      0.1561
     50  C         34.7040    6.8820   32.5850 C.2   597  LEU597      0.2260
     51  O         35.3130    6.3820   31.6460 O.2   597  LEU597     -0.2867
     52  CB        36.5830    7.4620   34.1480 C.3   597  LEU597      0.0270
     53  CG        37.9030    8.2680   34.1570 C.3   597  LEU597      0.0019
     54  CD1       37.7150    9.7340   33.8150 C.3   597  LEU597      0.0001
     55  CD2       38.5700    8.1730   35.4940 C.3   597  LEU597      0.0001
     56  N         34.1290    8.4300   29.1690 N.3   600  ASP600     -0.1239
     57  CA        35.3520    8.4410   28.3590 C.3   600  ASP600      0.1674
     58  C         35.5650    7.0720   27.7450 C.2   600  ASP600      0.2266
     59  O         35.8740    7.0120   26.5570 O.2   600  ASP600     -0.2867
     60  CB        36.5850    8.8370   29.1940 C.3   600  ASP600      0.1410
     61  CG        36.5830   10.2700   29.6720 C.2   600  ASP600      0.3668
     62  OD1       35.7960   10.5850   30.5880 O.co2 600  ASP600     -0.2456
     63  OD2       37.4240   11.0600   29.1850 O.co2 600  ASP600     -0.2456
     64  N         43.6210    7.4660   24.1750 N.3   626  TYR626     -0.1241
     65  CA        44.3490    7.0730   25.3880 C.3   626  TYR626      0.1605
     66  C         43.6610    5.9820   26.2020 C.2   626  TYR626      0.2264
     67  O         42.4270    5.9220   26.2510 O.2   626  TYR626     -0.2867
     68  CB        44.6030    8.2990   26.2930 C.3   626  TYR626      0.0534
     69  CG        43.3460    9.0810   26.6550 C.ar  626  TYR626     -0.0201
     70  CD1       42.6240    8.7930   27.8160 C.ar  626  TYR626     -0.0009
     71  CD2       42.9210   10.1520   25.8760 C.ar  626  TYR626     -0.0009
     72  CE1       41.4730    9.5160   28.1540 C.ar  626  TYR626      0.0417
     73  CE2       41.7970   10.8980   26.2180 C.ar  626  TYR626      0.0417
     74  CZ        41.0670   10.5710   27.3520 C.ar  626  TYR626      0.1957
     75  OH        39.9420   11.2880   27.6840 O.3   626  TYR626     -0.2866
     76  N         43.7230    7.2760   34.0720 N.3   638  ILE638     -0.1231
     77  CA        43.9080    7.8420   32.7450 C.3   638  ILE638      0.1692
     78  C         45.3690    7.6790   32.3680 C.2   638  ILE638      0.2592
     79  O         46.2470    8.1300   33.1100 O.2   638  ILE638     -0.2718
     80  CB        43.4850    9.3490   32.7020 C.3   638  ILE638      0.0266
     81  CG1       42.0510    9.5730   33.2300 C.3   638  ILE638      0.0019
     82  CG2       43.6860    9.9580   31.2930 C.3   638  ILE638      0.0020
     83  CD1       41.7460   10.9370   33.6210 C.3   638  ILE638      0.0001
     84  N         45.6290    7.0630   31.2050 N.am  639  GLU639     -0.1966
     85  CA        46.9850    6.9470   30.6740 C.3   639  GLU639      0.1733
     86  C         47.4550    8.3540   30.3290 C.2   639  GLU639      0.2616
     87  O         46.6760    9.1210   29.7520 O.2   639  GLU639     -0.2715
     88  CB        46.9700    6.1260   29.3790 C.3   639  GLU639      0.0429
     89  CG        48.3070    6.0790   28.6550 C.3   639  GLU639      0.1163
     90  CD        48.2430    5.5350   27.2460 C.2   639  GLU639      0.3649
     91  OE1       49.3200    5.2650   26.6670 O.co2 639  GLU639     -0.2457
     92  OE2       47.1210    5.3920   26.7100 O.co2 639  GLU639     -0.2457
     93  N         48.6970    8.7050   30.6990 N.am  640  ILE640     -0.1963
     94  CA        49.2340   10.0110   30.3340 C.3   640  ILE640      0.1727
     95  C         49.8480    9.8730   28.9600 C.2   640  ILE640      0.2616
     96  O         50.7420    9.0490   28.7640 O.2   640  ILE640     -0.2715
     97  CB        50.2570   10.6220   31.3380 C.3   640  ILE640      0.0290
     98  CG1       49.6380   10.8990   32.7200 C.3   640  ILE640      0.0022
     99  CG2       50.9350   11.8740   30.7530 C.3   640  ILE640      0.0023
    100  CD1       50.6550   11.1980   33.8440 C.3   640  ILE640      0.0001
    101  N         49.3610   10.6810   28.0130 N.am  641  VAL641     -0.1977
    102  CA        49.9290   10.7550   26.6780 C.3   641  VAL641      0.1596
    103  C         51.1590   11.6260   26.8890 C.2   641  VAL641      0.2287
    104  O         51.0400   12.7670   27.3520 O.2   641  VAL641     -0.2864
    105  CB        48.9710   11.3380   25.6090 C.3   641  VAL641      0.0276
    106  CG1       49.7140   11.6370   24.3110 C.3   641  VAL641      0.0022
    107  CG2       47.7900   10.4080   25.3580 C.3   641  VAL641      0.0022
    108  N         52.9440   15.9490   25.8330 N.3   644  ALA644     -0.1245
    109  CA        51.7450   16.6930   25.4310 C.3   644  ALA644      0.1562
    110  C         51.3760   17.8850   26.2950 C.2   644  ALA644      0.2260
    111  O         51.5080   17.8310   27.5150 O.2   644  ALA644     -0.2867
    112  CB        50.5510   15.7440   25.3360 C.3   644  ALA644      0.0290
    113  N         48.1700   21.1730   26.6460 N.3   646  THR646     -0.1218
    114  CA        46.8130   21.6320   26.4030 C.3   646  THR646      0.1862
    115  C         46.9530   22.8010   25.4300 C.2   646  THR646      0.2287
    116  O         47.9020   23.5810   25.5500 O.2   646  THR646     -0.2866
    117  CB        46.1940   22.0040   27.7630 C.3   646  THR646      0.1770
    118  OG1       45.5370   20.8710   28.3170 O.3   646  THR646     -0.2211
    119  CG2       45.2480   23.1660   27.7090 C.3   646  THR646      0.0375
    120  N         46.9610   26.0750   27.3130 N.3   649  LYS649     -0.1245
    121  CA        48.2520   26.3230   27.9630 C.3   649  LYS649      0.1561
    122  C         49.2710   26.9300   26.9950 C.2   649  LYS649      0.2260
    123  O         49.9820   27.8560   27.3830 O.2   649  LYS649     -0.2867
    124  CB        48.7870   25.0730   28.6740 C.3   649  LYS649      0.0271
    125  CG        48.0280   24.7700   29.9570 C.3   649  LYS649      0.0035
    126  CD        48.1790   23.3250   30.3780 C.3   649  LYS649      0.0206
    127  CE        47.2000   22.9370   31.4550 C.3   649  LYS649      0.1093
    128  NZ        47.6910   23.3430   32.7980 N.3   649  LYS649     -0.1314
    129  N         44.3190   18.6150   23.4630 N.3   712  MET712     -0.1245
    130  CA        45.7580   18.5390   23.6410 C.3   712  MET712      0.1570
    131  C         46.4850   18.3120   22.3240 C.2   712  MET712      0.2261
    132  O         45.8500   18.0030   21.3190 O.2   712  MET712     -0.2867
    133  CB        46.1120   17.4370   24.6480 C.3   712  MET712      0.0387
    134  CG        45.3480   17.5220   25.9490 C.3   712  MET712      0.0595
    135  SD        46.1270   16.5680   27.2670 S.3   712  MET712     -0.1393
    136  CE        47.5080   17.6060   27.6460 C.3   712  MET712      0.0692
    137  N         44.5930   15.7830   19.9860 N.3   720  PHE720     -0.1241
    138  CA        43.6280   14.8290   20.5330 C.3   720  PHE720      0.1605
    139  C         42.7520   15.4460   21.6140 C.2   720  PHE720      0.2264
    140  O         43.2130   16.3040   22.3660 O.2   720  PHE720     -0.2867
    141  CB        44.3310   13.5580   21.0640 C.3   720  PHE720      0.0534
    142  CG        45.2680   13.7650   22.2280 C.ar  720  PHE720     -0.0203
    143  CD1       44.8220   13.6130   23.5360 C.ar  720  PHE720     -0.0042
    144  CD2       46.6010   14.0980   22.0200 C.ar  720  PHE720     -0.0042
    145  CE1       45.6840   13.8130   24.6130 C.ar  720  PHE720     -0.0003
    146  CE2       47.4650   14.2920   23.1000 C.ar  720  PHE720     -0.0003
    147  CZ        47.0020   14.1400   24.3890 C.ar  720  PHE720     -0.0000
    148  N         40.1270   15.1370   25.0820 N.3   722  ILE722     -0.1231
    149  CA        40.1750   14.5150   26.4120 C.3   722  ILE722      0.1692
    150  C         38.8480   14.7740   27.1300 C.2   722  ILE722      0.2592
    151  O         37.9240   15.3140   26.5290 O.2   722  ILE722     -0.2718
    152  CB        41.3970   15.0200   27.2660 C.3   722  ILE722      0.0266
    153  CG1       41.3890   16.5540   27.4350 C.3   722  ILE722      0.0019
    154  CG2       42.7410   14.4780   26.7560 C.3   722  ILE722      0.0020
    155  CD1       42.2530   17.1290   28.5440 C.3   722  ILE722      0.0001
    156  N         38.7700   14.3770   28.4150 N.am  723  ASP723     -0.1974
    157  CA        37.6790   14.5910   29.3690 C.3   723  ASP723      0.1709
    158  C         36.2940   14.4890   28.7350 C.2   723  ASP723      0.2293
    159  O         35.5740   15.4850   28.6540 O.2   723  ASP723     -0.2864
    160  CB        37.8980   15.9660   30.0390 C.3   723  ASP723      0.1436
    161  CG        37.6350   16.0140   31.5230 C.2   723  ASP723      0.3671
    162  OD1       36.6430   15.4020   31.9670 O.co2 723  ASP723     -0.2456
    163  OD2       38.3870   16.7070   32.2280 O.co2 723  ASP723     -0.2456
@<TRIPOS>BOND
     1   137   138    1
     2   138   141    1
     3   138   139    1
     4   141   142    1
     5   132   131    2
     6   139   140    2
     7   144   142   ar
     8   144   146   ar
     9   142   143   ar
    10   131   130    1
    11   146   147   ar
    12   129   130    1
    13   143   145   ar
    14   130   133    1
    15    64    65    1
    16   106   105    1
    17   147   145   ar
    18   133   134    1
    19   148   149    1
    20   112   109    1
    21   107   105    1
    22    65    66    1
    23    65    68    1
    24   115   116    2
    25   115   114    1
    26   109   108    1
    27   109   110    1
    28   105   102    1
    29    71    73   ar
    30    71    69   ar
    31   134   135    1
    32    66    67    2
    33    73    74   ar
    34    68    69    1
    35   110   111    2
    36   114   113    1
    37   114   117    1
    38   149   150    1
    39   149   152    1
    40   151   150    2
    41    59    58    2
    42    69    70   ar
    43    91    90   ar
    44   102   103    1
    45   102   101    1
    46    92    90   ar
    47   154   152    1
    48   103   104    2
    49   122   123    2
    50   122   121    1
    51   150   156   am
    52    90    89    1
    53   152   153    1
    54   135   136    1
    55   120   121    1
    56    74    75    1
    57    74    72   ar
    58   153   155    1
    59   119   117    1
    60    58    57    1
    61   117   118    1
    62    70    72   ar
    63   121   124    1
    64   101    95   am
    65    57    56    1
    66    57    60    1
    67   156   157    1
    68   159   158    2
    69    89    88    1
    70   124   125    1
    71   158   157    1
    72    96    95    2
    73    95    94    1
    74    63    61   ar
    75    60    61    1
    76   157   160    1
    77    88    85    1
    78    61    62   ar
    79    87    86    2
    80   125   126    1
    81   160   161    1
    82    86    85    1
    83    86    93   am
    84    94    93    1
    85    94    97    1
    86   126   127    1
    87    85    84    1
    88    99    97    1
    89    84    78   am
    90    82    80    1
    91    97    98    1
    92   127   128    1
    93   161   162   ar
    94   161   163   ar
    95    51    50    2
    96    78    77    1
    97    78    79    2
    98    50    49    1
    99    22    21   ar
   100    22    20   ar
   101    80    77    1
   102    80    81    1
   103    98   100    1
   104    77    76    1
   105    81    83    1
   106    21    19   ar
   107    49    52    1
   108    49    48    1
   109    20    18   ar
   110    30    28    1
   111    54    53    1
   112    52    53    1
   113    53    55    1
   114    47    45   ar
   115    28    27    1
   116    19    16   ar
   117    18    16   ar
   118    18    17   ar
   119    45    44    1
   120    45    46   ar
   121    44    41    1
   122    27    29    1
   123    27    24    1
   124    16    14   ar
   125    23    24    1
   126    39    38    1
   127    17    15   ar
   128    42    41    1
   129    42    43    2
   130    38    37    1
   131    41    40    1
   132    24    25    1
   133     7     8    1
   134     7     6    1
   135    26    25    2
   136    14    15   ar
   137    14    13    1
   138    37    36    1
   139    13    10    1
   140    36    35    1
   141     6     5    1
   142    35    32    1
   143     5     2    1
   144    10    11    1
   145    10     9    1
   146    11    12    2
   147    31    32    1
   148     2     3    1
   149     2     1    1
   150    32    33    1
   151     3     4    2
   152    34    33    2
