@<TRIPOS>MOLECULE
tmp/3ps6A00.pdb
 158 147 0 0 0
SMALL
GASTEIGER

@<TRIPOS>ATOM
      1  N         47.3770   17.8020   40.6210 N.3   560  MET560     -0.1245
      2  CA        47.0960   18.7180   39.5250 C.3   560  MET560      0.1570
      3  C         46.1690   19.8470   39.9540 C.2   560  MET560      0.2261
      4  O         45.2770   19.6410   40.7800 O.2   560  MET560     -0.2867
      5  CB        46.5670   17.9670   38.3030 C.3   560  MET560      0.0387
      6  CG        47.6690   17.3010   37.5190 C.3   560  MET560      0.0595
      7  SD        47.0670   16.2070   36.2200 S.3   560  MET560     -0.1393
      8  CE        47.1300   14.7180   37.0530 C.3   560  MET560      0.0692
      9  N         49.1650   12.8480   39.6860 N.3   568  TRP568     -0.1241
     10  CA        49.9260   12.6840   38.4590 C.3   568  TRP568      0.1605
     11  C         51.0240   11.7040   38.8490 C.2   568  TRP568      0.2264
     12  O         52.0840   12.1080   39.3170 O.2   568  TRP568     -0.2867
     13  CB        50.4800   14.0310   37.9480 C.3   568  TRP568      0.0550
     14  CG        51.4580   13.9100   36.8150 C.ar  568  TRP568      0.0003
     15  CD1       52.7450   13.4640   36.8920 C.ar  568  TRP568      0.0946
     16  CD2       51.2570   14.3200   35.4600 C.ar  568  TRP568      0.0152
     17  NE1       53.3360   13.5060   35.6570 N.ar  568  TRP568     -0.2442
     18  CE2       52.4530   14.0440   34.7580 C.ar  568  TRP568      0.0810
     19  CE3       50.1730   14.8730   34.7540 C.ar  568  TRP568      0.0012
     20  CZ2       52.5990   14.3040   33.3920 C.ar  568  TRP568      0.0191
     21  CZ3       50.3170   15.1290   33.3990 C.ar  568  TRP568      0.0001
     22  CH2       51.5250   14.8650   32.7370 C.ar  568  TRP568      0.0015
     23  N         47.2400    9.0980   35.6050 N.3   587  ILE587     -0.1245
     24  CA        46.4730   10.1120   36.3250 C.3   587  ILE587      0.1561
     25  C         45.4010    9.3540   37.1050 C.2   587  ILE587      0.2260
     26  O         44.6510    8.5880   36.5030 O.2   587  ILE587     -0.2867
     27  CB        45.8140   11.1680   35.3810 C.3   587  ILE587      0.0252
     28  CG1       46.8680   12.0480   34.6830 C.3   587  ILE587      0.0019
     29  CG2       44.7620   12.0190   36.1270 C.3   587  ILE587      0.0019
     30  CD1       46.3540   12.9920   33.6030 C.3   587  ILE587      0.0001
     31  N         41.9930    9.8290   39.2590 N.3   589  LYS589     -0.1245
     32  CA        41.0060   10.8710   39.5230 C.3   589  LYS589      0.1561
     33  C         39.6600   10.4160   40.0350 C.2   589  LYS589      0.2260
     34  O         39.0920    9.4560   39.5220 O.2   589  LYS589     -0.2867
     35  CB        40.8400   11.7830   38.2950 C.3   589  LYS589      0.0271
     36  CG        39.7470   12.8460   38.4370 C.3   589  LYS589      0.0035
     37  CD        40.0170   14.0940   37.6560 C.3   589  LYS589      0.0206
     38  CE        40.1070   13.8400   36.1800 C.3   589  LYS589      0.1093
     39  NZ        40.2970   15.1100   35.4440 N.3   589  LYS589     -0.1314
     40  N         34.8450   12.8070   38.2080 N.3   592  ASP592     -0.1239
     41  CA        34.2820   12.7040   36.8590 C.3   592  ASP592      0.1674
     42  C         33.8810   11.2620   36.5970 C.2   592  ASP592      0.2266
     43  O         34.5790   10.3490   37.0460 O.2   592  ASP592     -0.2867
     44  CB        35.3110   13.1430   35.8030 C.3   592  ASP592      0.1410
     45  CG        35.8250   14.5570   35.9730 C.2   592  ASP592      0.3668
     46  OD1       35.0020   15.4950   35.9540 O.co2 592  ASP592     -0.2456
     47  OD2       37.0520   14.7260   36.0950 O.co2 592  ASP592     -0.2456
     48  N         34.1730    8.3660   34.6450 N.3   594  LEU594     -0.1245
     49  CA        35.1290    7.7960   33.6980 C.3   594  LEU594      0.1561
     50  C         34.5570    6.7280   32.7690 C.2   594  LEU594      0.2260
     51  O         35.1940    6.4050   31.7690 O.2   594  LEU594     -0.2867
     52  CB        36.3460    7.2660   34.4640 C.3   594  LEU594      0.0270
     53  CG        37.5970    8.1530   34.4930 C.3   594  LEU594      0.0019
     54  CD1       37.2830    9.6160   34.7860 C.3   594  LEU594      0.0001
     55  CD2       38.5260    7.6910   35.5310 C.3   594  LEU594      0.0001
     56  N         33.8790    8.3400   29.4250 N.3   597  ASP597     -0.1239
     57  CA        35.1350    8.4980   28.6870 C.3   597  ASP597      0.1674
     58  C         35.5080    7.2090   28.0090 C.2   597  ASP597      0.2266
     59  O         35.8590    7.2510   26.8350 O.2   597  ASP597     -0.2867
     60  CB        36.2780    8.9600   29.5900 C.3   597  ASP597      0.1410
     61  CG        36.1070   10.3810   30.0380 C.2   597  ASP597      0.3668
     62  OD1       35.3680   10.6020   31.0120 O.co2 597  ASP597     -0.2456
     63  OD2       36.6660   11.2790   29.3740 O.co2 597  ASP597     -0.2456
     64  N         43.5460    7.4690   24.1540 N.3   623  TYR623     -0.1241
     65  CA        44.3620    7.1050   25.3120 C.3   623  TYR623      0.1605
     66  C         43.6330    6.1130   26.2200 C.2   623  TYR623      0.2264
     67  O         42.4000    6.0740   26.2360 O.2   623  TYR623     -0.2867
     68  CB        44.7230    8.3710   26.1030 C.3   623  TYR623      0.0534
     69  CG        43.5220    9.2390   26.4190 C.ar  623  TYR623     -0.0201
     70  CD1       42.7780    9.0410   27.5810 C.ar  623  TYR623     -0.0009
     71  CD2       43.1390   10.2730   25.5660 C.ar  623  TYR623     -0.0009
     72  CE1       41.6730    9.8350   27.8760 C.ar  623  TYR623      0.0417
     73  CE2       42.0420   11.0840   25.8590 C.ar  623  TYR623      0.0417
     74  CZ        41.3130   10.8610   27.0160 C.ar  623  TYR623      0.1957
     75  OH        40.2200   11.6390   27.3080 O.3   623  TYR623     -0.2866
     76  N         43.8150    7.1380   34.1090 N.3   635  ILE635     -0.1231
     77  CA        43.9700    7.6710   32.7570 C.3   635  ILE635      0.1693
     78  C         45.4300    7.5700   32.3240 C.2   635  ILE635      0.2595
     79  O         46.3240    7.8930   33.1050 O.2   635  ILE635     -0.2718
     80  CB        43.4310    9.1350   32.6730 C.3   635  ILE635      0.0266
     81  CG1       41.9210    9.1970   32.9950 C.3   635  ILE635      0.0019
     82  CG2       43.6990    9.7690   31.3070 C.3   635  ILE635      0.0020
     83  CD1       41.4590   10.4500   33.4770 C.3   635  ILE635      0.0001
     84  N         45.6590    7.1380   31.0740 N.am  636  GLU636     -0.1920
     85  CA        46.9840    7.0650   30.4710 C.3   636  GLU636      0.1949
     86  C         47.4650    8.4830   30.2090 C.2   636  GLU636      0.2659
     87  O         46.7220    9.2810   29.6220 O.2   636  GLU636     -0.2711
     88  CB        46.9050    6.3060   29.1370 C.2   636  GLU636      0.0111
     89  CG        48.2060    6.2350   28.3530 C.2   636  GLU636      0.0838
     90  CD        48.0960    5.6150   26.9730 C.2   636  GLU636      0.3877
     91  OE1       49.1480    5.4530   26.3150 O.co2 636  GLU636     -0.2406
     92  OE2       46.9640    5.2950   26.5420 O.co2 636  GLU636     -0.2406
     93  N         48.7020    8.8000   30.6230 N.am  637  ILE637     -0.1961
     94  CA        49.2650   10.1130   30.3290 C.3   637  ILE637      0.1727
     95  C         49.9090   10.0490   28.9520 C.2   637  ILE637      0.2616
     96  O         50.8520    9.2770   28.7530 O.2   637  ILE637     -0.2715
     97  CB        50.2530   10.6360   31.4090 C.3   637  ILE637      0.0290
     98  CG1       49.5210   10.9380   32.7280 C.3   637  ILE637      0.0022
     99  CG2       51.0220   11.8700   30.9050 C.3   637  ILE637      0.0023
    100  CD1       50.4280   11.2110   33.9370 C.3   637  ILE637      0.0001
    101  N         49.3970   10.8550   28.0080 N.am  638  VAL638     -0.1977
    102  CA        49.9860   10.9740   26.6770 C.3   638  VAL638      0.1596
    103  C         51.2790   11.7620   26.9090 C.2   638  VAL638      0.2287
    104  O         51.2700   12.7870   27.6010 O.2   638  VAL638     -0.2864
    105  CB        49.0530   11.6590   25.6400 C.3   638  VAL638      0.0276
    106  CG1       49.7870   11.9410   24.3280 C.3   638  VAL638      0.0022
    107  CG2       47.7950   10.8290   25.3850 C.3   638  VAL638      0.0022
    108  N         52.8090   16.2710   25.7780 N.3   641  ALA641     -0.1245
    109  CA        51.6280   17.0140   25.3580 C.3   641  ALA641      0.1562
    110  C         51.2310   18.1740   26.2640 C.2   641  ALA641      0.2260
    111  O         51.4560   18.1280   27.4760 O.2   641  ALA641     -0.2867
    112  CB        50.4560   16.0600   25.1740 C.3   641  ALA641      0.0290
    113  N         47.9280   21.3410   26.7110 N.3   643  THR643     -0.1218
    114  CA        46.6030   21.8080   26.3550 C.3   643  THR643      0.1862
    115  C         46.7890   22.9920   25.3860 C.2   643  THR643      0.2287
    116  O         47.7990   23.7010   25.4720 O.2   643  THR643     -0.2866
    117  CB        45.8740   22.2000   27.6440 C.3   643  THR643      0.1770
    118  OG1       45.4730   21.0320   28.3620 O.3   643  THR643     -0.2211
    119  CG2       44.7120   23.0890   27.4140 C.3   643  THR643      0.0375
    120  N         44.2210   18.9910   23.5560 N.3   709  MET709     -0.1245
    121  CA        45.6690   18.8950   23.6720 C.3   709  MET709      0.1570
    122  C         46.3570   18.5730   22.3590 C.2   709  MET709      0.2261
    123  O         45.7350   18.0260   21.4500 O.2   709  MET709     -0.2867
    124  CB        46.0520   17.8400   24.7190 C.3   709  MET709      0.0387
    125  CG        45.4750   18.0970   26.0880 C.3   709  MET709      0.0595
    126  SD        46.1200   16.9580   27.3210 S.3   709  MET709     -0.1393
    127  CE        47.5710   17.8100   27.7960 C.3   709  MET709      0.0692
    128  N         44.4090   15.9510   20.0730 N.3   717  PHE717     -0.1241
    129  CA        43.4600   15.0360   20.7100 C.3   717  PHE717      0.1605
    130  C         42.6320   15.6970   21.8020 C.2   717  PHE717      0.2264
    131  O         43.1640   16.4790   22.5950 O.2   717  PHE717     -0.2867
    132  CB        44.1700   13.7820   21.2590 C.3   717  PHE717      0.0534
    133  CG        45.1300   13.9900   22.4000 C.ar  717  PHE717     -0.0203
    134  CD1       44.7260   13.7910   23.7120 C.ar  717  PHE717     -0.0042
    135  CD2       46.4480   14.3660   22.1620 C.ar  717  PHE717     -0.0042
    136  CE1       45.6140   13.9810   24.7690 C.ar  717  PHE717     -0.0003
    137  CE2       47.3390   14.5550   23.2200 C.ar  717  PHE717     -0.0003
    138  CZ        46.9170   14.3570   24.5150 C.ar  717  PHE717     -0.0000
    139  N         40.1280   15.4610   25.2820 N.3   719  ILE719     -0.1231
    140  CA        40.1730   14.8040   26.5860 C.3   719  ILE719      0.1692
    141  C         38.8600   15.1050   27.2930 C.2   719  ILE719      0.2592
    142  O         37.9660   15.6720   26.6710 O.2   719  ILE719     -0.2718
    143  CB        41.4090   15.2760   27.4130 C.3   719  ILE719      0.0266
    144  CG1       41.4550   16.8250   27.5680 C.3   719  ILE719      0.0019
    145  CG2       42.7170   14.7000   26.8670 C.3   719  ILE719      0.0020
    146  CD1       42.4070   17.3740   28.6140 C.3   719  ILE719      0.0001
    147  N         38.7430   14.7290   28.5780 N.am  720  ASP720     -0.1974
    148  CA        37.5930   14.9760   29.4460 C.3   720  ASP720      0.1709
    149  C         36.2380   14.8320   28.7390 C.2   720  ASP720      0.2293
    150  O         35.4240   15.7540   28.7700 O.2   720  ASP720     -0.2864
    151  CB        37.7320   16.3420   30.1480 C.3   720  ASP720      0.1436
    152  CG        38.3050   16.3240   31.5500 C.2   720  ASP720      0.3671
    153  OD1       37.5490   16.0100   32.4940 O.co2 720  ASP720     -0.2456
    154  OD2       39.4670   16.7530   31.7230 O.co2 720  ASP720     -0.2456
    155  N         33.9360   12.8780   29.5970 N.3   722  GLY722     -0.1225
    156  CA        32.9920   12.7660   30.7000 C.3   722  GLY722      0.1811
    157  C         32.6870   14.0970   31.3660 C.2   722  GLY722      0.2280
    158  O         32.0160   14.1200   32.4000 O.2   722  GLY722     -0.2866
@<TRIPOS>BOND
     1   128   129    1
     2   129   132    1
     3   129   130    1
     4   132   133    1
     5   123   122    2
     6   130   131    2
     7   135   133   ar
     8   135   137   ar
     9   122   121    1
    10   133   134   ar
    11   137   138   ar
    12   120   121    1
    13   121   124    1
    14   134   136   ar
    15    64    65    1
    16   106   105    1
    17   138   136   ar
    18   124   125    1
    19   112   109    1
    20   139   140    1
    21    65    68    1
    22    65    66    1
    23   109   108    1
    24   109   110    1
    25   107   105    1
    26   115   116    2
    27   115   114    1
    28    71    73   ar
    29    71    69   ar
    30   105   102    1
    31    73    74   ar
    32   125   126    1
    33    68    69    1
    34    66    67    2
    35   110   111    2
    36    91    90   ar
    37   114   113    1
    38   114   117    1
    39    69    70   ar
    40    92    90   ar
    41   140   141    1
    42   140   143    1
    43   142   141    2
    44   102   103    1
    45   102   101    1
    46    59    58    2
    47   145   143    1
    48   103   104    2
    49    90    89    1
    50    74    75    1
    51    74    72   ar
    52   141   147   am
    53   126   127    1
    54   143   144    1
    55   119   117    1
    56   144   146    1
    57    70    72   ar
    58   117   118    1
    59   101    95   am
    60    58    57    1
    61    89    88    2
    62   147   148    1
    63    57    56    1
    64    57    60    1
    65   149   150    2
    66   149   148    1
    67    96    95    2
    68    95    94    1
    69    88    85    1
    70    63    61   ar
    71   148   151    1
    72    60    61    1
    73   155   156    1
    74    87    86    2
    75    61    62   ar
    76   151   152    1
    77    86    85    1
    78    86    93   am
    79    94    93    1
    80    94    97    1
    81    85    84    1
    82   156   157    1
    83    99    97    1
    84    84    78   am
    85    82    80    1
    86   157   158    2
    87    97    98    1
    88   152   154   ar
    89   152   153   ar
    90    51    50    2
    91    78    77    1
    92    78    79    2
    93    80    77    1
    94    80    81    1
    95    98   100    1
    96    22    20   ar
    97    22    21   ar
    98    77    76    1
    99    50    49    1
   100    81    83    1
   101    20    18   ar
   102    21    19   ar
   103    30    28    1
   104    49    52    1
   105    49    48    1
   106    52    53    1
   107    53    54    1
   108    53    55    1
   109    28    27    1
   110    19    16   ar
   111    18    16   ar
   112    18    17   ar
   113    27    29    1
   114    27    24    1
   115    39    38    1
   116    16    14   ar
   117    23    24    1
   118    17    15   ar
   119    44    45    1
   120    44    41    1
   121    46    45   ar
   122    45    47   ar
   123    38    37    1
   124     7     8    1
   125     7     6    1
   126    24    25    1
   127    26    25    2
   128    42    41    1
   129    42    43    2
   130    14    15   ar
   131    14    13    1
   132    41    40    1
   133     6     5    1
   134    37    36    1
   135    13    10    1
   136    35    36    1
   137    35    32    1
   138     5     2    1
   139    10    11    1
   140    10     9    1
   141    11    12    2
   142    31    32    1
   143    34    33    2
   144    32    33    1
   145     2     3    1
   146     2     1    1
   147     3     4    2
