@<TRIPOS>MOLECULE
tmp/3ps9A01.pdb
 203 201 0 0 0
SMALL
GASTEIGER

@<TRIPOS>ATOM
      1  N         25.0050   46.9110    5.7560 N.3    29  PHE29      -0.1241
      2  CA        25.7660   47.1700    4.5240 C.3    29  PHE29       0.1605
      3  C         26.6780   48.4020    4.5150 C.2    29  PHE29       0.2264
      4  O         27.4820   48.5640    3.6000 O.2    29  PHE29      -0.2867
      5  CB        24.8200   47.2590    3.3190 C.3    29  PHE29       0.0534
      6  CG        24.3170   45.9290    2.8500 C.ar   29  PHE29      -0.0203
      7  CD1       25.0660   45.1600    1.9820 C.ar   29  PHE29      -0.0042
      8  CD2       23.1040   45.4400    3.2870 C.ar   29  PHE29      -0.0042
      9  CE1       24.6210   43.9270    1.5570 C.ar   29  PHE29      -0.0003
     10  CE2       22.6490   44.2090    2.8590 C.ar   29  PHE29      -0.0003
     11  CZ        23.4130   43.4500    1.9850 C.ar   29  PHE29      -0.0000
     12  N         24.1190   54.1170    2.0520 N.3    32  VAL32      -0.1231
     13  CA        22.8370   54.8180    2.0630 C.3    32  VAL32       0.1692
     14  C         21.8950   54.0990    1.1100 C.2    32  VAL32       0.2592
     15  O         22.3470   53.4720    0.1400 O.2    32  VAL32      -0.2718
     16  CB        22.9930   56.3150    1.6440 C.3    32  VAL32       0.0266
     17  CG1       23.4780   57.1600    2.8170 C.3    32  VAL32       0.0020
     18  CG2       23.9440   56.4590    0.4580 C.3    32  VAL32       0.0020
     19  N         20.5970   54.1610    1.3870 N.am   33  TYR33      -0.1962
     20  CA        19.6110   53.5590    0.4750 C.3    33  TYR33       0.1771
     21  C         19.5390   54.3190   -0.8520 C.2    33  TYR33       0.2619
     22  O         19.4410   53.7190   -1.9250 O.2    33  TYR33      -0.2715
     23  CB        18.2270   53.4520    1.1280 C.3    33  TYR33       0.0574
     24  CG        18.0570   52.1840    1.9320 C.ar   33  TYR33      -0.0198
     25  CD1       17.2110   51.1750    1.5090 C.ar   33  TYR33      -0.0009
     26  CD2       18.7730   51.9800    3.1030 C.ar   33  TYR33      -0.0009
     27  CE1       17.0580   50.0190    2.2440 C.ar   33  TYR33       0.0417
     28  CE2       18.6400   50.8210    3.8320 C.ar   33  TYR33       0.0417
     29  CZ        17.7730   49.8490    3.4070 C.ar   33  TYR33       0.1957
     30  OH        17.6630   48.6860    4.1240 O.3    33  TYR33      -0.2866
     31  N         19.6740   55.6380   -0.7610 N.am   34  PHE34      -0.1974
     32  CA        19.6710   56.5150   -1.9200 C.3    34  PHE34       0.1639
     33  C         20.3720   57.8130   -1.5440 C.2    34  PHE34       0.2290
     34  O         20.6210   58.0550   -0.3660 O.2    34  PHE34      -0.2864
     35  CB        18.2320   56.8160   -2.3420 C.3    34  PHE34       0.0560
     36  CG        17.3400   57.2740   -1.2060 C.ar   34  PHE34      -0.0200
     37  CD1       17.3850   58.5890   -0.7410 C.ar   34  PHE34      -0.0042
     38  CD2       16.4190   56.4110   -0.6480 C.ar   34  PHE34      -0.0042
     39  CE1       16.5690   59.0180    0.2760 C.ar   34  PHE34      -0.0003
     40  CE2       15.5920   56.8400    0.3630 C.ar   34  PHE34      -0.0003
     41  CZ        15.6570   58.1580    0.8120 C.ar   34  PHE34      -0.0000
     42  N         12.3830   44.1580  -10.0880 N.3    69  GLU69      -0.1245
     43  CA        13.3980   44.9050   -9.3580 C.3    69  GLU69       0.1567
     44  C         14.2130   44.0130   -8.4260 C.2    69  GLU69       0.2260
     45  O         13.6610   43.1250   -7.7640 O.2    69  GLU69      -0.2867
     46  CB        12.7430   46.0010   -8.5220 C.3    69  GLU69       0.0388
     47  CG        13.7330   47.0160   -7.9620 C.3    69  GLU69       0.1160
     48  CD        13.1060   47.9770   -6.9840 C.2    69  GLU69       0.3649
     49  OE1       12.1980   47.5510   -6.2490 O.co2  69  GLU69      -0.2457
     50  OE2       13.5620   49.1450   -6.9020 O.co2  69  GLU69      -0.2457
     51  N         16.0330   44.3810   -4.9850 N.3    71  GLY71      -0.1210
     52  CA        16.2520   45.2070   -3.8080 C.3    71  GLY71       0.1956
     53  C         15.2410   46.3250   -3.7010 C.2    71  GLY71       0.2612
     54  O         15.4630   47.4300   -4.2160 O.2    71  GLY71      -0.2717
     55  N         14.1070   46.0200   -3.0680 N.am   72  PHE72      -0.1962
     56  CA        13.0150   46.9790   -2.8890 C.3    72  PHE72       0.1771
     57  C         13.4010   48.1440   -1.9850 C.2    72  PHE72       0.2620
     58  O         13.0020   49.2740   -2.2280 O.2    72  PHE72      -0.2715
     59  CB        11.8110   46.2800   -2.2770 C.3    72  PHE72       0.0574
     60  CG        10.5620   47.0940   -2.3040 C.ar   72  PHE72      -0.0200
     61  CD1        9.7950   47.1710   -3.4540 C.ar   72  PHE72      -0.0042
     62  CD2       10.1450   47.7890   -1.1830 C.ar   72  PHE72      -0.0042
     63  CE1        8.6390   47.9400   -3.4770 C.ar   72  PHE72      -0.0003
     64  CE2        8.9550   48.5130   -1.2000 C.ar   72  PHE72      -0.0003
     65  CZ         8.2100   48.5840   -2.3380 C.ar   72  PHE72      -0.0000
     66  N         14.0670   47.8260   -0.8830 N.am   73  GLY73      -0.1940
     67  CA        14.4580   48.8110    0.0790 C.3    73  GLY73       0.2014
     68  C         13.3250   49.6540    0.6030 C.2    73  GLY73       0.2640
     69  O         12.2940   49.1560    1.0120 O.2    73  GLY73      -0.2714
     70  N         13.5170   50.9480    0.4980 N.am   74  THR74      -0.1936
     71  CA        12.5880   51.9630    0.9210 C.3    74  THR74       0.2028
     72  C         11.3220   52.0110    0.0630 C.2    74  THR74       0.2643
     73  O         10.2660   52.4370    0.5330 O.2    74  THR74      -0.2714
     74  CB        13.3640   53.3160    0.9240 C.3    74  THR74       0.1808
     75  OG1       13.7420   53.6270    2.2660 O.3    74  THR74      -0.2208
     76  CG2       12.6050   54.4710    0.3060 C.3    74  THR74       0.0379
     77  N         11.4020   51.5240   -1.1710 N.am   75  GLY75      -0.1939
     78  CA        10.2660   51.5920   -2.0800 C.3    75  GLY75       0.2014
     79  C         10.2800   52.7870   -3.0160 C.2    75  GLY75       0.2639
     80  O          9.3350   52.9950   -3.7780 O.2    75  GLY75      -0.2714
     81  N         11.3750   53.5400   -2.9920 N.am   76  LEU76      -0.1963
     82  CA        11.4750   54.7890   -3.7120 C.3    76  LEU76       0.1728
     83  C         11.2810   54.5710   -5.1960 C.2    76  LEU76       0.2616
     84  O         10.6260   55.3680   -5.8430 O.2    76  LEU76      -0.2715
     85  CB        12.8380   55.4220   -3.4830 C.3    76  LEU76       0.0311
     86  CG        13.0420   56.9270   -3.2910 C.3    76  LEU76       0.0022
     87  CD1       14.4460   57.3540   -3.7770 C.3    76  LEU76       0.0001
     88  CD2       11.9580   57.7890   -3.9380 C.3    76  LEU76       0.0001
     89  N         11.8720   53.5130   -5.7440 N.am   77  ASN77      -0.1972
     90  CA        11.7670   53.2750   -7.1740 C.3    77  ASN77       0.1688
     91  C         10.3380   52.9430   -7.4850 C.2    77  ASN77       0.2292
     92  O          9.7700   53.4320   -8.4720 O.2    77  ASN77      -0.2864
     93  CB        12.6500   52.1150   -7.6160 C.3    77  ASN77       0.1181
     94  CG        14.1380   52.4250   -7.5210 C.2    77  ASN77       0.2629
     95  OD1       14.5470   53.5320   -7.1350 O.2    77  ASN77      -0.2716
     96  ND2       14.9620   51.4240   -7.8290 N.am   77  ASN77      -0.0877
     97  N         12.3230   41.9070   -5.1600 N.3   105  PHE105     -0.1227
     98  CA        12.8510   40.8750   -4.2850 C.3   105  PHE105      0.1736
     99  C         13.5550   41.6020   -3.1590 C.2   105  PHE105      0.2595
    100  O         14.1930   42.6320   -3.4010 O.2   105  PHE105     -0.2718
    101  CB        13.8380   39.9790   -5.0500 C.3   105  PHE105      0.0547
    102  CG        13.2220   39.2640   -6.2140 C.ar  105  PHE105     -0.0202
    103  CD1       12.6250   38.0200   -6.0410 C.ar  105  PHE105     -0.0042
    104  CD2       13.1590   39.8620   -7.4630 C.ar  105  PHE105     -0.0042
    105  CE1       11.9910   37.3700   -7.0900 C.ar  105  PHE105     -0.0003
    106  CE2       12.5220   39.2280   -8.5200 C.ar  105  PHE105     -0.0003
    107  CZ        11.9350   37.9810   -8.3310 C.ar  105  PHE105     -0.0000
    108  N         13.4130   41.1200   -1.9300 N.am  106  GLU106     -0.1965
    109  CA        13.9860   41.8480   -0.8050 C.3   106  GLU106      0.1733
    110  C         14.3660   40.9420    0.3420 C.2   106  GLU106      0.2616
    111  O         13.5490   40.1490    0.8180 O.2   106  GLU106     -0.2715
    112  CB        13.0370   42.9570   -0.3170 C.3   106  GLU106      0.0429
    113  CG        13.5250   43.6910    0.9110 C.3   106  GLU106      0.1163
    114  CD        14.8370   44.4220    0.6820 C.2   106  GLU106      0.3649
    115  OE1       14.8760   45.2850   -0.2330 O.co2 106  GLU106     -0.2457
    116  OE2       15.8250   44.1450    1.4210 O.co2 106  GLU106     -0.2457
    117  N         15.6090   41.0610    0.7830 N.am  107  LYS107     -0.1963
    118  CA        16.1360   40.1480    1.7810 C.3   107  LYS107      0.1728
    119  C         15.9130   40.7270    3.1740 C.2   107  LYS107      0.2616
    120  O         15.7130   39.9830    4.1230 O.2   107  LYS107     -0.2715
    121  CB        17.6290   39.8630    1.5420 C.3   107  LYS107      0.0311
    122  CG        18.1330   38.6860    2.3330 C.3   107  LYS107      0.0038
    123  CD        19.5960   38.3760    2.0750 C.3   107  LYS107      0.0206
    124  CE        19.9440   37.0440    2.7500 C.3   107  LYS107      0.1093
    125  NZ        21.2460   36.4340    2.3390 N.3   107  LYS107     -0.1314
    126  N         15.9520   42.0580    3.2680 N.am  108  PHE108     -0.1974
    127  CA        15.8820   42.7700    4.5380 C.3   108  PHE108      0.1639
    128  C         14.7860   43.8130    4.5130 C.2   108  PHE108      0.2290
    129  O         15.0840   45.0020    4.4970 O.2   108  PHE108     -0.2864
    130  CB        17.2120   43.4610    4.8410 C.3   108  PHE108      0.0560
    131  CG        18.3640   42.5160    4.9260 C.ar  108  PHE108     -0.0200
    132  CD1       18.4310   41.5720    5.9370 C.ar  108  PHE108     -0.0042
    133  CD2       19.3540   42.5250    3.9610 C.ar  108  PHE108     -0.0042
    134  CE1       19.4910   40.6680    6.0020 C.ar  108  PHE108     -0.0003
    135  CE2       20.4060   41.6220    4.0160 C.ar  108  PHE108     -0.0003
    136  CZ        20.4820   40.7020    5.0530 C.ar  108  PHE108     -0.0000
    137  N         13.2110   37.3760    0.7020 N.3   160  GLY160     -0.1210
    138  CA        14.2930   36.3970    0.7980 C.3   160  GLY160      0.1956
    139  C         15.4810   36.8330   -0.0230 C.2   160  GLY160      0.2612
    140  O         15.4470   37.9050   -0.6250 O.2   160  GLY160     -0.2717
    141  N         16.5190   35.9940   -0.0400 N.am  161  ASP161     -0.1959
    142  CA        17.7220   36.2370   -0.8200 C.3   161  ASP161      0.1840
    143  C         17.3300   36.0870   -2.2580 C.2   161  ASP161      0.2622
    144  O         16.7140   35.1080   -2.6250 O.2   161  ASP161     -0.2715
    145  CB        18.8120   35.2050   -0.4840 C.3   161  ASP161      0.1450
    146  CG        20.1600   35.5290   -1.1240 C.2   161  ASP161      0.3671
    147  OD1       20.2050   35.8770   -2.3220 O.co2 161  ASP161     -0.2456
    148  OD2       21.1840   35.4560   -0.4130 O.co2 161  ASP161     -0.2456
    149  N         17.7020   37.0660   -3.0710 N.am  162  ILE162     -0.1963
    150  CA        17.2800   37.1090   -4.4540 C.3   162  ILE162      0.1727
    151  C         17.8510   35.9440   -5.2670 C.2   162  ILE162      0.2616
    152  O         17.1600   35.3970   -6.1170 O.2   162  ILE162     -0.2715
    153  CB        17.5820   38.4570   -5.1150 C.3   162  ILE162      0.0290
    154  CG1       16.9410   38.4820   -6.5000 C.3   162  ILE162      0.0022
    155  CG2       19.0780   38.6880   -5.1820 C.3   162  ILE162      0.0023
    156  CD1       16.8290   39.7950   -7.0940 C.3   162  ILE162      0.0001
    157  N         19.0270   35.4620   -4.8760 N.am  163  ASN163     -0.1972
    158  CA        19.7020   34.3810   -5.5990 C.3   163  ASN163      0.1688
    159  C         19.1970   33.0050   -5.2230 C.2   163  ASN163      0.2292
    160  O         19.4730   32.0300   -5.9140 O.2   163  ASN163     -0.2864
    161  CB        21.2130   34.4700   -5.4450 C.3   163  ASN163      0.1181
    162  CG        21.7830   35.7360   -6.0680 C.2   163  ASN163      0.2629
    163  OD1       22.5500   36.4680   -5.4360 O.2   163  ASN163     -0.2716
    164  ND2       21.3810   36.0210   -7.2970 N.am  163  ASN163     -0.0877
    165  N         18.7710   47.3320   -8.9330 N.3   183  ASP183     -0.1225
    166  CA        19.2230   48.1970   -7.8460 C.3   183  ASP183      0.1805
    167  C         19.9210   47.2840   -6.8680 C.2   183  ASP183      0.2598
    168  O         20.0970   46.1130   -7.1430 O.2   183  ASP183     -0.2718
    169  CB        18.0180   48.8810   -7.1700 C.3   183  ASP183      0.1424
    170  CG        18.3380   50.2920   -6.6170 C.2   183  ASP183      0.3668
    171  OD1       19.5040   50.7080   -6.6240 O.co2 183  ASP183     -0.2456
    172  OD2       17.4030   51.0020   -6.1980 O.co2 183  ASP183     -0.2456
    173  N         20.2210   47.7840   -5.6830 N.am  184  GLY184     -0.1942
    174  CA        21.0540   47.0440   -4.7500 C.3   184  GLY184      0.2014
    175  C         22.0980   48.0010   -4.2140 C.2   184  GLY184      0.2638
    176  O         22.1840   49.1480   -4.6550 O.2   184  GLY184     -0.2714
    177  N         22.8970   47.5460   -3.2650 N.am  185  PHE185     -0.1973
    178  CA        23.9700   48.3640   -2.7900 C.3   185  PHE185      0.1639
    179  C         25.1370   48.3350   -3.7480 C.2   185  PHE185      0.2290
    180  O         25.2300   47.4360   -4.5780 O.2   185  PHE185     -0.2864
    181  CB        24.3380   47.9640   -1.3790 C.3   185  PHE185      0.0560
    182  CG        23.3050   48.3720   -0.3950 C.ar  185  PHE185     -0.0200
    183  CD1       22.9140   49.7130   -0.3110 C.ar  185  PHE185     -0.0042
    184  CD2       22.6220   47.4310    0.3430 C.ar  185  PHE185     -0.0042
    185  CE1       21.9320   50.1160    0.5590 C.ar  185  PHE185     -0.0003
    186  CE2       21.6310   47.8210    1.2170 C.ar  185  PHE185     -0.0003
    187  CZ        21.2790   49.1760    1.3200 C.ar  185  PHE185     -0.0000
    188  N         28.9680   45.3700   -2.0150 N.3   190  ASN190     -0.1240
    189  CA        28.0210   44.2870   -1.8060 C.3   190  ASN190      0.1653
    190  C         28.2050   43.3580   -2.9920 C.2   190  ASN190      0.2266
    191  O         27.2240   43.0260   -3.6820 O.2   190  ASN190     -0.2867
    192  CB        26.5670   44.7900   -1.7180 C.3   190  ASN190      0.1155
    193  CG        25.5030   43.6320   -1.7320 C.2   190  ASN190      0.2627
    194  OD1       24.4150   43.7810   -2.3210 O.2   190  ASN190     -0.2716
    195  ND2       25.8330   42.4850   -1.1000 N.am  190  ASN190     -0.0877
    196  N         25.5860   40.1880   -3.9780 N.3   193  MET193     -0.1245
    197  CA        24.2960   40.0700   -4.6410 C.3   193  MET193      0.1570
    198  C         24.3150   40.2430   -6.1580 C.2   193  MET193      0.2261
    199  O         23.4100   39.7750   -6.8370 O.2   193  MET193     -0.2867
    200  CB        23.2520   40.9820   -4.0010 C.3   193  MET193      0.0387
    201  CG        22.9140   42.2040   -4.7960 C.3   193  MET193      0.0595
    202  SD        21.1330   42.4120   -5.0220 S.3   193  MET193     -0.1393
    203  CE        21.2670   43.2170   -6.6170 C.3   193  MET193      0.0692
@<TRIPOS>BOND
     1    42    43    1
     2    43    46    1
     3    43    44    1
     4   165   166    1
     5    46    47    1
     6   106   107   ar
     7   106   104   ar
     8    92    91    2
     9    44    45    2
    10   107   105   ar
    11    47    48    1
    12   166   169    1
    13   166   167    1
    14    96    94   am
    15    93    94    1
    16    93    90    1
    17    94    95    2
    18    91    90    1
    19   104   102   ar
    20   164   162   am
    21    90    89    1
    22   169   170    1
    23   168   167    2
    24   156   154    1
    25   105   103   ar
    26    48    50   ar
    27    48    49   ar
    28   167   173   am
    29   199   198    2
    30   171   170   ar
    31   170   172   ar
    32   203   202    1
    33   154   153    1
    34   102   103   ar
    35   102   101    1
    36   198   197    1
    37   152   151    2
    38   162   161    1
    39   162   163    2
    40   160   159    2
    41    84    83    2
    42    89    83   am
    43   173   174    1
    44   158   161    1
    45   158   159    1
    46   158   157    1
    47   151   157   am
    48   151   150    1
    49    83    82    1
    50   155   153    1
    51    97    98    1
    52   153   150    1
    53   101    98    1
    54   202   201    1
    55    51    52    1
    56   201   200    1
    57   174   175    1
    58   176   175    2
    59   197   200    1
    60   197   196    1
    61   180   179    2
    62   150   149    1
    63    98    99    1
    64    54    53    2
    65   175   177   am
    66    88    86    1
    67    52    53    1
    68    80    79    2
    69    87    86    1
    70   179   178    1
    71    82    85    1
    72    82    81    1
    73    53    55   am
    74   191   190    2
    75    85    86    1
    76    63    61   ar
    77    63    65   ar
    78    61    60   ar
    79   100    99    2
    80   177   178    1
    81    99   108   am
    82   149   143   am
    83    55    56    1
    84    79    81   am
    85    79    78    1
    86   190   189    1
    87    56    59    1
    88    56    57    1
    89   178   181    1
    90   144   143    2
    91    35    32    1
    92    35    36    1
    93    65    64   ar
    94   147   146   ar
    95   194   193    2
    96    60    59    1
    97    60    62   ar
    98   143   142    1
    99    58    57    2
   100    78    77    1
   101   188   189    1
   102    57    66   am
   103   108   109    1
   104    22    21    2
   105    32    33    1
   106    32    31    1
   107   189   192    1
   108   193   192    1
   109   193   195   am
   110    33    34    2
   111   181   182    1
   112    36    37   ar
   113    36    38   ar
   114    64    62   ar
   115    77    72   am
   116   146   145    1
   117   146   148   ar
   118    66    67    1
   119    21    31   am
   120    21    20    1
   121   142   145    1
   122   142   141    1
   123   109   112    1
   124   109   110    1
   125    37    39   ar
   126    38    40   ar
   127   140   139    2
   128   182   183   ar
   129   182   184   ar
   130   112   113    1
   131   183   185   ar
   132   115   114   ar
   133   141   139   am
   134   139   138    1
   135    72    73    2
   136    72    71    1
   137    67    68    1
   138    15    14    2
   139    39    41   ar
   140    76    74    1
   141   110   117   am
   142   110   111    2
   143   184   186   ar
   144    40    41   ar
   145    18    16    1
   146    20    23    1
   147    20    19    1
   148    70    68   am
   149    70    71    1
   150   185   187   ar
   151    68    69    2
   152   114   113    1
   153   114   116   ar
   154   137   138    1
   155   117   118    1
   156    71    74    1
   157    74    75    1
   158    14    19   am
   159    14    13    1
   160    23    24    1
   161   186   187   ar
   162    25    24   ar
   163    25    27   ar
   164   121   118    1
   165   121   122    1
   166     9     7   ar
   167     9    11   ar
   168    16    13    1
   169    16    17    1
   170   118   119    1
   171    24    26   ar
   172     7     6   ar
   173    11    10   ar
   174    12    13    1
   175   123   122    1
   176   123   124    1
   177    27    29   ar
   178   125   124    1
   179     6     8   ar
   180     6     5    1
   181    10     8   ar
   182    26    28   ar
   183   119   126   am
   184   119   120    2
   185   126   127    1
   186     5     2    1
   187    29    28   ar
   188    29    30    1
   189     4     3    2
   190   133   135   ar
   191   133   131   ar
   192   135   136   ar
   193   129   128    2
   194   128   127    1
   195     3     2    1
   196     2     1    1
   197   127   130    1
   198   130   131    1
   199   131   132   ar
   200   136   134   ar
   201   132   134   ar
