@<TRIPOS>MOLECULE
tmp/3psbB00.pdb
 180 171 0 0 0
SMALL
GASTEIGER

@<TRIPOS>ATOM
      1  N         60.7290   33.1520    5.2490 N.3    16  ILE16      -0.1231
      2  CA        61.4920   33.7980    4.1730 C.3    16  ILE16       0.1692
      3  C         60.6950   34.2030    2.9270 C.2    16  ILE16       0.2593
      4  O         61.2100   34.9170    2.0660 O.2    16  ILE16      -0.2718
      5  CB        62.7560   32.9850    3.7660 C.3    16  ILE16       0.0266
      6  CG1       62.4190   31.5060    3.5610 C.3    16  ILE16       0.0019
      7  CG2       63.8630   33.1690    4.8010 C.3    16  ILE16       0.0020
      8  CD1       63.4060   30.7670    2.6890 C.3    16  ILE16       0.0001
      9  N         59.4480   33.7500    2.8330 N.am   17  GLY17      -0.1942
     10  CA        58.6150   34.0480    1.6670 C.3    17  GLY17       0.2014
     11  C         57.5090   33.0330    1.4620 C.2    17  GLY17       0.2640
     12  O         57.0950   32.3600    2.4090 O.2    17  GLY17      -0.2714
     13  N         57.0290   32.9180    0.2260 N.am   18  SER18      -0.1935
     14  CA        55.9450   31.9850   -0.0840 C.3    18  SER18       0.2055
     15  C         56.1830   31.1770   -1.3570 C.2    18  SER18       0.2643
     16  O         56.7660   31.6670   -2.3220 O.2    18  SER18      -0.2714
     17  CB        54.6040   32.7210   -0.1700 C.3    18  SER18       0.2130
     18  OG        54.6370   33.7270   -1.1670 O.3    18  SER18      -0.2179
     19  N         55.7280   29.9300   -1.3380 N.am   19  GLY19      -0.1954
     20  CA        55.7680   29.0650   -2.5100 C.3    19  GLY19       0.1869
     21  C         54.3550   28.6510   -2.8540 C.2    19  GLY19       0.2309
     22  O         53.4260   28.9180   -2.0900 O.2    19  GLY19      -0.2863
     23  N         57.1590   29.5500    2.9060 N.3    24  VAL24      -0.1245
     24  CA        58.5140   29.0000    2.9400 C.3    24  VAL24       0.1561
     25  C         59.3330   29.5030    4.1380 C.2    24  VAL24       0.2260
     26  O         59.3040   30.6900    4.4780 O.2    24  VAL24      -0.2867
     27  CB        59.2710   29.2600    1.6110 C.3    24  VAL24       0.0252
     28  CG1       60.5980   28.5340    1.5900 C.3    24  VAL24       0.0019
     29  CG2       58.4410   28.8030    0.4340 C.3    24  VAL24       0.0019
     30  N         65.2210   23.7390    3.5100 N.3    34  ALA34      -0.1245
     31  CA        64.1440   24.6510    3.1600 C.3    34  ALA34       0.1562
     32  C         62.8120   23.9780    3.4490 C.2    34  ALA34       0.2260
     33  O         62.6060   22.8170    3.0900 O.2    34  ALA34      -0.2867
     34  CB        64.2390   25.0430    1.7110 C.3    34  ALA34       0.0290
     35  N         58.6830   24.3350    3.0810 N.3    36  LYS36      -0.1245
     36  CA        57.4070   24.8870    2.6320 C.3    36  LYS36       0.1561
     37  C         56.2800   24.2040    3.4070 C.2    36  LYS36       0.2260
     38  O         56.1860   22.9740    3.4400 O.2    36  LYS36      -0.2867
     39  CB        57.2260   24.7170    1.1190 C.3    36  LYS36       0.0271
     40  CG        56.0070   25.4370    0.5370 C.3    36  LYS36       0.0035
     41  CD        55.9360   25.3100   -0.9850 C.3    36  LYS36       0.0206
     42  CE        55.4000   23.9550   -1.4250 C.3    36  LYS36       0.1093
     43  NZ        55.2950   23.8600   -2.9040 N.3    36  LYS36      -0.1314
     44  N         52.4120   16.6470   -5.0530 N.3    54  GLU54      -0.1245
     45  CA        53.7600   17.2240   -5.1700 C.3    54  GLU54       0.1567
     46  C         54.8570   16.3000   -4.6440 C.2    54  GLU54       0.2260
     47  O         55.8850   16.1070   -5.3030 O.2    54  GLU54      -0.2867
     48  CB        53.8290   18.5770   -4.4570 C.3    54  GLU54       0.0388
     49  CG        55.1380   19.3350   -4.6710 C.3    54  GLU54       0.1160
     50  CD        55.1420   20.7250   -4.0460 C.2    54  GLU54       0.3649
     51  OE1       56.2010   21.3890   -4.0890 O.co2  54  GLU54      -0.2457
     52  OE2       54.0950   21.1610   -3.5140 O.co2  54  GLU54      -0.2457
     53  N         58.0940   14.8640   -6.6040 N.3    58  LEU58      -0.1245
     54  CA        59.4460   15.1030   -6.1180 C.3    58  LEU58       0.1561
     55  C         60.2250   13.8040   -5.9040 C.2    58  LEU58       0.2260
     56  O         61.4060   13.7220   -6.2390 O.2    58  LEU58      -0.2867
     57  CB        59.4130   15.9300   -4.8310 C.3    58  LEU58       0.0270
     58  CG        59.0300   17.4110   -4.9200 C.3    58  LEU58       0.0019
     59  CD1       58.6380   17.9350   -3.5520 C.3    58  LEU58       0.0001
     60  CD2       60.1470   18.2630   -5.5120 C.3    58  LEU58       0.0001
     61  N         66.1000   20.7720   -7.3360 N.3    67  LEU67      -0.1245
     62  CA        66.1210   21.0010   -5.8870 C.3    67  LEU67       0.1561
     63  C         65.8450   19.6960   -5.1460 C.2    67  LEU67       0.2260
     64  O         64.7970   19.0700   -5.3390 O.2    67  LEU67      -0.2867
     65  CB        65.1000   22.0710   -5.4820 C.3    67  LEU67       0.0270
     66  CG        65.1550   22.6420   -4.0580 C.3    67  LEU67       0.0019
     67  CD1       66.3120   23.6150   -3.8970 C.3    67  LEU67       0.0001
     68  CD2       63.8470   23.3300   -3.7010 C.3    67  LEU67       0.0001
     69  N         56.9820   20.2260    3.3940 N.3    80  ILE80      -0.1245
     70  CA        57.9640   19.6610    2.4610 C.3    80  ILE80       0.1561
     71  C         59.3760   20.1890    2.7430 C.2    80  ILE80       0.2260
     72  O         59.6070   21.3990    2.7850 O.2    80  ILE80      -0.2867
     73  CB        57.5690   19.9010    0.9900 C.3    80  ILE80       0.0252
     74  CG1       56.2590   19.1720    0.6830 C.3    80  ILE80       0.0019
     75  CG2       58.6700   19.4150    0.0550 C.3    80  ILE80       0.0019
     76  CD1       55.5680   19.6110   -0.5820 C.3    80  ILE80       0.0001
     77  N         63.3800   20.3020    1.7210 N.3    82  THR82      -0.1203
     78  CA        64.3890   20.1670    0.6720 C.3    82  THR82       0.1994
     79  C         65.7230   20.7250    1.1390 C.2    82  THR82       0.2618
     80  O         65.8140   21.3180    2.2100 O.2    82  THR82      -0.2717
     81  CB        64.0020   20.9260   -0.6130 C.3    82  THR82       0.1784
     82  OG1       64.0330   22.3360   -0.3670 O.3    82  THR82      -0.2211
     83  CG2       62.6220   20.5200   -1.1060 C.3    82  THR82       0.0376
     84  N         66.7540   20.5430    0.3200 N.am   83  GLN83      -0.1965
     85  CA        68.0540   21.1600    0.5600 C.3    83  GLN83       0.1733
     86  C         67.9540   22.6850    0.5210 C.2    83  GLN83       0.2616
     87  O         67.0540   23.2410   -0.1140 O.2    83  GLN83      -0.2715
     88  CB        69.0760   20.6780   -0.4710 C.3    83  GLN83       0.0408
     89  CG        68.7770   21.1030   -1.9050 C.3    83  GLN83       0.0908
     90  CD        69.9120   20.8090   -2.8590 C.2    83  GLN83       0.2608
     91  OE1       69.6960   20.2570   -3.9370 O.2    83  GLN83      -0.2717
     92  NE2       71.1300   21.1820   -2.4720 N.am   83  GLN83      -0.0878
     93  N         68.8810   23.3520    1.2020 N.am   84  TRP84      -0.1960
     94  CA        68.9010   24.8090    1.2650 C.3    84  TRP84       0.1771
     95  C         69.8870   25.3920    0.2560 C.2    84  TRP84       0.2619
     96  O         70.9780   24.8610    0.0700 O.2    84  TRP84      -0.2715
     97  CB        69.2460   25.2670    2.6810 C.3    84  TRP84       0.0590
     98  CG        69.4790   26.7370    2.8050 C.ar   84  TRP84       0.0006
     99  CD1       70.6850   27.3770    2.8200 C.ar   84  TRP84       0.0946
    100  CD2       68.4840   27.7540    2.9290 C.ar   84  TRP84       0.0152
    101  NE1       70.5020   28.7300    2.9460 N.ar   84  TRP84      -0.2442
    102  CE2       69.1590   28.9900    3.0150 C.ar   84  TRP84       0.0810
    103  CE3       67.0870   27.7430    2.9730 C.ar   84  TRP84       0.0012
    104  CZ2       68.4840   30.2060    3.1450 C.ar   84  TRP84       0.0191
    105  CZ3       66.4150   28.9500    3.0980 C.ar   84  TRP84       0.0001
    106  CH2       67.1150   30.1650    3.1850 C.ar   84  TRP84       0.0015
    107  N         69.4920   26.4810   -0.3950 N.am   85  CYS85      -0.1968
    108  CA        70.3510   27.1610   -1.3630 C.3    85  CYS85       0.1712
    109  C         70.6550   28.5740   -0.8960 C.2    85  CYS85       0.2296
    110  O         69.8000   29.4590   -0.9910 O.2    85  CYS85      -0.2864
    111  CB        69.6800   27.2220   -2.7410 C.3    85  CYS85       0.0983
    112  SG        69.5320   25.6470   -3.6240 S.3    85  CYS85      -0.0798
    113  N         69.8860   33.6070   -3.4060 N.3    88  SER88      -0.1202
    114  CA        68.4620   33.4090   -3.6800 C.3    88  SER88       0.2020
    115  C         68.1690   32.8690   -5.0930 C.2    88  SER88       0.2619
    116  O         69.0610   32.3310   -5.7600 O.2    88  SER88      -0.2717
    117  CB        67.7190   34.7300   -3.4240 C.3    88  SER88       0.2103
    118  OG        66.5450   34.5350   -2.6540 O.3    88  SER88      -0.2182
    119  N         66.9130   33.0110   -5.5280 N.am   89  SER89      -0.1951
    120  CA        66.4660   32.6160   -6.8670 C.3    89  SER89       0.1924
    121  C         67.0300   33.5230   -7.9530 C.2    89  SER89       0.2314
    122  O         67.4480   34.6470   -7.6840 O.2    89  SER89      -0.2863
    123  CB        64.9390   32.6430   -6.9440 C.3    89  SER89       0.2116
    124  OG        64.4450   33.9690   -6.8390 O.3    89  SER89      -0.2180
    125  N         65.5910   36.9300   -8.0330 N.3    92  HIS92      -0.1241
    126  CA        66.1250   37.8520   -7.0440 C.3    92  HIS92       0.1621
    127  C         67.4150   38.4960   -7.5500 C.2    92  HIS92       0.2264
    128  O         67.6280   39.6950   -7.3750 O.2    92  HIS92      -0.2867
    129  CB        66.3580   37.1220   -5.7190 C.3    92  HIS92       0.0745
    130  CG        66.6550   38.0340   -4.5710 C.ar   92  HIS92       0.0817
    131  ND1       67.9410   38.3630   -4.1950 N.ar   92  HIS92      -0.2268
    132  CD2       65.8330   38.6910   -3.7190 C.ar   92  HIS92       0.1154
    133  CE1       67.8980   39.1820   -3.1610 C.ar   92  HIS92       0.1986
    134  NE2       66.6310   39.3960   -2.8510 N.ar   92  HIS92      -0.2212
    135  N         61.7610   32.7720  -10.7260 N.3   133  ASN133     -0.1225
    136  CA        61.4300   32.6430   -9.3090 C.3   133  ASN133      0.1785
    137  C         61.7050   31.2440   -8.7710 C.2   133  ASN133      0.2597
    138  O         61.9770   31.0710   -7.5830 O.2   133  ASN133     -0.2718
    139  CB        59.9610   32.9820   -9.0770 C.3   133  ASN133      0.1169
    140  CG        59.6960   34.4700   -9.0900 C.2   133  ASN133      0.2627
    141  OD1       60.2940   35.2220   -8.3180 O.2   133  ASN133     -0.2716
    142  ND2       58.7790   34.9050   -9.9520 N.am  133  ASN133     -0.0877
    143  N         61.6200   30.2550   -9.6560 N.am  134  ASN134     -0.1974
    144  CA        61.8090   28.8560   -9.2990 C.3   134  ASN134      0.1688
    145  C         63.1430   28.2820   -9.7640 C.2   134  ASN134      0.2292
    146  O         63.3600   27.0730   -9.7030 O.2   134  ASN134     -0.2864
    147  CB        60.6570   28.0190   -9.8510 C.3   134  ASN134      0.1181
    148  CG        59.3230   28.4190   -9.2750 C.2   134  ASN134      0.2629
    149  OD1       59.2520   29.1920   -8.3220 O.2   134  ASN134     -0.2716
    150  ND2       58.2510   27.8920   -9.8500 N.am  134  ASN134     -0.0877
    151  N         66.8090   28.3370   -8.6620 N.3   136  PHE136     -0.1241
    152  CA        67.6000   28.6950   -7.4870 C.3   136  PHE136      0.1605
    153  C         69.0850   28.4990   -7.7320 C.2   136  PHE136      0.2264
    154  O         69.4900   27.6150   -8.4850 O.2   136  PHE136     -0.2867
    155  CB        67.1440   27.8940   -6.2670 C.3   136  PHE136      0.0534
    156  CG        65.7100   28.1250   -5.8960 C.ar  136  PHE136     -0.0203
    157  CD1       64.7020   27.3140   -6.4110 C.ar  136  PHE136     -0.0042
    158  CD2       65.3620   29.1580   -5.0390 C.ar  136  PHE136     -0.0042
    159  CE1       63.3670   27.5290   -6.0770 C.ar  136  PHE136     -0.0003
    160  CE2       64.0290   29.3810   -4.6990 C.ar  136  PHE136     -0.0003
    161  CZ        63.0310   28.5630   -5.2190 C.ar  136  PHE136     -0.0000
    162  N         60.2510   24.2420   -6.6180 N.3   147  ASP147     -0.1225
    163  CA        58.7950   24.4170   -6.5000 C.3   147  ASP147      0.1805
    164  C         58.0090   23.5960   -7.5060 C.2   147  ASP147      0.2597
    165  O         57.7880   24.0240   -8.6400 O.2   147  ASP147     -0.2718
    166  CB        58.3870   25.8960   -6.5770 C.3   147  ASP147      0.1424
    167  CG        57.0170   26.1600   -5.9650 C.2   147  ASP147      0.3668
    168  OD1       56.1890   25.2220   -5.8940 O.co2 147  ASP147     -0.2456
    169  OD2       56.7700   27.3140   -5.5500 O.co2 147  ASP147     -0.2456
    170  N         57.5680   22.4230   -7.0740 N.am  148  PHE148     -0.1976
    171  CA        56.8210   21.5310   -7.9470 C.3   148  PHE148      0.1639
    172  C         55.3340   21.4940   -7.6050 C.2   148  PHE148      0.2290
    173  O         54.6320   20.5350   -7.9380 O.2   148  PHE148     -0.2864
    174  CB        57.4400   20.1350   -7.9190 C.3   148  PHE148      0.0560
    175  CG        58.6880   20.0170   -8.7380 C.ar  148  PHE148     -0.0200
    176  CD1       59.8750   20.6070   -8.3150 C.ar  148  PHE148     -0.0042
    177  CD2       58.6780   19.3130   -9.9350 C.ar  148  PHE148     -0.0042
    178  CE1       61.0330   20.4980   -9.0740 C.ar  148  PHE148     -0.0003
    179  CE2       59.8290   19.1950  -10.7010 C.ar  148  PHE148     -0.0003
    180  CZ        61.0110   19.7890  -10.2710 C.ar  148  PHE148     -0.0000
@<TRIPOS>BOND
     1   135   136    1
     2   179   180   ar
     3   179   177   ar
     4   180   178   ar
     5   142   140   am
     6   177   175   ar
     7   147   144    1
     8   147   148    1
     9   150   148   am
    10   145   146    2
    11   145   144    1
    12   143   144    1
    13   143   137   am
    14   136   139    1
    15   136   137    1
    16   148   149    2
    17   140   139    1
    18   140   141    2
    19   178   176   ar
    20   137   138    2
    21   175   176   ar
    22   175   174    1
    23   151   152    1
    24   165   164    2
    25   154   153    2
    26   125   126    1
    27   121   122    2
    28   121   120    1
    29   171   174    1
    30   171   172    1
    31   171   170    1
    32   173   172    2
    33   153   152    1
    34   127   128    2
    35   127   126    1
    36   164   170   am
    37   164   163    1
    38   152   155    1
    39    61    62    1
    40   126   129    1
    41   123   120    1
    42   123   124    1
    43   120   119    1
    44   162   163    1
    45    53    54    1
    46   166   163    1
    47   166   167    1
    48   157   159   ar
    49   157   156   ar
    50   155   156    1
    51    56    55    2
    52    54    55    1
    53    54    57    1
    54   159   161   ar
    55   167   168   ar
    56   167   169   ar
    57   156   158   ar
    58    62    65    1
    59    62    63    1
    60   116   115    2
    61   129   130    1
    62   119   115   am
    63    60    58    1
    64    65    66    1
    65    64    63    2
    66    47    46    2
    67   161   160   ar
    68    45    44    1
    69    45    46    1
    70    45    48    1
    71   115   114    1
    72   158   160   ar
    73    58    57    1
    74    58    59    1
    75    49    48    1
    76    49    50    1
    77   130   131   ar
    78   130   132   ar
    79   131   133   ar
    80    51    50   ar
    81    66    67    1
    82    66    68    1
    83    50    52   ar
    84    91    90    2
    85   132   134   ar
    86   114   117    1
    87   114   113    1
    88   112   111    1
    89   117   118    1
    90   133   134   ar
    91    43    42    1
    92    90    92   am
    93    90    89    1
    94    21    20    1
    95    21    22    2
    96   111   108    1
    97    20    19    1
    98    16    15    2
    99    89    88    1
   100    42    41    1
   101   108   109    1
   102   108   107    1
   103    15    19   am
   104    15    14    1
   105    18    17    1
   106    83    81    1
   107   110   109    2
   108    41    40    1
   109    81    82    1
   110    81    78    1
   111    76    74    1
   112    88    85    1
   113   107    95   am
   114    17    14    1
   115    87    86    2
   116    14    13    1
   117    75    73    1
   118    96    95    2
   119    13    11   am
   120    95    94    1
   121    84    85    1
   122    84    79   am
   123    29    27    1
   124    86    85    1
   125    86    93   am
   126    40    39    1
   127    78    79    1
   128    78    77    1
   129    74    73    1
   130    73    70    1
   131    39    36    1
   132    79    80    2
   133    93    94    1
   134    94    97    1
   135    11    10    1
   136    11    12    2
   137    28    27    1
   138    27    24    1
   139    10     9    1
   140    34    31    1
   141     4     3    2
   142    70    71    1
   143    70    69    1
   144    36    35    1
   145    36    37    1
   146    97    98    1
   147     8     6    1
   148    71    72    2
   149    98    99   ar
   150    98   100   ar
   151    99   101   ar
   152     9     3   am
   153    23    24    1
   154     3     2    1
   155   100   103   ar
   156   100   102   ar
   157    24    25    1
   158   101   102   ar
   159   103   105   ar
   160   102   104   ar
   161    33    32    2
   162   105   106   ar
   163   104   106   ar
   164    31    32    1
   165    31    30    1
   166    37    38    2
   167     6     5    1
   168     5     2    1
   169     5     7    1
   170    25    26    2
   171     2     1    1
