@<TRIPOS>MOLECULE
tmp/3psdA00.pdb
 192 184 0 0 0
SMALL
GASTEIGER

@<TRIPOS>ATOM
      1  N         43.5640   32.3630   26.1700 N.3    16  ILE16      -0.1231
      2  CA        42.7170   32.9610   27.2060 C.3    16  ILE16       0.1692
      3  C         43.4880   33.5160   28.4110 C.2    16  ILE16       0.2593
      4  O         42.9270   34.2530   29.2260 O.2    16  ILE16      -0.2718
      5  CB        41.5790   32.0050   27.6710 C.3    16  ILE16       0.0266
      6  CG1       42.1450   30.7660   28.3750 C.3    16  ILE16       0.0019
      7  CG2       40.6830   31.6210   26.4910 C.3    16  ILE16       0.0020
      8  CD1       41.1830   30.1350   29.3670 C.3    16  ILE16       0.0001
      9  N         44.7680   33.1670   28.5110 N.am   17  GLY17      -0.1942
     10  CA        45.6150   33.6380   29.6030 C.3    17  GLY17       0.2014
     11  C         46.7160   32.6590   29.9570 C.2    17  GLY17       0.2640
     12  O         47.0600   31.7850   29.1590 O.2    17  GLY17      -0.2714
     13  N         47.2650   32.8060   31.1610 N.am   18  SER18      -0.1935
     14  CA        48.3570   31.9540   31.6260 C.3    18  SER18       0.2055
     15  C         48.1130   31.4140   33.0310 C.2    18  SER18       0.2643
     16  O         47.6580   32.1400   33.9190 O.2    18  SER18      -0.2714
     17  CB        49.6860   32.7130   31.5860 C.3    18  SER18       0.2130
     18  OG        49.9930   33.1420   30.2710 O.3    18  SER18      -0.2179
     19  N         48.4160   30.1320   33.2160 N.am   19  GLY19      -0.1954
     20  CA        48.3740   29.4960   34.5300 C.3    19  GLY19       0.1869
     21  C         49.7760   29.2090   35.0340 C.2    19  GLY19       0.2309
     22  O         50.7550   29.7360   34.4990 O.2    19  GLY19      -0.2863
     23  N         47.4080   29.1160   28.9590 N.3    24  VAL24      -0.1245
     24  CA        46.0970   28.4870   28.7980 C.3    24  VAL24       0.1561
     25  C         45.3770   28.9450   27.5270 C.2    24  VAL24       0.2260
     26  O         45.3530   30.1350   27.2050 O.2    24  VAL24      -0.2867
     27  CB        45.1890   28.7190   30.0310 C.3    24  VAL24       0.0252
     28  CG1       43.9540   27.8460   29.9450 C.3    24  VAL24       0.0019
     29  CG2       45.9450   28.4230   31.3220 C.3    24  VAL24       0.0019
     30  N         39.3720   23.4230   28.1140 N.3    34  ALA34      -0.1245
     31  CA        40.4430   24.3230   28.5260 C.3    34  ALA34       0.1562
     32  C         41.7700   23.5710   28.4910 C.2    34  ALA34       0.2260
     33  O         41.9060   22.5110   29.1070 O.2    34  ALA34      -0.2867
     34  CB        40.1730   24.8740   29.9160 C.3    34  ALA34       0.0290
     35  N         45.9390   23.8710   29.0120 N.3    36  LYS36      -0.1245
     36  CA        47.1360   24.5630   29.4790 C.3    36  LYS36       0.1561
     37  C         48.3610   23.9810   28.7790 C.2    36  LYS36       0.2260
     38  O         48.6720   22.8000   28.9350 O.2    36  LYS36      -0.2867
     39  CB        47.2660   24.4520   31.0010 C.3    36  LYS36       0.0271
     40  CG        48.3050   25.3870   31.6120 C.3    36  LYS36       0.0035
     41  CD        48.1710   25.4820   33.1270 C.3    36  LYS36       0.0206
     42  CE        48.7860   24.2850   33.8340 C.3    36  LYS36       0.1093
     43  NZ        48.7460   24.4500   35.3120 N.3    36  LYS36      -0.1314
     44  N         51.7130   17.7150   38.1800 N.3    54  GLU54      -0.1245
     45  CA        50.3330   18.1950   38.1030 C.3    54  GLU54       0.1567
     46  C         49.3790   17.1200   37.5820 C.2    54  GLU54       0.2260
     47  O         48.2890   16.9360   38.1290 O.2    54  GLU54      -0.2867
     48  CB        50.2490   19.4550   37.2360 C.3    54  GLU54       0.0388
     49  CG        48.8650   20.0950   37.2000 C.3    54  GLU54       0.1160
     50  CD        48.8230   21.4050   36.4330 C.2    54  GLU54       0.3649
     51  OE1       47.7210   21.9820   36.3170 O.co2  54  GLU54      -0.2457
     52  OE2       49.8810   21.8630   35.9490 O.co2  54  GLU54      -0.2457
     53  N         46.1370   15.6870   39.3950 N.3    58  LEU58      -0.1245
     54  CA        44.8320   15.8500   38.7490 C.3    58  LEU58       0.1561
     55  C         44.0830   14.5340   38.5360 C.2    58  LEU58       0.2260
     56  O         42.8560   14.4960   38.6300 O.2    58  LEU58      -0.2867
     57  CB        44.9760   16.5930   37.4160 C.3    58  LEU58       0.0270
     58  CG        45.1220   18.1180   37.4480 C.3    58  LEU58       0.0019
     59  CD1       45.6200   18.6240   36.1070 C.3    58  LEU58       0.0001
     60  CD2       43.8090   18.7970   37.8220 C.3    58  LEU58       0.0001
     61  N         37.9530   21.2280   39.1670 N.3    67  LEU67      -0.1245
     62  CA        38.0170   21.3130   37.7070 C.3    67  LEU67       0.1561
     63  C         38.3550   19.9530   37.1020 C.2    67  LEU67       0.2260
     64  O         39.4200   19.3900   37.3690 O.2    67  LEU67      -0.2867
     65  CB        39.0340   22.3740   37.2680 C.3    67  LEU67       0.0270
     66  CG        39.0840   22.7710   35.7880 C.3    67  LEU67       0.0019
     67  CD1       37.7660   23.3820   35.3270 C.3    67  LEU67       0.0001
     68  CD2       40.2370   23.7290   35.5330 C.3    67  LEU67       0.0001
     69  N         47.8110   20.0210   29.0240 N.3    80  ILE80      -0.1245
     70  CA        46.8480   19.4000   29.9350 C.3    80  ILE80       0.1561
     71  C         45.4390   19.8640   29.5700 C.2    80  ILE80       0.2260
     72  O         45.1860   21.0630   29.4470 O.2    80  ILE80      -0.2867
     73  CB        47.1450   19.7360   31.4200 C.3    80  ILE80       0.0252
     74  CG1       48.6380   19.5730   31.7300 C.3    80  ILE80       0.0019
     75  CG2       46.3070   18.8550   32.3470 C.3    80  ILE80       0.0019
     76  CD1       49.1220   20.3740   32.9250 C.3    80  ILE80       0.0001
     77  N         41.3780   20.0820   30.3260 N.3    82  THR82      -0.1203
     78  CA        40.2770   20.0470   31.2900 C.3    82  THR82       0.1994
     79  C         38.9910   20.5620   30.6470 C.2    82  THR82       0.2618
     80  O         39.0040   21.0160   29.5030 O.2    82  THR82      -0.2717
     81  CB        40.5770   20.8820   32.5600 C.3    82  THR82       0.1784
     82  OG1       40.7820   22.2520   32.2000 O.3    82  THR82      -0.2211
     83  CG2       41.8030   20.3500   33.2980 C.3    82  THR82       0.0376
     84  N         37.8890   20.4900   31.3910 N.am   83  GLN83      -0.1965
     85  CA        36.5900   20.9820   30.9260 C.3    83  GLN83       0.1733
     86  C         36.5620   22.5040   30.7840 C.2    83  GLN83       0.2616
     87  O         37.3030   23.2130   31.4700 O.2    83  GLN83      -0.2715
     88  CB        35.4710   20.5200   31.8670 C.3    83  GLN83       0.0408
     89  CG        35.6250   20.9610   33.3240 C.3    83  GLN83       0.0908
     90  CD        34.3230   20.9020   34.1050 C.2    83  GLN83       0.2608
     91  OE1       34.2770   20.3670   35.2130 O.2    83  GLN83      -0.2717
     92  NE2       33.2590   21.4560   33.5330 N.am   83  GLN83      -0.0878
     93  N         35.7080   22.9960   29.8900 N.am   84  TRP84      -0.1960
     94  CA        35.5310   24.4340   29.6980 C.3    84  TRP84       0.1771
     95  C         34.3830   24.9620   30.5520 C.2    84  TRP84       0.2619
     96  O         33.3030   24.3670   30.5990 O.2    84  TRP84      -0.2715
     97  CB        35.2960   24.7710   28.2220 C.3    84  TRP84       0.0590
     98  CG        35.1390   26.2440   27.9590 C.ar   84  TRP84       0.0006
     99  CD1       33.9710   26.9210   27.7560 C.ar   84  TRP84       0.0946
    100  CD2       36.1860   27.2210   27.8870 C.ar   84  TRP84       0.0152
    101  NE1       34.2250   28.2570   27.5560 N.ar   84  TRP84      -0.2442
    102  CE2       35.5760   28.4680   27.6310 C.ar   84  TRP84       0.0810
    103  CE3       37.5810   27.1610   28.0080 C.ar   84  TRP84       0.0012
    104  CZ2       36.3120   29.6510   27.4970 C.ar   84  TRP84       0.0191
    105  CZ3       38.3120   28.3370   27.8800 C.ar   84  TRP84       0.0001
    106  CH2       37.6750   29.5640   27.6240 C.ar   84  TRP84       0.0015
    107  N         34.6300   26.0850   31.2210 N.am   85  CYS85      -0.1968
    108  CA        33.6360   26.7190   32.0770 C.3    85  CYS85       0.1712
    109  C         33.2870   28.1130   31.5620 C.2    85  CYS85       0.2296
    110  O         34.0850   29.0480   31.6830 O.2    85  CYS85      -0.2864
    111  CB        34.1410   26.7910   33.5220 C.3    85  CYS85       0.0983
    112  SG        34.5660   25.1900   34.2540 S.3    85  CYS85      -0.0798
    113  N         33.6180   33.6420   33.6770 N.3    88  SER88      -0.1202
    114  CA        35.0060   33.7450   34.1270 C.3    88  SER88       0.2020
    115  C         35.2070   33.3790   35.6050 C.2    88  SER88       0.2619
    116  O         34.2580   32.9980   36.2960 O.2    88  SER88      -0.2717
    117  CB        35.5450   35.1470   33.8300 C.3    88  SER88       0.2103
    118  OG        36.9610   35.1680   33.8630 O.3    88  SER88      -0.2182
    119  N         36.4510   33.4940   36.0720 N.am   89  SER89      -0.1951
    120  CA        36.8250   33.1540   37.4480 C.3    89  SER89       0.1924
    121  C         36.2210   34.1020   38.4850 C.2    89  SER89       0.2314
    122  O         35.6980   35.1650   38.1390 O.2    89  SER89      -0.2863
    123  CB        38.3500   33.1340   37.5900 C.3    89  SER89       0.2116
    124  OG        38.9050   34.4100   37.3210 O.3    89  SER89      -0.2180
    125  N         37.7890   35.8670   40.7020 N.3    91  TYR91      -0.1227
    126  CA        38.5790   37.1000   40.7120 C.3    91  TYR91       0.1736
    127  C         38.0570   38.0930   39.6780 C.2    91  TYR91       0.2595
    128  O         38.0140   39.2990   39.9290 O.2    91  TYR91      -0.2718
    129  CB        40.0590   36.7950   40.4470 C.3    91  TYR91       0.0548
    130  CG        40.9550   38.0170   40.3960 C.ar   91  TYR91      -0.0200
    131  CD1       41.2590   38.6330   39.1810 C.ar   91  TYR91      -0.0009
    132  CD2       41.5020   38.5540   41.5620 C.ar   91  TYR91      -0.0009
    133  CE1       42.0800   39.7560   39.1290 C.ar   91  TYR91       0.0417
    134  CE2       42.3250   39.6760   41.5190 C.ar   91  TYR91       0.0417
    135  CZ        42.6090   40.2700   40.3000 C.ar   91  TYR91       0.1957
    136  OH        43.4220   41.3790   40.2510 O.3    91  TYR91      -0.2866
    137  N         37.6660   37.5700   38.5190 N.am   92  HIS92      -0.1975
    138  CA        37.1630   38.3810   37.4180 C.3    92  HIS92       0.1656
    139  C         35.7930   38.9810   37.7350 C.2    92  HIS92       0.2291
    140  O         35.5390   40.1500   37.4410 O.2    92  HIS92      -0.2864
    141  CB        37.1010   37.5440   36.1400 C.3    92  HIS92       0.0771
    142  CG        36.8900   38.3490   34.8970 C.ar   92  HIS92       0.0820
    143  ND1       35.6420   38.5750   34.3590 N.ar   92  HIS92      -0.2267
    144  CD2       37.7700   38.9780   34.0830 C.ar   92  HIS92       0.1154
    145  CE1       35.7610   39.3110   33.2680 C.ar   92  HIS92       0.1986
    146  NE2       37.0420   39.5710   33.0810 N.ar   92  HIS92      -0.2212
    147  N         41.2050   33.6020   41.6650 N.3   133  ASN133     -0.1225
    148  CA        41.4750   33.3990   40.2480 C.3   133  ASN133      0.1785
    149  C         41.4860   31.9270   39.8380 C.2   133  ASN133      0.2597
    150  O         41.2120   31.6000   38.6830 O.2   133  ASN133     -0.2718
    151  CB        42.7890   34.0790   39.8550 C.3   133  ASN133      0.1169
    152  CG        42.8060   34.5270   38.4020 C.2   133  ASN133      0.2627
    153  OD1       41.8280   34.3630   37.6690 O.2   133  ASN133     -0.2716
    154  ND2       43.9250   35.1020   37.9790 N.am  133  ASN133     -0.0877
    155  N         41.8010   31.0470   40.7860 N.am  134  ASN134     -0.1974
    156  CA        41.7610   29.6030   40.5480 C.3   134  ASN134      0.1688
    157  C         40.3910   28.9920   40.8570 C.2   134  ASN134      0.2292
    158  O         40.1520   27.8110   40.5910 O.2   134  ASN134     -0.2864
    159  CB        42.8710   28.8920   41.3280 C.3   134  ASN134      0.1181
    160  CG        44.2570   29.1810   40.7720 C.2   134  ASN134      0.2629
    161  OD1       44.4110   29.5670   39.6110 O.2   134  ASN134     -0.2716
    162  ND2       45.2760   28.9900   41.6010 N.am  134  ASN134     -0.0877
    163  N         36.7320   28.9200   39.7110 N.3   136  PHE136     -0.1241
    164  CA        36.0070   29.2080   38.4730 C.3   136  PHE136      0.1605
    165  C         34.5050   28.9780   38.6060 C.2   136  PHE136      0.2264
    166  O         34.0700   27.9680   39.1600 O.2   136  PHE136     -0.2867
    167  CB        36.5710   28.3780   37.3130 C.3   136  PHE136      0.0534
    168  CG        38.0330   28.6100   37.0540 C.ar  136  PHE136     -0.0203
    169  CD1       38.9870   27.7200   37.5350 C.ar  136  PHE136     -0.0042
    170  CD2       38.4580   29.7220   36.3330 C.ar  136  PHE136     -0.0042
    171  CE1       40.3420   27.9320   37.3010 C.ar  136  PHE136     -0.0003
    172  CE2       39.8100   29.9440   36.0960 C.ar  136  PHE136     -0.0003
    173  CZ        40.7530   29.0470   36.5800 C.ar  136  PHE136     -0.0000
    174  N         43.6890   24.8040   38.3640 N.3   147  ASP147     -0.1225
    175  CA        45.1310   25.0880   38.4030 C.3   147  ASP147      0.1805
    176  C         45.8490   24.3850   39.5580 C.2   147  ASP147      0.2597
    177  O         45.9330   24.9080   40.6730 O.2   147  ASP147     -0.2718
    178  CB        45.4090   26.6000   38.4070 C.3   147  ASP147      0.1424
    179  CG        46.8340   26.9400   37.9890 C.2   147  ASP147      0.3668
    180  OD1       47.5340   26.0620   37.4370 O.co2 147  ASP147     -0.2456
    181  OD2       47.2510   28.0960   38.2070 O.co2 147  ASP147     -0.2456
    182  N         46.3680   23.1950   39.2710 N.am  148  PHE148     -0.1976
    183  CA        47.0330   22.3710   40.2760 C.3   148  PHE148      0.1639
    184  C         48.5290   22.2040   39.9970 C.2   148  PHE148      0.2290
    185  O         49.1310   21.1890   40.3570 O.2   148  PHE148     -0.2864
    186  CB        46.3390   21.0070   40.3840 C.3   148  PHE148      0.0560
    187  CG        45.0140   21.0550   41.0940 C.ar  148  PHE148     -0.0200
    188  CD1       43.8450   21.3560   40.4020 C.ar  148  PHE148     -0.0042
    189  CD2       44.9360   20.7970   42.4590 C.ar  148  PHE148     -0.0042
    190  CE1       42.6190   21.4020   41.0590 C.ar  148  PHE148     -0.0003
    191  CE2       43.7150   20.8400   43.1240 C.ar  148  PHE148     -0.0003
    192  CZ        42.5540   21.1430   42.4220 C.ar  148  PHE148     -0.0000
@<TRIPOS>BOND
     1     1     2    1
     2     7     5    1
     3    26    25    2
     4     2     5    1
     5     2     3    1
     6   104   106   ar
     7   104   102   ar
     8    25    24    1
     9   101   102   ar
    10   101    99   ar
    11   106   105   ar
    12   102   100   ar
    13     5     6    1
    14    99    98   ar
    15   105   103   ar
    16   100    98   ar
    17   100   103   ar
    18    98    97    1
    19    30    31    1
    20    97    94    1
    21     6     8    1
    22     3     9   am
    23     3     4    2
    24    32    31    1
    25    32    33    2
    26     9    10    1
    27    31    34    1
    28    37    38    2
    29    37    36    1
    30    24    23    1
    31    24    27    1
    32    35    36    1
    33    69    70    1
    34    12    11    2
    35    72    71    2
    36    36    39    1
    37    80    79    2
    38    71    70    1
    39    10    11    1
    40    94    93    1
    41    94    95    1
    42    93    86   am
    43    70    73    1
    44    28    27    1
    45    11    13   am
    46    27    29    1
    47    18    17    1
    48    77    78    1
    49    95    96    2
    50    95   107   am
    51    79    78    1
    52    79    84   am
    53    86    85    1
    54    86    87    2
    55    85    84    1
    56    85    88    1
    57    39    40    1
    58    13    14    1
    59   107   108    1
    60    78    81    1
    61    73    74    1
    62    73    75    1
    63   109   110    2
    64   109   108    1
    65    17    14    1
    66    40    41    1
    67    14    15    1
    68    74    76    1
    69    88    89    1
    70   108   111    1
    71    82    81    1
    72    81    83    1
    73    15    19   am
    74    15    16    2
    75   146   145   ar
    76   146   144   ar
    77    41    42    1
    78    19    20    1
    79   145   143   ar
    80    89    90    1
    81   111   112    1
    82    92    90   am
    83   113   114    1
    84   117   118    1
    85   117   114    1
    86    42    43    1
    87   144   142   ar
    88    90    91    2
    89   114   115    1
    90   143   142   ar
    91    22    21    2
    92    20    21    1
    93   142   141    1
    94    67    66    1
    95    68    66    1
    96   115   119   am
    97   115   116    2
    98    66    65    1
    99    52    50   ar
   100   119   120    1
   101   172   170   ar
   102   172   173   ar
   103    59    58    1
   104   141   138    1
   105    51    50   ar
   106   170   168   ar
   107    50    49    1
   108   173   171   ar
   109   168   167    1
   110   168   169   ar
   111    63    64    2
   112    63    62    1
   113    49    48    1
   114    48    45    1
   115    65    62    1
   116   171   169   ar
   117   167   164    1
   118   124   123    1
   119    57    58    1
   120    57    54    1
   121   138   139    1
   122   138   137    1
   123   180   179   ar
   124   140   139    2
   125   120   123    1
   126   120   121    1
   127    58    60    1
   128    46    45    1
   129    46    47    2
   130   153   152    2
   131    62    61    1
   132   154   152   am
   133   179   181   ar
   134   179   178    1
   135    45    44    1
   136   122   121    2
   137   174   175    1
   138   152   151    1
   139   175   178    1
   140   175   176    1
   141   164   165    1
   142   164   163    1
   143   137   127   am
   144    55    56    2
   145    55    54    1
   146   165   166    2
   147   150   149    2
   148    54    53    1
   149   133   131   ar
   150   133   135   ar
   151   131   130   ar
   152   182   176   am
   153   182   183    1
   154   176   177    2
   155   161   160    2
   156   127   128    2
   157   127   126    1
   158   149   148    1
   159   149   155   am
   160   151   148    1
   161   184   183    1
   162   184   185    2
   163   148   147    1
   164   136   135    1
   165   183   186    1
   166   135   134   ar
   167   186   187    1
   168   130   129    1
   169   130   132   ar
   170   188   190   ar
   171   188   187   ar
   172   129   126    1
   173   156   155    1
   174   156   157    1
   175   156   159    1
   176   158   157    2
   177   125   126    1
   178   160   159    1
   179   160   162   am
   180   190   192   ar
   181   187   189   ar
   182   134   132   ar
   183   192   191   ar
   184   189   191   ar
