@<TRIPOS>MOLECULE
tmp/3pslB00.pdb
 200 193 0 0 0
SMALL
GASTEIGER

@<TRIPOS>ATOM
      1  N         -4.6370    6.6180   36.8660 N.3    16  ALA16      -0.1231
      2  CA        -3.5890    5.6520   37.1650 C.3    16  ALA16       0.1694
      3  C         -2.6840    6.1650   38.2690 C.2    16  ALA16       0.2592
      4  O         -2.2970    7.3550   38.2740 O.2    16  ALA16      -0.2718
      5  CB        -2.7690    5.4560   35.8950 C.3    16  ALA16       0.0304
      6  N         -2.3320    5.2440   39.1690 N.am   17  VAL17      -0.1966
      7  CA        -1.3890    5.5160   40.2020 C.3    17  VAL17       0.1727
      8  C          0.0340    5.3290   39.5890 C.2    17  VAL17       0.2616
      9  O          0.1980    4.4340   38.7940 O.2    17  VAL17      -0.2715
     10  CB        -1.5820    4.6110   41.4470 C.3    17  VAL17       0.0290
     11  CG1       -0.6000    5.0220   42.5310 C.3    17  VAL17       0.0023
     12  CG2       -2.9960    4.8170   41.9740 C.3    17  VAL17       0.0023
     13  N          1.0130    6.1900   39.9160 N.am   18  SER18      -0.1950
     14  CA         2.3900    5.9810   39.3560 C.3    18  SER18       0.1924
     15  C          3.4600    5.4740   40.3300 C.2    18  SER18       0.2314
     16  O          4.3860    4.7330   39.8980 O.2    18  SER18      -0.2863
     17  CB         2.9280    7.2580   38.7250 C.3    18  SER18       0.2116
     18  OG         2.8280    8.3050   39.7240 O.3    18  SER18      -0.2180
     19  N         -1.1610   10.1890   37.9660 N.3    34  ALA34      -0.1245
     20  CA        -1.3830   10.9470   36.7660 C.3    34  ALA34       0.1562
     21  C         -2.5230   11.9790   37.0380 C.2    34  ALA34       0.2260
     22  O         -2.6530   12.9240   36.2490 O.2    34  ALA34      -0.2867
     23  CB        -1.7940    9.9940   35.5910 C.3    34  ALA34       0.0290
     24  N          0.3830   15.6160   35.5720 N.3    58  GLY58      -0.1210
     25  CA         0.4440   14.3860   36.4240 C.3    58  GLY58       0.1956
     26  C          1.8370   14.1330   36.9530 C.2    58  GLY58       0.2612
     27  O          2.8180   14.6850   36.4230 O.2    58  GLY58      -0.2717
     28  N          1.9300   13.2510   37.9420 N.am   59  ILE59      -0.1965
     29  CA         3.1810   12.9520   38.6700 C.3    59  ILE59       0.1727
     30  C          3.6190   11.5220   38.3740 C.2    59  ILE59       0.2617
     31  O          2.8050   10.5820   38.3890 O.2    59  ILE59      -0.2715
     32  CB         2.9180   13.1240   40.1890 C.3    59  ILE59       0.0290
     33  CG1        2.5450   14.6130   40.4200 C.3    59  ILE59       0.0022
     34  CG2        4.1910   12.8460   40.9930 C.3    59  ILE59       0.0023
     35  CD1        2.1270   14.8820   41.8950 C.3    59  ILE59       0.0001
     36  N          4.8990   11.3460   38.0510 N.am   60  SER60      -0.1936
     37  CA         5.3930    9.9680   37.8310 C.3    60  SER60       0.2055
     38  C          6.1330    9.3780   39.0100 C.2    60  SER60       0.2643
     39  O          6.4050    8.2040   39.0240 O.2    60  SER60      -0.2714
     40  CB         6.3780    9.9960   36.6220 C.3    60  SER60       0.2130
     41  OG         5.6840   10.1670   35.4150 O.3    60  SER60      -0.2179
     42  N          6.5580   10.1690   40.0070 N.am   61  ASP61      -0.1971
     43  CA         7.3100    9.5000   41.1420 C.3    61  ASP61       0.1709
     44  C          7.2280   10.4470   42.3390 C.2    61  ASP61       0.2293
     45  O          6.9500   11.6530   42.1630 O.2    61  ASP61      -0.2864
     46  CB         8.7880    9.4330   40.7600 C.3    61  ASP61       0.1436
     47  CG         9.5610    8.3480   41.4940 C.2    61  ASP61       0.3671
     48  OD1        8.9880    7.6360   42.3940 O.co2  61  ASP61      -0.2456
     49  OD2       10.7960    8.1760   41.1610 O.co2  61  ASP61      -0.2456
     50  N          5.1380   15.6170   34.9650 N.3    76  ASP76      -0.1239
     51  CA         5.0880   15.9920   33.5560 C.3    76  ASP76       0.1674
     52  C          5.1770   17.4930   33.3110 C.2    76  ASP76       0.2266
     53  O          5.5290   17.9090   32.2090 O.2    76  ASP76      -0.2867
     54  CB         3.7560   15.5170   32.9960 C.3    76  ASP76       0.1410
     55  CG         3.6810   14.0370   32.8120 C.2    76  ASP76       0.3668
     56  OD1        4.5600   13.2710   33.3060 O.co2  76  ASP76      -0.2456
     57  OD2        2.6680   13.5730   32.2250 O.co2  76  ASP76      -0.2456
     58  N          9.2700   16.0140   30.6080 N.3   100  TYR100     -0.1241
     59  CA         8.6960   15.3070   31.7380 C.3   100  TYR100      0.1605
     60  C          9.8140   14.8960   32.7690 C.2   100  TYR100      0.2264
     61  O         10.8250   14.3680   32.3410 O.2   100  TYR100     -0.2867
     62  CB         8.1490   13.9420   31.3210 C.3   100  TYR100      0.0534
     63  CG         7.0180   13.9590   30.3040 C.ar  100  TYR100     -0.0201
     64  CD1        6.8720   12.8500   29.4710 C.ar  100  TYR100     -0.0009
     65  CD2        6.1070   15.0250   30.1940 C.ar  100  TYR100     -0.0009
     66  CE1        5.8120   12.8000   28.4810 C.ar  100  TYR100      0.0417
     67  CE2        5.0390   14.9370   29.2150 C.ar  100  TYR100      0.0417
     68  CZ         4.9250   13.8440   28.4130 C.ar  100  TYR100      0.1957
     69  OH         3.8880   13.6740   27.4780 O.3   100  TYR100     -0.2866
     70  N         10.6750   12.2420   35.4380 N.3   102  PHE102     -0.1227
     71  CA        10.1830   10.8990   35.5160 C.3   102  PHE102      0.1736
     72  C         10.4570   10.2030   36.8110 C.2   102  PHE102      0.2595
     73  O          9.6930    9.3550   37.2100 O.2   102  PHE102     -0.2718
     74  CB        10.8410   10.1100   34.3850 C.3   102  PHE102      0.0547
     75  CG        10.1230    8.7930   34.0310 C.ar  102  PHE102     -0.0202
     76  CD1        8.9870    8.7900   33.1980 C.ar  102  PHE102     -0.0042
     77  CD2       10.5990    7.5990   34.5490 C.ar  102  PHE102     -0.0042
     78  CE1        8.3320    7.5680   32.8560 C.ar  102  PHE102     -0.0003
     79  CE2        9.9550    6.3750   34.2280 C.ar  102  PHE102     -0.0003
     80  CZ         8.7810    6.3840   33.3480 C.ar  102  PHE102     -0.0000
     81  N         11.6000   10.5210   37.4200 N.am  103  CYS103     -0.1970
     82  CA        12.0580    9.7910   38.6110 C.3   103  CYS103      0.1712
     83  C         12.8450   10.7360   39.5270 C.2   103  CYS103      0.2296
     84  O         13.4240   11.7430   39.0680 O.2   103  CYS103     -0.2864
     85  CB        12.9150    8.5600   38.1580 C.3   103  CYS103      0.0983
     86  SG        14.2810    9.0510   37.0360 S.3   103  CYS103     -0.0798
     87  N         12.7160   12.9010   30.7670 N.3   118  PHE118     -0.1241
     88  CA        12.6870   12.6250   29.2980 C.3   118  PHE118      0.1605
     89  C         13.6770   13.4640   28.5170 C.2   118  PHE118      0.2264
     90  O         13.9830   13.1350   27.3440 O.2   118  PHE118     -0.2867
     91  CB        11.2320   12.8940   28.7870 C.3   118  PHE118      0.0534
     92  CG        10.3780   11.6620   28.6880 C.ar  118  PHE118     -0.0203
     93  CD1        9.7100   11.3890   27.4980 C.ar  118  PHE118     -0.0042
     94  CD2       10.1810   10.8530   29.7570 C.ar  118  PHE118     -0.0042
     95  CE1        8.9070   10.2570   27.3690 C.ar  118  PHE118     -0.0003
     96  CE2        9.4150    9.6950   29.6520 C.ar  118  PHE118     -0.0003
     97  CZ         8.7870    9.3800   28.4850 C.ar  118  PHE118     -0.0000
     98  N         14.9880    6.5970   33.1020 N.3   144  SER144     -0.1202
     99  CA        13.9030    5.8480   33.7560 C.3   144  SER144      0.2020
    100  C         13.9840    5.7090   35.2740 C.2   144  SER144      0.2618
    101  O         12.9600    5.5510   35.9380 O.2   144  SER144     -0.2717
    102  CB        13.8530    4.4300   33.1090 C.3   144  SER144      0.2103
    103  OG        15.1190    3.7890   33.2340 O.3   144  SER144     -0.2182
    104  N         15.1760    5.8740   35.8520 N.am  145  ALA145     -0.1979
    105  CA        15.3430    5.7380   37.2540 C.3   145  ALA145      0.1597
    106  C         16.6500    6.3910   37.7020 C.2   145  ALA145      0.2287
    107  O         17.6220    6.4510   36.9310 O.2   145  ALA145     -0.2864
    108  CB        15.3770    4.2440   37.7030 C.3   145  ALA145      0.0319
    109  N         16.2130    4.3840   28.6330 N.3   160  TYR160     -0.1241
    110  CA        15.7970    3.6980   27.4170 C.3   160  TYR160      0.1605
    111  C         16.9560    3.5240   26.4040 C.2   160  TYR160      0.2264
    112  O         16.7920    2.8030   25.3880 O.2   160  TYR160     -0.2867
    113  CB        14.7150    4.5790   26.7900 C.3   160  TYR160      0.0534
    114  CG        13.3700    4.2440   27.3490 C.ar  160  TYR160     -0.0201
    115  CD1       12.9670    4.7130   28.6030 C.ar  160  TYR160     -0.0009
    116  CD2       12.4880    3.4310   26.6330 C.ar  160  TYR160     -0.0009
    117  CE1       11.7010    4.4070   29.1420 C.ar  160  TYR160      0.0417
    118  CE2       11.2160    3.0940   27.1620 C.ar  160  TYR160      0.0417
    119  CZ        10.8510    3.5900   28.4330 C.ar  160  TYR160      0.1957
    120  OH         9.6110    3.2840   28.9560 O.3   160  TYR160     -0.2866
    121  N         14.5760   -0.1320   32.3990 N.3   182  SER182     -0.1202
    122  CA        13.3960    0.5540   32.8350 C.3   182  SER182      0.2020
    123  C         13.4130    0.8950   34.3070 C.2   182  SER182      0.2618
    124  O         12.5370    1.6600   34.7690 O.2   182  SER182     -0.2717
    125  CB        12.1710   -0.3210   32.5190 C.3   182  SER182      0.2103
    126  OG        12.4620   -1.6230   32.9770 O.3   182  SER182     -0.2182
    127  N         14.3840    0.3570   35.0670 N.am  183  PHE183     -0.1975
    128  CA        14.4480    0.6030   36.5180 C.3   183  PHE183      0.1639
    129  C         15.8390    0.1220   36.9710 C.2   183  PHE183      0.2290
    130  O         16.3940   -0.8410   36.4560 O.2   183  PHE183     -0.2864
    131  CB        13.3770   -0.2140   37.3410 C.3   183  PHE183      0.0560
    132  CG        13.3620    0.1560   38.8030 C.ar  183  PHE183     -0.0200
    133  CD1       12.9630    1.4380   39.2050 C.ar  183  PHE183     -0.0042
    134  CD2       13.8830   -0.7250   39.7210 C.ar  183  PHE183     -0.0042
    135  CE1       12.9980    1.7720   40.5450 C.ar  183  PHE183     -0.0003
    136  CE2       13.9540   -0.3620   41.0610 C.ar  183  PHE183     -0.0003
    137  CZ        13.5270    0.8730   41.4460 C.ar  183  PHE183     -0.0000
    138  N          6.7360   -2.9240   28.6300 N.3   223  LYS223     -0.1231
    139  CA         6.1330   -1.6400   28.2170 C.3   223  LYS223      0.1693
    140  C          6.4100   -0.5190   29.2670 C.2   223  LYS223      0.2592
    141  O          6.6300    0.6480   28.8810 O.2   223  LYS223     -0.2718
    142  CB         4.5950   -1.8070   27.9870 C.3   223  LYS223      0.0285
    143  CG         4.2840   -2.6180   26.6960 C.3   223  LYS223      0.0035
    144  CD         2.7950   -2.9450   26.6560 C.3   223  LYS223      0.0206
    145  CE         2.5240   -4.1200   25.7300 C.3   223  LYS223      0.1093
    146  NZ         1.1670   -4.6250   26.0940 N.3   223  LYS223     -0.1314
    147  N          6.4170   -0.8750   30.5620 N.am  224  TYR224     -0.1962
    148  CA         6.3930    0.1840   31.6070 C.3   224  TYR224      0.1771
    149  C          7.5990    0.1560   32.4710 C.2   224  TYR224      0.2619
    150  O          8.2560   -0.8610   32.6470 O.2   224  TYR224     -0.2715
    151  CB         5.1900   -0.0560   32.5080 C.3   224  TYR224      0.0574
    152  CG         3.8960    0.0970   31.7520 C.ar  224  TYR224     -0.0198
    153  CD1        3.2570   -1.0170   31.1750 C.ar  224  TYR224     -0.0009
    154  CD2        3.3090    1.3300   31.6250 C.ar  224  TYR224     -0.0009
    155  CE1        2.0900   -0.8610   30.5010 C.ar  224  TYR224      0.0417
    156  CE2        2.1060    1.4820   30.9640 C.ar  224  TYR224      0.0417
    157  CZ         1.5160    0.3830   30.3920 C.ar  224  TYR224      0.1957
    158  OH         0.3020    0.5590   29.7480 O.3   224  TYR224     -0.2866
    159  N          7.9060    1.3110   33.0550 N.am  225  CYS225     -0.1968
    160  CA         8.9570    1.3990   34.0350 C.3   225  CYS225      0.1712
    161  C          8.5040    1.0510   35.4260 C.2   225  CYS225      0.2296
    162  O          8.0580    1.9320   36.2280 O.2   225  CYS225     -0.2864
    163  CB         9.4620    2.8460   33.9900 C.3   225  CYS225      0.0983
    164  SG        10.4340    3.0900   32.3840 S.3   225  CYS225     -0.0798
    165  N          8.7110   -0.3820   39.2610 N.3   227  PHE227     -0.1241
    166  CA         9.6500   -0.3280   40.3920 C.3   227  PHE227      0.1605
    167  C          9.9060   -1.7570   40.8890 C.2   227  PHE227      0.2264
    168  O          9.0320   -2.6170   40.7890 O.2   227  PHE227     -0.2867
    169  CB         9.0210    0.4460   41.5460 C.3   227  PHE227      0.0534
    170  CG         8.8570    1.9090   41.2920 C.ar  227  PHE227     -0.0203
    171  CD1        7.7180    2.4210   40.6700 C.ar  227  PHE227     -0.0042
    172  CD2        9.8340    2.7980   41.7510 C.ar  227  PHE227     -0.0042
    173  CE1        7.5590    3.7960   40.4780 C.ar  227  PHE227     -0.0003
    174  CE2        9.7100    4.2130   41.5600 C.ar  227  PHE227     -0.0003
    175  CZ         8.5670    4.7040   40.9010 C.ar  227  PHE227     -0.0000
    176  N          2.2970   -1.1050   38.5650 N.3   269  ILE269     -0.1245
    177  CA         3.4490   -0.2310   38.2020 C.3   269  ILE269      0.1561
    178  C          4.4600   -0.0190   39.3050 C.2   269  ILE269      0.2260
    179  O          5.6460    0.2890   39.0250 O.2   269  ILE269     -0.2867
    180  CB         2.8850    1.1630   37.7320 C.3   269  ILE269      0.0252
    181  CG1        3.9180    2.0270   36.9940 C.3   269  ILE269      0.0019
    182  CG2        2.2020    1.9280   38.8940 C.3   269  ILE269      0.0019
    183  CD1        4.3860    1.4230   35.6190 C.3   269  ILE269      0.0001
    184  N         -2.4180    0.6360   37.3510 N.3   285  LEU285     -0.1231
    185  CA        -2.7120    1.6410   36.2990 C.3   285  LEU285      0.1693
    186  C         -4.2140    1.8960   36.1100 C.2   285  LEU285      0.2591
    187  O         -5.0250    1.5720   37.0140 O.2   285  LEU285     -0.2718
    188  CB        -1.9700    1.3220   34.9790 C.3   285  LEU285      0.0284
    189  CG        -0.4620    1.2580   35.1190 C.3   285  LEU285      0.0019
    190  CD1        0.2040    0.9500   33.7610 C.3   285  LEU285      0.0001
    191  CD2        0.2030    2.6080   35.7090 C.3   285  LEU285      0.0001
    192  N         -4.5710    2.4350   34.9450 N.am  286  GLU286     -0.1979
    193  CA        -5.8790    3.1100   34.7130 C.3   286  GLU286      0.1602
    194  C         -7.1500    2.2710   34.9870 C.2   286  GLU286      0.2287
    195  O         -8.1240    2.7650   35.5390 O.2   286  GLU286     -0.2864
    196  CB        -5.8970    3.8030   33.3510 C.3   286  GLU286      0.0415
    197  CG        -5.6480    2.9250   32.1000 C.3   286  GLU286      0.1163
    198  CD        -4.1320    2.7230   31.7330 C.2   286  GLU286      0.3649
    199  OE1       -3.2100    3.3020   32.4040 O.co2 286  GLU286     -0.2457
    200  OE2       -3.8780    1.9580   30.7540 O.co2 286  GLU286     -0.2457
@<TRIPOS>BOND
     1   112   111    2
     2   145   146    1
     3   145   144    1
     4   111   110    1
     5   116   118   ar
     6   116   114   ar
     7   144   143    1
     8   143   142    1
     9   113   114    1
    10   113   110    1
    11   118   119   ar
    12    90    89    2
    13   114   115   ar
    14    95    93   ar
    15    95    97   ar
    16   110   109    1
    17    69    68    1
    18    93    92   ar
    19   142   139    1
    20   139   138    1
    21   139   140    1
    22    68    66   ar
    23    68    67   ar
    24   119   120    1
    25   119   117   ar
    26    66    64   ar
    27    97    96   ar
    28    89    88    1
    29   115   117   ar
    30    92    91    1
    31    92    94   ar
    32    91    88    1
    33   141   140    2
    34    67    65   ar
    35   140   147   am
    36    88    87    1
    37    64    63   ar
    38    96    94   ar
    39   158   157    1
    40    65    63   ar
    41    63    62    1
    42   157   155   ar
    43   157   156   ar
    44   155   153   ar
    45   147   148    1
    46    58    59    1
    47   200   198   ar
    48   156   154   ar
    49   153   152   ar
    50    62    59    1
    51   148   149    1
    52   148   151    1
    53   154   152   ar
    54   198   197    1
    55   198   199   ar
    56    59    60    1
    57   152   151    1
    58   197   196    1
    59    53    52    2
    60    57    55   ar
    61    61    60    2
    62   164   163    1
    63   121   122    1
    64   149   150    2
    65   149   159   am
    66   125   122    1
    67   125   126    1
    68    55    54    1
    69    55    56   ar
    70   122   123    1
    71    78    76   ar
    72    78    80   ar
    73    54    51    1
    74   159   160    1
    75    98    99    1
    76   102   103    1
    77   102    99    1
    78    76    75   ar
    79    52    51    1
    80    80    79   ar
    81   196   193    1
    82    51    50    1
    83    99   100    1
    84   190   189    1
    85   163   160    1
    86    75    74    1
    87    75    77   ar
    88   160   161    1
    89    79    77   ar
    90   123   124    2
    91   123   127   am
    92    74    71    1
    93   193   192    1
    94   193   194    1
    95   192   186   am
    96   188   189    1
    97   188   185    1
    98   194   195    2
    99   127   128    1
   100   189   191    1
   101   100   104   am
   102   100   101    2
   103    41    40    1
   104   161   162    2
   105    70    71    1
   106    71    72    1
   107    24    25    1
   108    23    20    1
   109   183   181    1
   110   104   105    1
   111     5     2    1
   112   186   185    1
   113   186   187    2
   114    22    21    2
   115   185   184    1
   116    27    26    2
   117    25    26    1
   118   130   129    2
   119   128   129    1
   120   128   131    1
   121    40    37    1
   122    20    21    1
   123    20    19    1
   124    72    73    2
   125    72    81   am
   126     1     2    1
   127   107   106    2
   128    26    28   am
   129   181   180    1
   130    86    85    1
   131     2     3    1
   132   105   106    1
   133   105   108    1
   134   131   132    1
   135    81    82    1
   136   180   177    1
   137   180   182    1
   138    37    36    1
   139    37    38    1
   140    28    29    1
   141    36    30   am
   142    85    82    1
   143   177   176    1
   144   177   178    1
   145     3     4    2
   146     3     6   am
   147    30    31    2
   148    30    29    1
   149    82    83    1
   150    29    32    1
   151    17    14    1
   152    17    18    1
   153     9     8    2
   154   132   133   ar
   155   132   134   ar
   156    38    39    2
   157    38    42   am
   158   179   178    2
   159    84    83    2
   160     6     7    1
   161   133   135   ar
   162   165   166    1
   163    14    13    1
   164    14    15    1
   165     8    13   am
   166     8     7    1
   167   134   136   ar
   168    16    15    2
   169    42    43    1
   170    32    33    1
   171    32    34    1
   172     7    10    1
   173   166   167    1
   174   166   169    1
   175    33    35    1
   176   173   171   ar
   177   173   175   ar
   178   135   137   ar
   179   171   170   ar
   180    46    43    1
   181    46    47    1
   182   168   167    2
   183   175   174   ar
   184   136   137   ar
   185    43    44    1
   186    49    47   ar
   187   170   169    1
   188   170   172   ar
   189    10    12    1
   190    10    11    1
   191    47    48   ar
   192   174   172   ar
   193    45    44    2
