@<TRIPOS>MOLECULE
tmp/3psyA01.pdb
 72 69 0 0 0
SMALL
GASTEIGER

@<TRIPOS>ATOM
      1  N          6.2750    3.2500    9.0390 N.3    37  GLY37      -0.1210
      2  CA         5.7500    4.5360    9.4370 C.3    37  GLY37       0.1956
      3  C          5.4140    4.6610   10.9100 C.2    37  GLY37       0.2613
      4  O          4.7790    5.6570   11.2830 O.2    37  GLY37      -0.2717
      5  N          5.8450    3.7110   11.7420 N.am   38  SER38      -0.1938
      6  CA         5.7370    3.8510   13.1900 C.3    38  SER38       0.2055
      7  C          6.7900    2.9860   13.8580 C.2    38  SER38       0.2643
      8  O          7.5100    2.2360   13.1860 O.2    38  SER38      -0.2714
      9  CB         4.3190    3.5360   13.6690 C.3    38  SER38       0.2130
     10  OG         4.0630    2.1490   13.5880 O.3    38  SER38      -0.2179
     11  N          6.8750    3.1130   15.1850 N.am   39  SER39      -0.1949
     12  CA         8.0200    2.5670   15.8880 C.3    39  SER39       0.1924
     13  C          7.6420    1.8090   17.1550 C.2    39  SER39       0.2314
     14  O          8.4950    1.6420   18.0460 O.2    39  SER39      -0.2863
     15  CB         9.0420    3.6930   16.1720 C.3    39  SER39       0.2116
     16  OG         9.3710    4.2960   14.9140 O.3    39  SER39      -0.2180
     17  N         -0.6350    5.1890   21.4170 N.3    77  ILE77      -0.1231
     18  CA        -0.3990    5.7080   20.0860 C.3    77  ILE77       0.1692
     19  C         -1.7150    5.9310   19.3730 C.2    77  ILE77       0.2593
     20  O         -2.6910    5.2450   19.6450 O.2    77  ILE77      -0.2718
     21  CB         0.4620    4.7000   19.2950 C.3    77  ILE77       0.0266
     22  CG1        1.0930    5.2630   18.0260 C.3    77  ILE77       0.0019
     23  CG2       -0.3640    3.4730   18.9810 C.3    77  ILE77       0.0020
     24  CD1        2.2760    4.5170   17.4910 C.3    77  ILE77       0.0001
     25  N         -1.6950    6.8870   18.4630 N.am   78  SER78      -0.1938
     26  CA        -2.8150    7.1080   17.5460 C.3    78  SER78       0.2055
     27  C         -2.2350    7.4430   16.1860 C.2    78  SER78       0.2643
     28  O         -1.1030    7.8990   16.0450 O.2    78  SER78      -0.2714
     29  CB        -3.7320    8.2070   18.0470 C.3    78  SER78       0.2130
     30  OG        -3.0550    9.4210   18.0740 O.3    78  SER78      -0.2179
     31  N         -3.0410    7.1870   15.1810 N.am   79  TYR79      -0.1959
     32  CA        -2.6130    7.3540   13.7950 C.3    79  TYR79       0.1771
     33  C         -3.5270    8.3360   13.0830 C.2    79  TYR79       0.2620
     34  O         -4.4560    8.8920   13.6850 O.2    79  TYR79      -0.2715
     35  CB        -2.5620    5.9850   13.1330 C.3    79  TYR79       0.0574
     36  CG        -1.7930    4.8980   13.8600 C.ar   79  TYR79      -0.0198
     37  CD1       -2.4350    3.9200   14.5920 C.ar   79  TYR79      -0.0009
     38  CD2       -0.4060    4.8420   13.7880 C.ar   79  TYR79      -0.0009
     39  CE1       -1.7360    2.9130   15.2630 C.ar   79  TYR79       0.0417
     40  CE2        0.3110    3.8450   14.4390 C.ar   79  TYR79       0.0417
     41  CZ        -0.3640    2.8920   15.1690 C.ar   79  TYR79       0.1957
     42  OH         0.3350    1.8850   15.8290 O.3    79  TYR79      -0.2866
     43  N         -3.2400    8.5760   11.8020 N.am   80  GLY80      -0.1954
     44  CA        -3.8790    9.6460   11.0770 C.3    80  GLY80       0.1869
     45  C         -5.3530    9.4600   10.8230 C.2    80  GLY80       0.2309
     46  O         -6.0560   10.4060   10.4900 O.2    80  GLY80      -0.2863
     47  N         10.5550    7.6750   17.4980 N.3   133  LEU133     -0.1245
     48  CA         9.0970    7.7560   17.5150 C.3   133  LEU133      0.1561
     49  C          8.4360    6.7730   18.4830 C.2   133  LEU133      0.2260
     50  O          7.1960    6.8300   18.6290 O.2   133  LEU133     -0.2867
     51  CB         8.5040    7.5250   16.1220 C.3   133  LEU133      0.0270
     52  CG         8.8760    8.5330   15.0540 C.3   133  LEU133      0.0019
     53  CD1        8.1490    8.1510   13.7710 C.3   133  LEU133      0.0001
     54  CD2        8.5720    9.9560   15.4510 C.3   133  LEU133      0.0001
     55  N          6.6210    5.1290   21.5150 N.3   135  THR135     -0.1218
     56  CA         5.8480    5.8700   22.5050 C.3   135  THR135      0.1862
     57  C          6.0090    5.3730   23.9230 C.2   135  THR135      0.2287
     58  O          5.3210    5.8820   24.8250 O.2   135  THR135     -0.2866
     59  CB         4.3260    5.8550   22.1640 C.3   135  THR135      0.1770
     60  OG1        3.8170    4.5500   22.4210 O.3   135  THR135     -0.2211
     61  CG2        4.0640    6.2360   20.7220 C.3   135  THR135      0.0375
     62  N         11.0120    9.3410   10.4760 N.3   194  PHE194     -0.1241
     63  CA        10.5800    8.5170    9.3730 C.3   194  PHE194      0.1605
     64  C         11.7020    8.2660    8.3470 C.2   194  PHE194      0.2264
     65  O         12.7190    8.9320    8.3880 O.2   194  PHE194     -0.2867
     66  CB         9.4230    9.1470    8.5910 C.3   194  PHE194      0.0534
     67  CG         8.1610    9.4260    9.3720 C.ar  194  PHE194     -0.0203
     68  CD1        7.7520   10.7030    9.5620 C.ar  194  PHE194     -0.0042
     69  CD2        7.4180    8.3790    9.8690 C.ar  194  PHE194     -0.0042
     70  CE1        6.5730   10.9710   10.2320 C.ar  194  PHE194     -0.0003
     71  CE2        6.2650    8.6340   10.5960 C.ar  194  PHE194     -0.0003
     72  CZ         5.8540    9.9400   10.8030 C.ar  194  PHE194     -0.0000
@<TRIPOS>BOND
     1    64    65    2
     2    64    63    1
     3    66    67    1
     4    66    63    1
     5     1     2    1
     6    67    68   ar
     7    67    69   ar
     8    63    62    1
     9     2     3    1
    10    68    70   ar
    11    69    71   ar
    12    70    72   ar
    13    46    45    2
    14    71    72   ar
    15    45    44    1
    16     3     4    2
    17     3     5   am
    18    44    43    1
    19     5     6    1
    20    43    33   am
    21    33    34    2
    22    33    32    1
    23    35    32    1
    24    35    36    1
    25     8     7    2
    26     6     9    1
    27     6     7    1
    28    10     9    1
    29    53    52    1
    30    38    36   ar
    31    38    40   ar
    32    32    31    1
    33     7    11   am
    34    36    37   ar
    35    40    41   ar
    36    37    39   ar
    37    16    15    1
    38    52    54    1
    39    52    51    1
    40    41    39   ar
    41    41    42    1
    42    31    27   am
    43    11    12    1
    44    12    15    1
    45    12    13    1
    46    28    27    2
    47    51    48    1
    48    27    26    1
    49    13    14    2
    50    24    22    1
    51    47    48    1
    52    48    49    1
    53    26    29    1
    54    26    25    1
    55    22    21    1
    56    29    30    1
    57    25    19   am
    58    49    50    2
    59    23    21    1
    60    21    18    1
    61    19    20    2
    62    19    18    1
    63    18    17    1
    64    61    59    1
    65    55    56    1
    66    59    60    1
    67    59    56    1
    68    56    57    1
    69    57    58    2
