@<TRIPOS>MOLECULE
tmp/3psyA00.pdb
 174 160 0 0 0
SMALL
GASTEIGER

@<TRIPOS>ATOM
      1  N         -3.5820   -4.2020    3.4830 N.3    16  ALA16      -0.1245
      2  CA        -2.4380   -4.2670    4.3860 C.3    16  ALA16       0.1562
      3  C         -1.7990   -5.6370    4.2000 C.2    16  ALA16       0.2260
      4  O         -2.3790   -6.5030    3.5550 O.2    16  ALA16      -0.2867
      5  CB        -2.7550   -4.0430    5.8390 C.3    16  ALA16       0.0290
      6  N          1.4300   -6.4540   11.3040 N.3    33  ASP33      -0.1239
      7  CA         1.5900   -5.5190   10.1750 C.3    33  ASP33       0.1674
      8  C          2.8900   -4.7630   10.3210 C.2    33  ASP33       0.2266
      9  O          3.0170   -3.9270   11.2260 O.2    33  ASP33      -0.2867
     10  CB         0.3680   -4.5990   10.1820 C.3    33  ASP33       0.1410
     11  CG         0.2710   -3.6050    9.0660 C.2    33  ASP33       0.3668
     12  OD1        1.2810   -3.4710    8.3260 O.co2  33  ASP33      -0.2456
     13  OD2       -0.7860   -2.9270    8.9460 O.co2  33  ASP33      -0.2456
     14  N          5.4020   -2.0510    9.8410 N.3    35  ASP35      -0.1239
     15  CA         5.0330   -0.6610    9.6090 C.3    35  ASP35       0.1674
     16  C          6.2270    0.2810    9.6520 C.2    35  ASP35       0.2266
     17  O          6.7000    0.6580   10.7320 O.2    35  ASP35      -0.2867
     18  CB         3.9970   -0.2660   10.6580 C.3    35  ASP35       0.1410
     19  CG         3.4800    1.1650   10.5060 C.2    35  ASP35       0.3668
     20  OD1        3.8400    1.8040    9.5050 O.co2  35  ASP35      -0.2456
     21  OD2        2.6990    1.5830   11.4040 O.co2  35  ASP35      -0.2456
     22  N          6.2750    3.2500    9.0390 N.3    37  GLY37      -0.1225
     23  CA         5.7500    4.5360    9.4370 C.3    37  GLY37       0.1811
     24  C          5.4140    4.6610   10.9100 C.2    37  GLY37       0.2280
     25  O          4.7790    5.6570   11.2830 O.2    37  GLY37      -0.2866
     26  N         -3.0410    7.1870   15.1810 N.3    79  TYR79      -0.1227
     27  CA        -2.6130    7.3540   13.7950 C.3    79  TYR79       0.1736
     28  C         -3.5270    8.3360   13.0830 C.2    79  TYR79       0.2596
     29  O         -4.4560    8.8920   13.6850 O.2    79  TYR79      -0.2718
     30  CB        -2.5620    5.9850   13.1330 C.3    79  TYR79       0.0548
     31  CG        -1.7930    4.8980   13.8600 C.ar   79  TYR79      -0.0200
     32  CD1       -2.4350    3.9200   14.5920 C.ar   79  TYR79      -0.0009
     33  CD2       -0.4060    4.8420   13.7880 C.ar   79  TYR79      -0.0009
     34  CE1       -1.7360    2.9130   15.2630 C.ar   79  TYR79       0.0417
     35  CE2        0.3110    3.8450   14.4390 C.ar   79  TYR79       0.0417
     36  CZ        -0.3640    2.8920   15.1690 C.ar   79  TYR79       0.1957
     37  OH         0.3350    1.8850   15.8290 O.3    79  TYR79      -0.2866
     38  N         -3.2400    8.5760   11.8020 N.am   80  GLY80      -0.1942
     39  CA        -3.8790    9.6460   11.0770 C.3    80  GLY80       0.2014
     40  C         -5.3530    9.4600   10.8230 C.2    80  GLY80       0.2638
     41  O         -6.0560   10.4060   10.4900 O.2    80  GLY80      -0.2714
     42  N         -5.8120    8.2090   10.9380 N.am   81  ASP81      -0.1971
     43  CA        -7.2220    7.9380   10.7360 C.3    81  ASP81       0.1709
     44  C         -7.9410    8.1040   12.0680 C.2    81  ASP81       0.2293
     45  O         -9.1580    7.8800   12.1420 O.2    81  ASP81      -0.2864
     46  CB        -7.4600    6.5370   10.1730 C.3    81  ASP81       0.1436
     47  CG        -6.8070    5.4180   10.9510 C.2    81  ASP81       0.3671
     48  OD1       -6.0100    5.7220   11.8550 O.co2  81  ASP81      -0.2456
     49  OD2       -7.1050    4.2420   10.6580 O.co2  81  ASP81      -0.2456
     50  N         -7.3480    6.2250   14.5510 N.3    83  SER83      -0.1217
     51  CA        -7.2530    4.9610   15.2740 C.3    83  SER83       0.1889
     52  C         -6.1950    5.0630   16.3860 C.2    83  SER83       0.2288
     53  O         -5.3180    5.9320   16.3570 O.2    83  SER83      -0.2866
     54  CB        -6.9520    3.8080   14.3390 C.3    83  SER83       0.2089
     55  OG        -5.6580    3.8240   13.7980 O.3    83  SER83      -0.2183
     56  N        -11.3230    0.3560   14.6440 N.3   115  SER115     -0.1202
     57  CA       -10.7280   -0.0310   13.3680 C.3   115  SER115      0.2020
     58  C         -9.8980   -1.3000   13.5490 C.2   115  SER115      0.2618
     59  O         -9.8840   -2.1800   12.6830 O.2   115  SER115     -0.2717
     60  CB        -9.8590    1.1020   12.7990 C.3   115  SER115      0.2103
     61  OG       -10.6400    2.0940   12.1610 O.3   115  SER115     -0.2182
     62  N         -9.1820   -1.3840   14.6710 N.am  116  PHE116     -0.1975
     63  CA        -8.3280   -2.5500   14.8700 C.3   116  PHE116      0.1639
     64  C         -9.1760   -3.7570   15.2520 C.2   116  PHE116      0.2290
     65  O         -8.9180   -4.8630   14.7690 O.2   116  PHE116     -0.2864
     66  CB        -7.2320   -2.2210   15.8840 C.3   116  PHE116      0.0560
     67  CG        -6.2070   -1.2120   15.3760 C.ar  116  PHE116     -0.0200
     68  CD1       -5.3970   -1.5610   14.3080 C.ar  116  PHE116     -0.0042
     69  CD2       -6.0560    0.0470   15.9340 C.ar  116  PHE116     -0.0042
     70  CE1       -4.4700   -0.6850   13.7810 C.ar  116  PHE116     -0.0003
     71  CE2       -5.1240    0.9430   15.4110 C.ar  116  PHE116     -0.0003
     72  CZ        -4.3330    0.5760   14.3330 C.ar  116  PHE116     -0.0000
     73  N        -10.5600   -5.4700   12.2640 N.3   119  ASP119     -0.1239
     74  CA        -9.5890   -6.1050   11.3570 C.3   119  ASP119      0.1674
     75  C         -9.1140   -7.4290   11.9910 C.2   119  ASP119      0.2266
     76  O         -8.0570   -7.4380   12.6370 O.2   119  ASP119     -0.2867
     77  CB        -8.4030   -5.2030   11.0630 C.3   119  ASP119      0.1410
     78  CG        -8.6250   -3.9710   10.2330 C.2   119  ASP119      0.3668
     79  OD1       -9.7550   -3.8030    9.7190 O.co2 119  ASP119     -0.2456
     80  OD2       -7.7010   -3.1300   10.0790 O.co2 119  ASP119     -0.2456
     81  N         -5.3230   -8.7660   11.5760 N.3   122  ILE122     -0.1245
     82  CA        -4.1160   -8.0730   12.0660 C.3   122  ILE122      0.1561
     83  C         -4.0450   -8.1900   13.5890 C.2   122  ILE122      0.2260
     84  O         -4.9080   -7.7010   14.2950 O.2   122  ILE122     -0.2867
     85  CB        -4.0990   -6.6220   11.5940 C.3   122  ILE122      0.0252
     86  CG1       -4.0190   -6.5410   10.0540 C.3   122  ILE122      0.0019
     87  CG2       -2.9920   -5.8600   12.3060 C.3   122  ILE122      0.0019
     88  CD1       -4.2030   -5.1220    9.5210 C.3   122  ILE122      0.0001
     89  N          1.0080   -4.5400   15.3370 N.3   125  LEU125     -0.1245
     90  CA         1.9270   -3.8290   14.4650 C.3   125  LEU125      0.1561
     91  C          3.3550   -4.0700   14.9480 C.2   125  LEU125      0.2260
     92  O          3.6090   -4.1640   16.1530 O.2   125  LEU125     -0.2867
     93  CB         1.6260   -2.3210   14.4170 C.3   125  LEU125      0.0270
     94  CG         0.6340   -1.8300   13.3520 C.3   125  LEU125      0.0019
     95  CD1       -0.6820   -2.5460   13.4940 C.3   125  LEU125      0.0001
     96  CD2        0.4720   -0.3200   13.4250 C.3   125  LEU125      0.0001
     97  N         11.0120    9.3410   10.4760 N.3   194  PHE194     -0.1241
     98  CA        10.5800    8.5170    9.3730 C.3   194  PHE194      0.1605
     99  C         11.7020    8.2660    8.3470 C.2   194  PHE194      0.2264
    100  O         12.7190    8.9320    8.3880 O.2   194  PHE194     -0.2867
    101  CB         9.4230    9.1470    8.5910 C.3   194  PHE194      0.0534
    102  CG         8.1610    9.4260    9.3720 C.ar  194  PHE194     -0.0203
    103  CD1        7.7520   10.7030    9.5620 C.ar  194  PHE194     -0.0042
    104  CD2        7.4180    8.3790    9.8690 C.ar  194  PHE194     -0.0042
    105  CE1        6.5730   10.9710   10.2320 C.ar  194  PHE194     -0.0003
    106  CE2        6.2650    8.6340   10.5960 C.ar  194  PHE194     -0.0003
    107  CZ         5.8540    9.9400   10.8030 C.ar  194  PHE194     -0.0000
    108  N          7.5360   10.0400    2.7680 N.3   217  ILE217     -0.1245
    109  CA         8.0740    8.9390    3.5630 C.3   217  ILE217      0.1561
    110  C          7.7700    7.6050    2.9020 C.2   217  ILE217      0.2260
    111  O          6.7510    7.4130    2.2390 O.2   217  ILE217     -0.2867
    112  CB         7.4990    8.9570    4.9960 C.3   217  ILE217      0.0252
    113  CG1        5.9980    8.7110    5.0610 C.3   217  ILE217      0.0019
    114  CG2        7.8760   10.2540    5.6870 C.3   217  ILE217      0.0019
    115  CD1        5.4310    8.4610    6.4360 C.3   217  ILE217      0.0001
    116  N          6.4990    4.2360    3.5890 N.3   219  ASP219     -0.1239
    117  CA         5.5800    3.8330    4.6400 C.3   219  ASP219      0.1674
    118  C          4.8230    2.5410    4.2960 C.2   219  ASP219      0.2266
    119  O          3.7790    2.5660    3.6750 O.2   219  ASP219     -0.2867
    120  CB         4.6280    4.9210    5.0420 C.3   219  ASP219      0.1410
    121  CG         3.8040    4.5890    6.2700 C.2   219  ASP219      0.3668
    122  OD1        2.9740    5.4730    6.5800 O.co2 219  ASP219     -0.2456
    123  OD2        3.9970    3.4720    6.8310 O.co2 219  ASP219     -0.2456
    124  N          3.1620    0.7910    6.2410 N.3   221  GLY221     -0.1210
    125  CA         1.9690    0.7580    7.0300 C.3   221  GLY221      0.1956
    126  C          0.7930    1.5470    6.5340 C.2   221  GLY221      0.2612
    127  O         -0.2750    1.5510    7.1630 O.2   221  GLY221     -0.2717
    128  N          0.9290    2.2800    5.4330 N.am  222  THR222     -0.1952
    129  CA        -0.1150    3.0430    4.7650 C.3   222  THR222      0.1897
    130  C         -0.4080    2.3630    3.4410 C.2   222  THR222      0.2313
    131  O          0.4980    2.0000    2.6850 O.2   222  THR222     -0.2863
    132  CB         0.3300    4.5050    4.5420 C.3   222  THR222      0.1794
    133  OG1        0.4340    5.1780    5.8100 O.3   222  THR222     -0.2208
    134  CG2       -0.6900    5.2320    3.7180 C.3   222  THR222      0.0378
    135  N         -0.0980    8.9270   -1.2450 N.3   226  TYR226     -0.1241
    136  CA        -0.6070   10.2630   -0.9250 C.3   226  TYR226      0.1605
    137  C          0.4160   11.3010   -1.4000 C.2   226  TYR226      0.2264
    138  O          1.5440   11.3230   -0.8910 O.2   226  TYR226     -0.2867
    139  CB        -0.9220   10.4430    0.5670 C.3   226  TYR226      0.0534
    140  CG        -2.0370    9.5310    1.0120 C.ar  226  TYR226     -0.0201
    141  CD1       -3.3450    9.9850    0.9420 C.ar  226  TYR226     -0.0009
    142  CD2       -1.7700    8.2380    1.4710 C.ar  226  TYR226     -0.0009
    143  CE1       -4.3640    9.1200    1.3580 C.ar  226  TYR226      0.0417
    144  CE2       -2.7850    7.4070    1.8590 C.ar  226  TYR226      0.0417
    145  CZ        -4.0970    7.8540    1.7950 C.ar  226  TYR226      0.1957
    146  OH        -5.1320    7.0270    2.1820 O.3   226  TYR226     -0.2866
    147  N         -4.5700   17.2260    3.1660 N.3   299  GLY299     -0.1210
    148  CA        -4.8320   17.4470    4.6230 C.3   299  GLY299      0.1956
    149  C         -3.9160   16.7530    5.6160 C.2   299  GLY299      0.2611
    150  O         -4.2280   16.8060    6.8140 O.2   299  GLY299     -0.2717
    151  N         -2.8120   16.1200    5.2430 N.am  300  ILE300     -0.1979
    152  CA        -1.9530   15.2670    6.0400 C.3   300  ILE300      0.1595
    153  C         -0.7130   15.9600    6.5740 C.2   300  ILE300      0.2287
    154  O         -0.3250   15.7090    7.7180 O.2   300  ILE300     -0.2864
    155  CB        -1.4230   14.0600    5.2240 C.3   300  ILE300      0.0276
    156  CG1       -2.5630   13.1800    4.7070 C.3   300  ILE300      0.0022
    157  CG2       -0.3940   13.2260    6.0000 C.3   300  ILE300      0.0022
    158  CD1       -2.0860   12.0170    3.8820 C.3   300  ILE300      0.0001
    159  N          2.2700   15.6410    5.1350 N.3   302  ILE302     -0.1245
    160  CA         3.4140   14.9180    4.6020 C.3   302  ILE302      0.1561
    161  C          2.9460   14.0810    3.4180 C.2   302  ILE302      0.2260
    162  O          1.7940   13.6420    3.3950 O.2   302  ILE302     -0.2867
    163  CB         4.0870   14.0490    5.6790 C.3   302  ILE302      0.0252
    164  CG1        3.1100   13.2680    6.5570 C.3   302  ILE302      0.0019
    165  CG2        5.0160   14.9030    6.5390 C.3   302  ILE302      0.0019
    166  CD1        3.6750   11.9380    7.0120 C.3   302  ILE302      0.0001
    167  N          3.1180   10.5510    1.4310 N.3   304  ILE304     -0.1245
    168  CA         3.3020    9.1900    1.8940 C.3   304  ILE304      0.1561
    169  C          3.3690    8.2240    0.7050 C.2   304  ILE304      0.2260
    170  O          2.3810    8.0570   -0.0070 O.2   304  ILE304     -0.2867
    171  CB         2.1750    8.7530    2.8390 C.3   304  ILE304      0.0252
    172  CG1        1.9640    9.6940    4.0170 C.3   304  ILE304      0.0019
    173  CG2        2.4760    7.3270    3.2960 C.3   304  ILE304      0.0019
    174  CD1        0.8540    9.3190    4.9830 C.3   304  ILE304      0.0001
@<TRIPOS>BOND
     1   137   136    1
     2   137   138    2
     3   135   136    1
     4   136   139    1
     5   170   169    2
     6   139   140    1
     7   169   168    1
     8   141   140   ar
     9   141   143   ar
    10   140   142   ar
    11   143   145   ar
    12   167   168    1
    13   142   144   ar
    14   145   144   ar
    15   145   146    1
    16   168   171    1
    17   111   110    2
    18   131   130    2
    19   108   109    1
    20   171   173    1
    21   171   172    1
    22   110   109    1
    23   147   148    1
    24   162   161    2
    25   161   160    1
    26   130   129    1
    27     1     2    1
    28     4     3    2
    29   109   112    1
    30   116   117    1
    31   119   118    2
    32   134   132    1
    33   158   156    1
    34   172   174    1
    35     3     2    1
    36   118   117    1
    37     2     5    1
    38   132   129    1
    39   132   133    1
    40   160   159    1
    41   160   163    1
    42   148   149    1
    43   117   120    1
    44   156   155    1
    45   129   128    1
    46   112   113    1
    47   112   114    1
    48   120   121    1
    49   113   115    1
    50   155   157    1
    51   155   152    1
    52   151   149   am
    53   151   152    1
    54   128   126   am
    55   149   150    2
    56   163   165    1
    57   163   164    1
    58   152   153    1
    59   124   125    1
    60   121   122   ar
    61   121   123   ar
    62   126   125    1
    63   126   127    2
    64   164   166    1
    65   153   154    2
    66    12    11   ar
    67    99   100    2
    68    99    98    1
    69   101   102    1
    70   101    98    1
    71    13    11   ar
    72    22    23    1
    73    11    10    1
    74   102   103   ar
    75   102   104   ar
    76    98    97    1
    77    23    24    1
    78    20    19   ar
    79    88    86    1
    80   103   105   ar
    81    15    16    1
    82    15    14    1
    83    15    18    1
    84    16    17    2
    85    79    78   ar
    86   104   106   ar
    87    86    85    1
    88    80    78   ar
    89    46    43    1
    90    46    47    1
    91     7    10    1
    92     7     8    1
    93     7     6    1
    94   105   107   ar
    95    78    77    1
    96     8     9    2
    97    41    40    2
    98    19    18    1
    99    19    21   ar
   100   106   107   ar
   101    49    47   ar
   102    43    42    1
   103    43    44    1
   104    40    42   am
   105    40    39    1
   106    24    25    2
   107    47    48   ar
   108    77    74    1
   109    39    38    1
   110    74    75    1
   111    74    73    1
   112    81    82    1
   113    85    82    1
   114    85    87    1
   115    38    28   am
   116    75    76    2
   117    82    83    1
   118    44    45    2
   119    61    60    1
   120    59    58    2
   121    60    57    1
   122    28    29    2
   123    28    27    1
   124    30    27    1
   125    30    31    1
   126    94    96    1
   127    94    95    1
   128    94    93    1
   129    57    58    1
   130    57    56    1
   131    58    62   am
   132    83    84    2
   133    70    68   ar
   134    70    72   ar
   135    33    31   ar
   136    33    35   ar
   137    27    26    1
   138    55    54    1
   139    31    32   ar
   140    68    67   ar
   141    72    71   ar
   142    54    51    1
   143    93    90    1
   144    35    36   ar
   145    90    91    1
   146    90    89    1
   147    50    51    1
   148    32    34   ar
   149    62    63    1
   150    65    64    2
   151    63    64    1
   152    63    66    1
   153    91    92    2
   154    36    34   ar
   155    36    37    1
   156    51    52    1
   157    67    66    1
   158    67    69   ar
   159    71    69   ar
   160    53    52    2
