@<TRIPOS>MOLECULE
tmp/3pt1A00.pdb
 150 144 0 0 0
SMALL
GASTEIGER

@<TRIPOS>ATOM
      1  N          8.4500  -10.5530  -27.1200 N.3    14  PHE14      -0.1241
      2  CA         7.8130  -10.4450  -25.8110 C.3    14  PHE14       0.1605
      3  C          6.5480  -11.3020  -25.7920 C.2    14  PHE14       0.2264
      4  O          6.1690  -11.8420  -24.7580 O.2    14  PHE14      -0.2867
      5  CB         7.5080   -8.9750  -25.4700 C.3    14  PHE14       0.0534
      6  CG         6.8070   -8.7840  -24.1440 C.ar   14  PHE14      -0.0203
      7  CD1        7.4670   -9.0340  -22.9480 C.ar   14  PHE14      -0.0042
      8  CD2        5.4910   -8.3530  -24.0970 C.ar   14  PHE14      -0.0042
      9  CE1        6.8220   -8.8600  -21.7300 C.ar   14  PHE14      -0.0003
     10  CE2        4.8410   -8.1780  -22.8840 C.ar   14  PHE14      -0.0003
     11  CZ         5.5100   -8.4290  -21.7000 C.ar   14  PHE14      -0.0000
     12  N          5.6090  -13.9340  -23.0710 N.3    18  THR18      -0.1218
     13  CA         4.3240  -13.8200  -22.3850 C.3    18  THR18       0.1862
     14  C          3.6250  -15.1680  -22.3480 C.2    18  THR18       0.2287
     15  O          3.1220  -15.5890  -21.3040 O.2    18  THR18      -0.2866
     16  CB         3.4060  -12.7950  -23.0870 C.3    18  THR18       0.1770
     17  OG1        3.9070  -11.4730  -22.8500 O.3    18  THR18      -0.2211
     18  CG2        1.9710  -12.8960  -22.5760 C.3    18  THR18       0.0375
     19  N          4.6270  -15.7560  -18.6800 N.3    22  ARG22      -0.1231
     20  CA         3.6700  -14.9120  -17.9620 C.3    22  ARG22       0.1694
     21  C          2.2880  -15.5480  -17.7650 C.2    22  ARG22       0.2592
     22  O          1.6910  -15.4230  -16.6930 O.2    22  ARG22      -0.2718
     23  CB         3.5500  -13.5380  -18.6360 C.3    22  ARG22       0.0321
     24  CG         4.8810  -12.7900  -18.7120 C.3    22  ARG22       0.0489
     25  CD         4.7250  -11.3650  -19.2610 C.3    22  ARG22       0.2205
     26  NE         3.6900  -10.6360  -18.5380 N.pl3  22  ARG22      -0.0865
     27  CZ         2.5410  -10.2510  -19.0830 C.cat  22  ARG22       0.5346
     28  NH1        1.6440   -9.6150  -18.3510 N.pl3  22  ARG22       0.1354
     29  NH2        2.2940  -10.4980  -20.3640 N.pl3  22  ARG22       0.1354
     30  N          1.7650  -16.2130  -18.7890 N.am   23  TRP23      -0.1976
     31  CA         0.4430  -16.8110  -18.6540 C.3    23  TRP23       0.1640
     32  C          0.3730  -17.8420  -17.5130 C.2    23  TRP23       0.2290
     33  O         -0.5760  -17.8250  -16.7330 O.2    23  TRP23      -0.2864
     34  CB        -0.0740  -17.3700  -19.9920 C.3    23  TRP23       0.0576
     35  CG        -0.4450  -16.2520  -20.9630 C.ar   23  TRP23       0.0006
     36  CD1       -0.6350  -14.9300  -20.6530 C.ar   23  TRP23       0.0946
     37  CD2       -0.6470  -16.3680  -22.3740 C.ar   23  TRP23       0.0152
     38  NE1       -0.9450  -14.2150  -21.7930 N.ar   23  TRP23      -0.2442
     39  CE2       -0.9700  -15.0800  -22.8600 C.ar   23  TRP23       0.0810
     40  CE3       -0.6000  -17.4400  -23.2800 C.ar   23  TRP23       0.0012
     41  CZ2       -1.2240  -14.8320  -24.2110 C.ar   23  TRP23       0.0191
     42  CZ3       -0.8590  -17.1950  -24.6180 C.ar   23  TRP23       0.0001
     43  CH2       -1.1740  -15.9020  -25.0730 C.ar   23  TRP23       0.0015
     44  N         -0.9200  -14.6300  -31.0200 N.3   105  TRP105     -0.1241
     45  CA        -0.8680  -14.1240  -29.6560 C.3   105  TRP105      0.1605
     46  C         -2.1950  -13.4620  -29.2680 C.2   105  TRP105      0.2264
     47  O         -2.7090  -13.6890  -28.1750 O.2   105  TRP105     -0.2867
     48  CB         0.2970  -13.1430  -29.5400 C.3   105  TRP105      0.0550
     49  CG         0.4850  -12.4770  -28.1970 C.ar  105  TRP105      0.0003
     50  CD1       -0.1300  -12.7810  -27.0190 C.ar  105  TRP105      0.0946
     51  CD2        1.3680  -11.3850  -27.9220 C.ar  105  TRP105      0.0152
     52  NE1        0.3250  -11.9410  -26.0190 N.ar  105  TRP105     -0.2442
     53  CE2        1.2430  -11.0760  -26.5530 C.ar  105  TRP105      0.0810
     54  CE3        2.2560  -10.6430  -28.7040 C.ar  105  TRP105      0.0012
     55  CZ2        1.9670  -10.0510  -25.9530 C.ar  105  TRP105      0.0191
     56  CZ3        2.9700   -9.6230  -28.1110 C.ar  105  TRP105      0.0001
     57  CH2        2.8260   -9.3370  -26.7470 C.ar  105  TRP105      0.0015
     58  N         -4.5760  -15.0180  -26.3140 N.3   109  GLU109     -0.1245
     59  CA        -4.7040  -14.2760  -25.0640 C.3   109  GLU109      0.1567
     60  C         -6.1690  -14.0370  -24.7080 C.2   109  GLU109      0.2260
     61  O         -6.5630  -14.1580  -23.5510 O.2   109  GLU109     -0.2867
     62  CB        -3.9450  -12.9450  -25.0940 C.3   109  GLU109      0.0388
     63  CG        -3.7430  -12.3990  -23.6730 C.3   109  GLU109      0.1160
     64  CD        -2.5120  -11.5240  -23.5230 C.2   109  GLU109      0.3649
     65  OE1       -2.0270  -10.9720  -24.5260 O.co2 109  GLU109     -0.2457
     66  OE2       -2.0160  -11.4060  -22.3850 O.co2 109  GLU109     -0.2457
     67  N         -9.3690    0.6110  -20.5350 N.3   247  ASP247     -0.1225
     68  CA        -8.3640   -0.4100  -20.2500 C.3   247  ASP247      0.1805
     69  C         -8.5070   -0.8410  -18.7970 C.2   247  ASP247      0.2597
     70  O         -9.4550   -1.5580  -18.4590 O.2   247  ASP247     -0.2718
     71  CB        -6.9570    0.1080  -20.5550 C.3   247  ASP247      0.1424
     72  CG        -5.9090   -0.9740  -20.4530 C.2   247  ASP247      0.3668
     73  OD1       -6.2910   -2.1340  -20.2440 O.co2 247  ASP247     -0.2456
     74  OD2       -4.7110   -0.6740  -20.6210 O.co2 247  ASP247     -0.2456
     75  N         -7.5950   -0.3920  -17.9390 N.am  248  ASN248     -0.1974
     76  CA        -7.5450   -0.9010  -16.5540 C.3   248  ASN248      0.1688
     77  C         -8.4430   -0.1760  -15.5570 C.2   248  ASN248      0.2292
     78  O         -8.7550    1.0160  -15.7120 O.2   248  ASN248     -0.2864
     79  CB        -6.1120   -0.8880  -16.0140 C.3   248  ASN248      0.1181
     80  CG        -5.2200   -1.9030  -16.6910 C.2   248  ASN248      0.2629
     81  OD1       -5.6960   -2.8080  -17.3530 O.2   248  ASN248     -0.2716
     82  ND2       -3.9150   -1.7710  -16.4950 N.am  248  ASN248     -0.0877
     83  N         -8.7600   -5.3280  -16.4650 N.3   283  ASP283     -0.1239
     84  CA        -9.6130   -4.4950  -17.3130 C.3   283  ASP283      0.1674
     85  C        -10.9810   -4.1530  -16.7210 C.2   283  ASP283      0.2266
     86  O        -11.6660   -4.9980  -16.1340 O.2   283  ASP283     -0.2867
     87  CB        -9.7280   -5.0960  -18.7220 C.3   283  ASP283      0.1410
     88  CG        -8.4560   -4.9150  -19.5120 C.2   283  ASP283      0.3668
     89  OD1       -7.4440   -4.6090  -18.8700 O.co2 283  ASP283     -0.2456
     90  OD2       -8.4520   -5.0470  -20.7570 O.co2 283  ASP283     -0.2456
     91  N         -4.7420    2.2780  -23.7930 N.3   372  GLY372     -0.1210
     92  CA        -3.8260    1.2230  -23.3830 C.3   372  GLY372      0.1956
     93  C         -3.3690    0.2730  -24.4720 C.2   372  GLY372      0.2612
     94  O         -3.7240    0.4120  -25.6440 O.2   372  GLY372     -0.2717
     95  N         -2.6000   -0.7300  -24.0630 N.am  373  ASP373     -0.1959
     96  CA        -1.8630   -1.5580  -25.0120 C.3   373  ASP373      0.1840
     97  C         -2.7260   -2.5360  -25.8020 C.2   373  ASP373      0.2622
     98  O         -2.5820   -2.6460  -27.0350 O.2   373  ASP373     -0.2715
     99  CB        -0.7250   -2.2940  -24.2950 C.3   373  ASP373      0.1450
    100  CG         0.1750   -3.0250  -25.2570 C.2   373  ASP373      0.3671
    101  OD1        1.0950   -2.3850  -25.8050 O.co2 373  ASP373     -0.2456
    102  OD2       -0.0660   -4.2330  -25.4890 O.co2 373  ASP373     -0.2456
    103  N         -3.6050   -3.2640  -25.1200 N.am  374  LEU374     -0.1963
    104  CA        -4.4280   -4.2330  -25.8400 C.3   374  LEU374      0.1728
    105  C         -5.3060   -3.5370  -26.8790 C.2   374  LEU374      0.2616
    106  O         -5.4740   -4.0320  -27.9900 O.2   374  LEU374     -0.2715
    107  CB        -5.2910   -5.0520  -24.8840 C.3   374  LEU374      0.0311
    108  CG        -6.1720   -6.0860  -25.5890 C.3   374  LEU374      0.0022
    109  CD1       -5.3140   -7.0700  -26.4160 C.3   374  LEU374      0.0001
    110  CD2       -7.0290   -6.8340  -24.5610 C.3   374  LEU374      0.0001
    111  N         -5.8830   -2.3860  -26.5320 N.am  375  ASN375     -0.1972
    112  CA        -6.6800   -1.6890  -27.5360 C.3   375  ASN375      0.1688
    113  C         -5.8330   -1.2960  -28.7450 C.2   375  ASN375      0.2292
    114  O         -6.3050   -1.3320  -29.8890 O.2   375  ASN375     -0.2864
    115  CB        -7.4020   -0.4640  -26.9450 C.3   375  ASN375      0.1181
    116  CG        -8.5960   -0.8460  -26.0760 C.2   375  ASN375      0.2629
    117  OD1       -8.8100   -0.2720  -24.9970 O.2   375  ASN375     -0.2716
    118  ND2       -9.3810   -1.8060  -26.5390 N.am  375  ASN375     -0.0877
    119  N         -3.1280   -2.8990  -29.7770 N.3   377  ARG377     -0.1245
    120  CA        -2.9130   -4.1610  -30.4900 C.3   377  ARG377      0.1563
    121  C         -4.0940   -4.4510  -31.4060 C.2   377  ARG377      0.2260
    122  O         -3.9030   -4.8330  -32.5740 O.2   377  ARG377     -0.2867
    123  CB        -2.6840   -5.3120  -29.4950 C.3   377  ARG377      0.0307
    124  CG        -1.3570   -5.2060  -28.7170 C.3   377  ARG377      0.0489
    125  CD        -1.2200   -6.2830  -27.6340 C.3   377  ARG377      0.2205
    126  NE        -1.2310   -7.6310  -28.2200 N.pl3 377  ARG377     -0.0865
    127  CZ        -1.4760   -8.7480  -27.5360 C.cat 377  ARG377      0.5346
    128  NH1       -1.7370   -8.6840  -26.2310 N.pl3 377  ARG377      0.1354
    129  NH2       -1.4740   -9.9280  -28.1670 N.pl3 377  ARG377      0.1354
    130  N          0.5310    3.1920  -23.6090 N.3   410  THR410     -0.1218
    131  CA         1.8300    2.9060  -23.0310 C.3   410  THR410      0.1862
    132  C          2.3140    1.6590  -23.7740 C.2   410  THR410      0.2287
    133  O          1.5580    0.7020  -23.9310 O.2   410  THR410     -0.2866
    134  CB         1.7300    2.6260  -21.5100 C.3   410  THR410      0.1770
    135  OG1        1.2380    3.8050  -20.8400 O.3   410  THR410     -0.2211
    136  CG2        3.0890    2.2830  -20.9590 C.3   410  THR410      0.0375
    137  N          3.5930   -1.6840  -24.5170 N.3   412  LYS412     -0.1231
    138  CA         3.7910   -2.9110  -23.7240 C.3   412  LYS412      0.1693
    139  C          3.6530   -4.1770  -24.5670 C.2   412  LYS412      0.2591
    140  O          3.1850   -5.2060  -24.0860 O.2   412  LYS412     -0.2718
    141  CB         2.7890   -2.9640  -22.5590 C.3   412  LYS412      0.0285
    142  CG         2.9240   -1.8040  -21.5640 C.3   412  LYS412      0.0035
    143  CD         1.8860   -1.9540  -20.4460 C.3   412  LYS412      0.0206
    144  CE         1.9920   -0.8270  -19.4250 C.3   412  LYS412      0.1093
    145  NZ         1.1760   -1.0860  -18.1960 N.3   412  LYS412     -0.1314
    146  N          4.0320   -4.0980  -25.8360 N.am  413  ALA413     -0.1980
    147  CA         3.9710   -5.2900  -26.6930 C.3   413  ALA413      0.1597
    148  C          4.8270   -5.0810  -27.9370 C.2   413  ALA413      0.2287
    149  O          5.2060   -3.9690  -28.2420 O.2   413  ALA413     -0.2864
    150  CB         2.5330   -5.6030  -27.0650 C.3   413  ALA413      0.0319
@<TRIPOS>BOND
     1   122   121    2
     2   121   120    1
     3    44    45    1
     4   120   119    1
     5   120   123    1
     6   114   113    2
     7    45    48    1
     8    45    46    1
     9    48    49    1
    10   123   124    1
    11    46    47    2
    12   113   112    1
    13   124   125    1
    14    54    56   ar
    15    54    51   ar
    16   149   148    2
    17   126   125    1
    18   126   127    2
    19    49    51   ar
    20    49    50   ar
    21   129   127    1
    22    56    57   ar
    23   106   105    2
    24   148   147    1
    25    51    53   ar
    26   112   115    1
    27   112   111    1
    28   127   128    1
    29     1     2    1
    30   150   147    1
    31    98    97    2
    32    50    52   ar
    33   115   116    1
    34   105   111   am
    35   105   104    1
    36    57    55   ar
    37   147   146    1
    38    53    52   ar
    39    53    55   ar
    40   118   116   am
    41   109   108    1
    42    58    59    1
    43   116   117    2
    44   104   103    1
    45   104   107    1
    46   146   139   am
    47     2     3    1
    48     2     5    1
    49   101   100   ar
    50    97   103   am
    51    97    96    1
    52     3     4    2
    53    94    93    2
    54   108   107    1
    55   108   110    1
    56   102   100   ar
    57     5     6    1
    58   100    99    1
    59    62    59    1
    60    62    63    1
    61    43    42   ar
    62    43    41   ar
    63    59    60    1
    64    96    99    1
    65    96    95    1
    66    60    61    2
    67    42    40   ar
    68   139   140    2
    69   139   138    1
    70    65    64   ar
    71   137   138    1
    72    93    95   am
    73    93    92    1
    74    41    39   ar
    75     6     8   ar
    76     6     7   ar
    77     8    10   ar
    78   133   132    2
    79    91    92    1
    80   132   131    1
    81   138   141    1
    82    63    64    1
    83   130   131    1
    84    64    66   ar
    85    40    37   ar
    86    16    17    1
    87    16    18    1
    88    16    13    1
    89    12    13    1
    90   131   134    1
    91     7     9   ar
    92    10    11   ar
    93    39    37   ar
    94    39    38   ar
    95   141   142    1
    96    13    14    1
    97    37    35   ar
    98    14    15    2
    99    38    36   ar
   100     9    11   ar
   101   142   143    1
   102   134   136    1
   103   134   135    1
   104    35    36   ar
   105    35    34    1
   106    90    88   ar
   107    74    72   ar
   108    71    72    1
   109    71    68    1
   110    67    68    1
   111    72    73   ar
   112   143   144    1
   113    29    27    1
   114    68    69    1
   115    34    31    1
   116    88    89   ar
   117    88    87    1
   118   144   145    1
   119    25    24    1
   120    25    26    1
   121    27    26    2
   122    27    28    1
   123    69    70    2
   124    69    75   am
   125    30    31    1
   126    30    21   am
   127    87    84    1
   128    24    23    1
   129    19    20    1
   130    31    32    1
   131    23    20    1
   132    20    21    1
   133    75    76    1
   134    21    22    2
   135    32    33    2
   136    81    80    2
   137    84    85    1
   138    84    83    1
   139    85    86    2
   140    80    82   am
   141    80    79    1
   142    76    79    1
   143    76    77    1
   144    78    77    2
