@<TRIPOS>MOLECULE
tmp/3pt6F00.pdb
 183 175 0 0 0
SMALL
GASTEIGER

@<TRIPOS>ATOM
      1  N        -31.6360  -17.1860   -3.9780 N.3     2  MET2       -0.1245
      2  CA       -31.1640  -18.5680   -4.0400 C.3     2  MET2        0.1570
      3  C        -29.6800  -18.6180   -3.6780 C.2     2  MET2        0.2261
      4  O        -28.8470  -18.0300   -4.3670 O.2     2  MET2       -0.2867
      5  CB       -31.4140  -19.1570   -5.4350 C.3     2  MET2        0.0387
      6  CG       -31.0970  -18.1890   -6.5810 C.3     2  MET2        0.0595
      7  SD       -31.7800  -18.6510   -8.1980 S.3     2  MET2       -0.1393
      8  CE       -30.8540  -20.1420   -8.5940 C.3     2  MET2        0.0692
      9  N        -41.7040  -18.6440  -22.3270 N.3   461  ASP461     -0.1239
     10  CA       -40.5180  -19.4520  -22.0530 C.3   461  ASP461      0.1674
     11  C        -40.1930  -19.5390  -20.5610 C.2   461  ASP461      0.2266
     12  O        -39.6580  -18.6010  -19.9750 O.2   461  ASP461     -0.2867
     13  CB       -39.3090  -18.9280  -22.8310 C.3   461  ASP461      0.1410
     14  CG       -38.0960  -19.8530  -22.7190 C.2   461  ASP461      0.3668
     15  OD1      -37.8130  -20.3440  -21.6010 O.co2 461  ASP461     -0.2456
     16  OD2      -37.4280  -20.1040  -23.7500 O.co2 461  ASP461     -0.2456
     17  N        -38.2630  -21.1290  -17.1950 N.3   463  PHE463     -0.1227
     18  CA       -36.8630  -21.4750  -16.9550 C.3   463  PHE463      0.1736
     19  C        -36.0380  -21.1310  -18.1820 C.2   463  PHE463      0.2596
     20  O        -35.3700  -21.9910  -18.7540 O.2   463  PHE463     -0.2718
     21  CB       -36.7220  -22.9630  -16.6680 C.3   463  PHE463      0.0547
     22  CG       -37.8210  -23.5170  -15.8240 C.ar  463  PHE463     -0.0202
     23  CD1      -37.8410  -23.2860  -14.4610 C.ar  463  PHE463     -0.0042
     24  CD2      -38.8320  -24.2690  -16.3900 C.ar  463  PHE463     -0.0042
     25  CE1      -38.8460  -23.7930  -13.6780 C.ar  463  PHE463     -0.0003
     26  CE2      -39.8430  -24.7790  -15.6130 C.ar  463  PHE463     -0.0003
     27  CZ       -39.8500  -24.5410  -14.2540 C.ar  463  PHE463     -0.0000
     28  N        -36.0930  -19.8690  -18.5860 N.am  464  SER464     -0.1938
     29  CA       -35.5360  -19.4530  -19.8630 C.3   464  SER464      0.2055
     30  C        -34.0250  -19.3790  -19.8400 C.2   464  SER464      0.2644
     31  O        -33.3760  -19.5440  -20.8690 O.2   464  SER464     -0.2714
     32  CB       -36.1050  -18.0940  -20.2640 C.3   464  SER464      0.2130
     33  OG       -35.8390  -17.1270  -19.2650 O.3   464  SER464     -0.2179
     34  N        -33.4630  -19.1320  -18.6660 N.am  465  GLY465     -0.1939
     35  CA       -32.0510  -18.8270  -18.5830 C.3   465  GLY465      0.2014
     36  C        -31.7780  -17.6210  -19.4570 C.2   465  GLY465      0.2639
     37  O        -32.6600  -16.7910  -19.6560 O.2   465  GLY465     -0.2714
     38  N        -30.5710  -17.5160  -19.9970 N.am  466  CYS466     -0.1953
     39  CA       -30.2470  -16.3730  -20.8390 C.3   466  CYS466      0.1843
     40  C        -30.9270  -16.5060  -22.1940 C.2   466  CYS466      0.2626
     41  O        -30.8290  -15.6160  -23.0290 O.2   466  CYS466     -0.2714
     42  CB       -28.7360  -16.2280  -21.0060 C.3   466  CYS466      0.0997
     43  SG       -28.0030  -17.4520  -22.0970 S.3   466  CYS466     -0.0797
     44  N        -31.5970  -17.6320  -22.4150 N.am  467  GLY467     -0.1940
     45  CA       -32.4830  -17.7840  -23.5600 C.3   467  GLY467      0.2014
     46  C        -31.9500  -18.4390  -24.8290 C.2   467  GLY467      0.2639
     47  O        -32.3100  -18.0330  -25.9370 O.2   467  GLY467     -0.2714
     48  N        -31.1160  -19.4630  -24.6720 N.am  468  GLY468     -0.1939
     49  CA       -30.5850  -20.2060  -25.8020 C.3   468  GLY468      0.2014
     50  C        -31.6510  -20.8780  -26.6510 C.2   468  GLY468      0.2638
     51  O        -31.5890  -20.8570  -27.8840 O.2   468  GLY468     -0.2714
     52  N        -32.6300  -21.4810  -25.9860 N.am  469  LEU469     -0.1977
     53  CA       -33.7230  -22.1630  -26.6660 C.3   469  LEU469      0.1596
     54  C        -34.5420  -21.1920  -27.4950 C.2   469  LEU469      0.2287
     55  O        -34.8220  -21.4470  -28.6660 O.2   469  LEU469     -0.2864
     56  CB       -34.6100  -22.8770  -25.6390 C.3   469  LEU469      0.0297
     57  CG       -35.9710  -23.5090  -25.9590 C.3   469  LEU469      0.0022
     58  CD1      -35.9120  -24.4080  -27.1750 C.3   469  LEU469      0.0001
     59  CD2      -36.4360  -24.2990  -24.7440 C.3   469  LEU469      0.0001
     60  N        -39.8300  -16.5290  -17.8020 N.3   485  ILE485     -0.1231
     61  CA       -39.6800  -16.5980  -16.3630 C.3   485  ILE485      0.1692
     62  C        -38.3140  -17.1650  -16.0360 C.2   485  ILE485      0.2592
     63  O        -37.9550  -18.2370  -16.5000 O.2   485  ILE485     -0.2718
     64  CB       -40.7640  -17.4770  -15.7450 C.3   485  ILE485      0.0266
     65  CG1      -42.1380  -16.9750  -16.1770 C.3   485  ILE485      0.0019
     66  CG2      -40.6400  -17.4840  -14.2470 C.3   485  ILE485      0.0020
     67  CD1      -43.2770  -17.7600  -15.6260 C.3   485  ILE485      0.0001
     68  N        -37.5450  -16.4270  -15.2520 N.am  486  GLU486     -0.1966
     69  CA       -36.2200  -16.8590  -14.8650 C.3   486  GLU486      0.1733
     70  C        -35.9130  -16.3150  -13.4780 C.2   486  GLU486      0.2616
     71  O        -35.8440  -15.1100  -13.2790 O.2   486  GLU486     -0.2715
     72  CB       -35.1910  -16.3840  -15.8830 C.3   486  GLU486      0.0429
     73  CG       -33.7570  -16.6170  -15.4610 C.3   486  GLU486      0.1163
     74  CD       -33.4420  -18.0740  -15.1770 C.2   486  GLU486      0.3649
     75  OE1      -33.8450  -18.9530  -15.9680 O.co2 486  GLU486     -0.2457
     76  OE2      -32.7820  -18.3380  -14.1560 O.co2 486  GLU486     -0.2457
     77  N        -35.7430  -17.2130  -12.5130 N.am  487  MET487     -0.1963
     78  CA       -35.5730  -16.8150  -11.1240 C.3   487  MET487      0.1736
     79  C        -34.2170  -16.1480  -10.8570 C.2   487  MET487      0.2616
     80  O        -34.1120  -15.2860   -9.9880 O.2   487  MET487     -0.2715
     81  CB       -35.7910  -18.0110  -10.1900 C.3   487  MET487      0.0427
     82  CG       -36.0420  -17.6270   -8.7250 C.3   487  MET487      0.0599
     83  SD       -36.2470  -19.0350   -7.5920 S.3   487  MET487     -0.1393
     84  CE       -36.3700  -18.2070   -6.0010 C.3   487  MET487      0.0692
     85  N        -33.1900  -16.5340  -11.6100 N.am  488  TRP488     -0.1974
     86  CA       -31.8250  -16.0430  -11.3850 C.3   488  TRP488      0.1640
     87  C        -31.6080  -14.7060  -12.0830 C.2   488  TRP488      0.2290
     88  O        -31.5900  -14.6490  -13.3080 O.2   488  TRP488     -0.2864
     89  CB       -30.8220  -17.0700  -11.9120 C.3   488  TRP488      0.0576
     90  CG       -29.4000  -16.8500  -11.5020 C.ar  488  TRP488      0.0006
     91  CD1      -28.9490  -16.4000  -10.2970 C.ar  488  TRP488      0.0946
     92  CD2      -28.2390  -17.0800  -12.3030 C.ar  488  TRP488      0.0152
     93  NE1      -27.5750  -16.3370  -10.2960 N.ar  488  TRP488     -0.2442
     94  CE2      -27.1160  -16.7460  -11.5200 C.ar  488  TRP488      0.0810
     95  CE3      -28.0380  -17.5290  -13.6130 C.ar  488  TRP488      0.0012
     96  CZ2      -25.8130  -16.8490  -12.0020 C.ar  488  TRP488      0.0191
     97  CZ3      -26.7450  -17.6310  -14.0890 C.ar  488  TRP488      0.0001
     98  CH2      -25.6480  -17.2940  -13.2850 C.ar  488  TRP488      0.0015
     99  N        -29.2340  -14.1600  -15.2810 N.3   491  ALA491     -0.1245
    100  CA       -29.7780  -14.8190  -16.4550 C.3   491  ALA491      0.1562
    101  C        -30.9290  -13.9970  -16.9870 C.2   491  ALA491      0.2260
    102  O        -30.9830  -13.6840  -18.1690 O.2   491  ALA491     -0.2867
    103  CB       -30.2510  -16.2000  -16.1140 C.3   491  ALA491      0.0290
    104  N        -39.1200  -14.0390  -11.2300 N.3   507  GLU507     -0.1231
    105  CA       -39.7340  -14.5390  -10.0070 C.3   507  GLU507      0.1699
    106  C        -39.7420  -16.0610   -9.9960 C.2   507  GLU507      0.2592
    107  O        -39.3090  -16.6950  -10.9620 O.2   507  GLU507     -0.2718
    108  CB       -41.1700  -14.0360   -9.9030 C.3   507  GLU507      0.0402
    109  CG       -41.7170  -14.0630   -8.4970 C.3   507  GLU507      0.1161
    110  CD       -41.2040  -12.9040   -7.6640 C.2   507  GLU507      0.3649
    111  OE1      -40.9270  -11.8330   -8.2550 O.co2 507  GLU507     -0.2457
    112  OE2      -41.0770  -13.0640   -6.4260 O.co2 507  GLU507     -0.2457
    113  N        -40.2320  -16.6520   -8.9090 N.am  508  ASP508     -0.1960
    114  CA       -40.4440  -18.0980   -8.8770 C.3   508  ASP508      0.1840
    115  C        -41.7500  -18.4350   -9.6000 C.2   508  ASP508      0.2622
    116  O        -42.7850  -17.8070   -9.3620 O.2   508  ASP508     -0.2715
    117  CB       -40.4680  -18.6220   -7.4410 C.3   508  ASP508      0.1450
    118  CG       -40.6390  -20.1270   -7.3750 C.2   508  ASP508      0.3671
    119  OD1      -41.7940  -20.5980   -7.2540 O.co2 508  ASP508     -0.2456
    120  OD2      -39.6160  -20.8390   -7.4500 O.co2 508  ASP508     -0.2456
    121  N        -41.6940  -19.4200  -10.4900 N.am  509  CYS509     -0.1968
    122  CA       -42.8210  -19.7230  -11.3620 C.3   509  CYS509      0.1712
    123  C        -44.0760  -20.1140  -10.5970 C.2   509  CYS509      0.2296
    124  O        -45.1910  -19.8650  -11.0570 O.2   509  CYS509     -0.2864
    125  CB       -42.4400  -20.8350  -12.3280 C.3   509  CYS509      0.0983
    126  SG       -41.5700  -22.1880  -11.5260 S.3   509  CYS509     -0.0798
    127  N        -37.1050  -25.5910  -19.4120 N.3   541  GLY541     -0.1225
    128  CA       -36.0350  -26.5120  -19.0950 C.3   541  GLY541      0.1811
    129  C        -35.9700  -26.7180  -17.5970 C.2   541  GLY541      0.2280
    130  O        -34.9360  -26.4660  -16.9740 O.2   541  GLY541     -0.2866
    131  N        -35.2380  -27.7660  -14.1250 N.3   543  PRO543     -0.2116
    132  CA       -34.1430  -28.5660  -13.5560 C.3   543  PRO543      0.1372
    133  C        -34.6170  -29.7130  -12.6570 C.2   543  PRO543      0.2244
    134  O        -35.4180  -29.4890  -11.7520 O.2   543  PRO543     -0.2868
    135  CB       -33.3600  -27.5460  -12.7290 C.3   543  PRO543      0.0268
    136  CG       -34.3500  -26.4860  -12.4030 C.3   543  PRO543      0.0207
    137  CD       -35.2540  -26.3930  -13.5950 C.3   543  PRO543      0.0892
    138  N        -40.4190  -28.5580  -10.0040 N.3   565  LEU565     -0.1245
    139  CA       -40.5610  -27.5830  -11.0680 C.3   565  LEU565      0.1561
    140  C        -41.0220  -28.2400  -12.3590 C.2   565  LEU565      0.2260
    141  O        -41.6070  -27.5830  -13.2140 O.2   565  LEU565     -0.2867
    142  CB       -39.2300  -26.8780  -11.3060 C.3   565  LEU565      0.0270
    143  CG       -38.5310  -26.3670  -10.0500 C.3   565  LEU565      0.0019
    144  CD1      -37.1350  -25.8920  -10.3920 C.3   565  LEU565      0.0001
    145  CD2      -39.3340  -25.2600   -9.4060 C.3   565  LEU565      0.0001
    146  N        -37.7320  -29.5700  -22.3580 N.3   584  GLU584     -0.1245
    147  CA       -36.3940  -30.0470  -22.6850 C.3   584  GLU584      0.1567
    148  C        -35.5890  -30.2380  -21.4070 C.2   584  GLU584      0.2260
    149  O        -35.6810  -29.4320  -20.4810 O.2   584  GLU584     -0.2867
    150  CB       -35.6890  -29.0590  -23.6100 C.3   584  GLU584      0.0388
    151  CG       -34.8840  -27.9990  -22.8830 C.3   584  GLU584      0.1160
    152  CD       -33.4920  -28.4790  -22.5030 C.2   584  GLU584      0.3649
    153  OE1      -32.8290  -27.8500  -21.6370 O.co2 584  GLU584     -0.2457
    154  OE2      -33.0600  -29.4920  -23.0890 O.co2 584  GLU584     -0.2457
    155  N        -24.6080  -19.0510  -17.5210 N.3   892  GLN892     -0.1245
    156  CA       -25.6890  -18.8270  -18.4770 C.3   892  GLN892      0.1566
    157  C        -25.4050  -19.5530  -19.7780 C.2   892  GLN892      0.2260
    158  O        -26.2980  -20.1180  -20.3980 O.2   892  GLN892     -0.2867
    159  CB       -25.8340  -17.3460  -18.7950 C.3   892  GLN892      0.0367
    160  CG       -25.9750  -16.4450  -17.5990 C.3   892  GLN892      0.0905
    161  CD       -25.6920  -14.9890  -17.9330 C.2   892  GLN892      0.2608
    162  OE1      -25.4560  -14.6290  -19.0900 O.2   892  GLN892     -0.2717
    163  NE2      -25.7020  -14.1460  -16.9130 N.am  892  GLN892     -0.0878
    164  N        -25.4500  -23.4190  -19.2070 N.3   895  ASN895     -0.1225
    165  CA       -26.7790  -23.9630  -18.9280 C.3   895  ASN895      0.1785
    166  C        -27.7180  -23.9730  -20.1270 C.2   895  ASN895      0.2597
    167  O        -28.7150  -24.6880  -20.1380 O.2   895  ASN895     -0.2718
    168  CB       -27.4560  -23.2020  -17.7780 C.3   895  ASN895      0.1169
    169  CG       -27.0280  -23.6950  -16.3980 C.2   895  ASN895      0.2627
    170  OD1      -26.7410  -24.8810  -16.2020 O.2   895  ASN895     -0.2716
    171  ND2      -26.9920  -22.7780  -15.4310 N.am  895  ASN895     -0.0877
    172  N        -27.4050  -23.1720  -21.1330 N.am  896  ALA896     -0.1966
    173  CA       -28.3500  -22.9200  -22.2090 C.3   896  ALA896      0.1728
    174  C        -28.5010  -24.0810  -23.1800 C.2   896  ALA896      0.2616
    175  O        -27.5990  -24.8930  -23.3370 O.2   896  ALA896     -0.2715
    176  CB       -27.9570  -21.6630  -22.9620 C.3   896  ALA896      0.0334
    177  N        -29.6490  -24.1470  -23.8390 N.am  897  VAL897     -0.1977
    178  CA       -29.8120  -25.0360  -24.9750 C.3   897  VAL897      0.1596
    179  C        -29.0980  -24.4430  -26.1900 C.2   897  VAL897      0.2287
    180  O        -29.3350  -23.2940  -26.5550 O.2   897  VAL897     -0.2864
    181  CB       -31.2910  -25.2200  -25.3280 C.3   897  VAL897      0.0276
    182  CG1      -31.4320  -26.0380  -26.5900 C.3   897  VAL897      0.0022
    183  CG2      -32.0170  -25.8810  -24.1890 C.3   897  VAL897      0.0022
@<TRIPOS>BOND
     1    55    54    2
     2    51    50    2
     3    54    53    1
     4    58    57    1
     5    53    52    1
     6    53    56    1
     7    50    52   am
     8    50    49    1
     9   182   181    1
    10   180   179    2
    11   179   178    1
    12    57    56    1
    13    57    59    1
    14    47    46    2
    15    49    48    1
    16   181   178    1
    17   181   183    1
    18   178   177    1
    19    46    48   am
    20    46    45    1
    21   177   174   am
    22    16    14   ar
    23   150   151    1
    24   150   147    1
    25    45    44    1
    26   175   174    2
    27   174   173    1
    28   154   152   ar
    29    41    40    2
    30   176   173    1
    31   151   152    1
    32    13    14    1
    33    13    10    1
    34    14    15   ar
    35   147   146    1
    36   147   148    1
    37   152   153   ar
    38    44    40   am
    39     9    10    1
    40   173   172    1
    41    40    39    1
    42    43    42    1
    43    10    11    1
    44   148   149    2
    45   172   166   am
    46    42    39    1
    47    31    30    2
    48    39    38    1
    49    11    12    2
    50   158   157    2
    51    32    29    1
    52    32    33    1
    53   167   166    2
    54   166   165    1
    55    38    36   am
    56    29    30    1
    57    29    28    1
    58    30    34   am
    59   157   156    1
    60    37    36    2
    61    36    35    1
    62   127   128    1
    63   164   165    1
    64   128   129    1
    65   162   161    2
    66   165   168    1
    67   159   156    1
    68   159   160    1
    69    20    19    2
    70    34    35    1
    71    28    19   am
    72   156   155    1
    73    19    18    1
    74   102   101    2
    75   161   160    1
    76   161   163   am
    77    60    61    1
    78   168   169    1
    79   129   130    2
    80    17    18    1
    81   101   100    1
    82    18    21    1
    83    21    22    1
    84    63    62    2
    85   100   103    1
    86   100    99    1
    87   169   170    2
    88   169   171   am
    89    24    22   ar
    90    24    26   ar
    91    61    62    1
    92    61    64    1
    93    65    64    1
    94    65    67    1
    95    62    68   am
    96    75    74   ar
    97    72    73    1
    98    72    69    1
    99    22    23   ar
   100    64    66    1
   101    26    27   ar
   102    73    74    1
   103    68    69    1
   104    74    76   ar
   105    69    70    1
   106    23    25   ar
   107    27    25   ar
   108   131   137    1
   109   131   132    1
   110    97    95   ar
   111    97    98   ar
   112    95    92   ar
   113   137   136    1
   114   132   135    1
   115   132   133    1
   116    70    71    2
   117    70    77   am
   118    88    87    2
   119    98    96   ar
   120   141   140    2
   121   135   136    1
   122   133   134    2
   123    77    78    1
   124   140   139    1
   125   125   126    1
   126   125   122    1
   127    92    94   ar
   128    92    90   ar
   129    87    86    1
   130    96    94   ar
   131    89    90    1
   132    89    86    1
   133    85    86    1
   134    85    79   am
   135    94    93   ar
   136    90    91   ar
   137   122   123    1
   138   122   121    1
   139   142   139    1
   140   142   143    1
   141   104   105    1
   142    78    79    1
   143    78    81    1
   144   139   138    1
   145   124   123    2
   146   107   106    2
   147    79    80    2
   148   121   115   am
   149   144   143    1
   150    91    93   ar
   151    81    82    1
   152   143   145    1
   153   105   106    1
   154   105   108    1
   155   106   113   am
   156   108   109    1
   157   115   116    2
   158   115   114    1
   159   113   114    1
   160   114   117    1
   161    82    83    1
   162     8     7    1
   163   109   110    1
   164   111   110   ar
   165     7     6    1
   166   110   112   ar
   167    83    84    1
   168   120   118   ar
   169   117   118    1
   170   118   119   ar
   171     6     5    1
   172     5     2    1
   173     4     3    2
   174     2     1    1
   175     2     3    1
