@<TRIPOS>MOLECULE
tmp/3ptaA00.pdb
 195 185 0 0 0
SMALL
GASTEIGER

@<TRIPOS>ATOM
      1  N         16.8690  -25.5980   35.0670 N.3    52  GLU52      -0.1245
      2  CA        17.9760  -26.0440   34.2290 C.3    52  GLU52       0.1567
      3  C         19.1720  -26.4240   35.0940 C.2    52  GLU52       0.2260
      4  O         20.1110  -27.0660   34.6240 O.2    52  GLU52      -0.2867
      5  CB        18.3730  -24.9440   33.2360 C.3    52  GLU52       0.0388
      6  CG        19.1350  -23.7590   33.8240 C.3    52  GLU52       0.1160
      7  CD        18.3960  -23.0690   34.9540 C.2    52  GLU52       0.3649
      8  OE1       18.3780  -23.6160   36.0770 O.co2  52  GLU52      -0.2457
      9  OE2       17.8310  -21.9800   34.7170 O.co2  52  GLU52      -0.2457
     10  N         32.1320  -17.2020   21.7900 N.3   451  ASP451     -0.1239
     11  CA        31.6270  -17.8160   23.0080 C.3   451  ASP451      0.1674
     12  C         30.1110  -17.7680   23.1520 C.2   451  ASP451      0.2266
     13  O         29.5500  -16.7770   23.6190 O.2   451  ASP451     -0.2867
     14  CB        32.2820  -17.1600   24.2290 C.3   451  ASP451      0.1410
     15  CG        31.9180  -17.8500   25.5290 C.2   451  ASP451      0.3668
     16  OD1       32.0500  -19.0900   25.6020 O.co2 451  ASP451     -0.2456
     17  OD2       31.5090  -17.1560   26.4850 O.co2 451  ASP451     -0.2456
     18  N         26.6400  -18.9940   24.8720 N.3   453  PHE453     -0.1227
     19  CA        26.3320  -19.3230   26.2590 C.3   453  PHE453      0.1736
     20  C         27.3940  -18.5720   27.0570 C.2   453  PHE453      0.2596
     21  O         27.8870  -19.0620   28.0680 O.2   453  PHE453     -0.2718
     22  CB        26.4760  -20.8230   26.5380 C.3   453  PHE453      0.0547
     23  CG        25.7110  -21.7040   25.5960 C.ar  453  PHE453     -0.0202
     24  CD1       24.3900  -21.4310   25.2780 C.ar  453  PHE453     -0.0042
     25  CD2       26.3030  -22.8420   25.0610 C.ar  453  PHE453     -0.0042
     26  CE1       23.6720  -22.2810   24.4430 C.ar  453  PHE453     -0.0003
     27  CE2       25.5880  -23.6950   24.2240 C.ar  453  PHE453     -0.0003
     28  CZ        24.2700  -23.4120   23.9170 C.ar  453  PHE453     -0.0000
     29  N         27.7490  -17.3850   26.5750 N.am  454  SER454     -0.1938
     30  CA        28.7740  -16.5570   27.2020 C.3   454  SER454      0.2055
     31  C         28.4690  -16.1290   28.6300 C.2   454  SER454      0.2644
     32  O         29.3810  -15.9470   29.4370 O.2   454  SER454     -0.2714
     33  CB        29.0230  -15.3080   26.3540 C.3   454  SER454      0.2130
     34  OG        27.8560  -14.5060   26.2770 O.3   454  SER454     -0.2179
     35  N         27.1910  -15.9650   28.9440 N.am  455  GLY455     -0.1939
     36  CA        26.8300  -15.5360   30.2800 C.3   455  GLY455      0.2014
     37  C         27.4170  -14.1610   30.5170 C.2   455  GLY455      0.2639
     38  O         27.4990  -13.3500   29.5940 O.2   455  GLY455     -0.2714
     39  N         27.8350  -13.8930   31.7490 N.am  456  CYS456     -0.1967
     40  CA        28.4190  -12.6010   32.0810 C.3   456  CYS456      0.1712
     41  C         29.8500  -12.5280   31.5630 C.2   456  CYS456      0.2296
     42  O         30.5190  -11.5060   31.7050 O.2   456  CYS456     -0.2864
     43  CB        28.4100  -12.3870   33.5950 C.3   456  CYS456      0.0983
     44  SG        29.4020  -13.5800   34.5220 S.3   456  CYS456     -0.0798
     45  N         32.2790  -15.4300   31.9660 N.3   458  GLY458     -0.1210
     46  CA        33.1530  -16.1080   32.9070 C.3   458  GLY458      0.1956
     47  C         34.3360  -16.7730   32.2320 C.2   458  GLY458      0.2611
     48  O         35.4780  -16.3370   32.3870 O.2   458  GLY458     -0.2717
     49  N         34.0590  -17.8340   31.4790 N.am  459  LEU459     -0.1979
     50  CA        35.0900  -18.5820   30.7650 C.3   459  LEU459      0.1596
     51  C         35.9170  -17.6900   29.8420 C.2   459  LEU459      0.2287
     52  O         37.1290  -17.8680   29.7160 O.2   459  LEU459     -0.2864
     53  CB        34.4410  -19.7080   29.9510 C.3   459  LEU459      0.0297
     54  CG        35.3410  -20.6560   29.1590 C.3   459  LEU459      0.0022
     55  CD1       36.4100  -21.2440   30.0630 C.3   459  LEU459      0.0001
     56  CD2       34.4910  -21.7590   28.5530 C.3   459  LEU459      0.0001
     57  N         27.1880  -15.0500   22.1590 N.3   475  ILE475     -0.1231
     58  CA        25.7690  -15.3690   22.0270 C.3   475  ILE475      0.1692
     59  C         25.1300  -15.5960   23.4020 C.2   475  ILE475      0.2592
     60  O         25.4390  -16.5710   24.0890 O.2   475  ILE475     -0.2718
     61  CB        25.5680  -16.6310   21.1560 C.3   475  ILE475      0.0266
     62  CG1       26.2840  -16.4540   19.8150 C.3   475  ILE475      0.0019
     63  CG2       24.0850  -16.8750   20.9220 C.3   475  ILE475      0.0020
     64  CD1       26.2100  -17.6680   18.9110 C.3   475  ILE475      0.0001
     65  N         24.2350  -14.6910   23.7910 N.am  476  GLU476     -0.1966
     66  CA        23.5530  -14.7630   25.0830 C.3   476  GLU476      0.1733
     67  C         22.0920  -14.3360   24.9390 C.2   476  GLU476      0.2616
     68  O         21.8070  -13.2080   24.5440 O.2   476  GLU476     -0.2715
     69  CB        24.2700  -13.8510   26.0840 C.3   476  GLU476      0.0429
     70  CG        23.6030  -13.7220   27.4450 C.3   476  GLU476      0.1163
     71  CD        23.5730  -15.0250   28.2170 C.2   476  GLU476      0.3649
     72  OE1       24.6300  -15.6820   28.3150 O.co2 476  GLU476     -0.2457
     73  OE2       22.4970  -15.3890   28.7350 O.co2 476  GLU476     -0.2457
     74  N         21.1690  -15.2350   25.2690 N.am  477  MET477     -0.1963
     75  CA        19.7410  -14.9490   25.1600 C.3   477  MET477      0.1736
     76  C         19.2760  -14.0580   26.2970 C.2   477  MET477      0.2616
     77  O         18.5430  -13.0950   26.0830 O.2   477  MET477     -0.2715
     78  CB        18.9360  -16.2500   25.1790 C.3   477  MET477      0.0427
     79  CG        17.5140  -16.1290   24.6660 C.3   477  MET477      0.0599
     80  SD        16.7420  -17.7470   24.4450 S.3   477  MET477     -0.1393
     81  CE        15.0020  -17.3130   24.5570 C.3   477  MET477      0.0692
     82  N         19.7040  -14.3890   27.5090 N.am  478  TRP478     -0.1974
     83  CA        19.3270  -13.6180   28.6820 C.3   478  TRP478      0.1640
     84  C         19.9180  -12.2180   28.5780 C.2   478  TRP478      0.2290
     85  O         21.1280  -12.0290   28.6920 O.2   478  TRP478     -0.2864
     86  CB        19.8200  -14.3210   29.9490 C.3   478  TRP478      0.0576
     87  CG        19.1150  -13.8810   31.1930 C.ar  478  TRP478      0.0006
     88  CD1       17.7800  -13.6350   31.3330 C.ar  478  TRP478      0.0946
     89  CD2       19.6960  -13.6870   32.4890 C.ar  478  TRP478      0.0152
     90  NE1       17.4920  -13.3010   32.6330 N.ar  478  TRP478     -0.2442
     91  CE2       18.6500  -13.3250   33.3650 C.ar  478  TRP478      0.0810
     92  CE3       21.0000  -13.7860   32.9950 C.ar  478  TRP478      0.0012
     93  CZ2       18.8650  -13.0610   34.7220 C.ar  478  TRP478      0.0191
     94  CZ3       21.2140  -13.5240   34.3460 C.ar  478  TRP478      0.0001
     95  CH2       20.1500  -13.1650   35.1930 C.ar  478  TRP478      0.0015
     96  N         22.7030  -10.8550   31.3360 N.3   481  ALA481     -0.1245
     97  CA        24.0640  -11.3370   31.1320 C.3   481  ALA481      0.1562
     98  C         24.6890  -10.7180   29.8870 C.2   481  ALA481      0.2260
     99  O         25.8030  -10.1950   29.9380 O.2   481  ALA481     -0.2867
    100  CB        24.0630  -12.8550   31.0160 C.3   481  ALA481      0.0290
    101  N         20.3110  -13.1560   21.5340 N.3   497  GLU497     -0.1231
    102  CA        19.1860  -13.9220   21.0020 C.3   497  GLU497      0.1699
    103  C         19.4380  -15.4210   21.1760 C.2   497  GLU497      0.2592
    104  O         20.4320  -15.8180   21.7830 O.2   497  GLU497     -0.2718
    105  CB        18.9840  -13.5950   19.5180 C.3   497  GLU497      0.0402
    106  CG        20.2770  -13.4060   18.7340 C.3   497  GLU497      0.1161
    107  CD        21.3220  -14.4560   19.0690 C.2   497  GLU497      0.3649
    108  OE1       20.9830  -15.6510   19.0960 O.co2 497  GLU497     -0.2457
    109  OE2       22.4890  -14.0930   19.2930 O.co2 497  GLU497     -0.2457
    110  N         18.5470  -16.2480   20.6360 N.am  498  ASP498     -0.1960
    111  CA        18.6820  -17.7010   20.7380 C.3   498  ASP498      0.1840
    112  C         19.8060  -18.2160   19.8410 C.2   498  ASP498      0.2622
    113  O         20.0700  -17.6520   18.7860 O.2   498  ASP498     -0.2715
    114  CB        17.3700  -18.3770   20.3380 C.3   498  ASP498      0.1450
    115  CG        17.4080  -19.8790   20.5250 C.2   498  ASP498      0.3671
    116  OD1       16.4630  -20.5580   20.0740 O.co2 498  ASP498     -0.2456
    117  OD2       18.3780  -20.3820   21.1280 O.co2 498  ASP498     -0.2456
    118  N         20.4600  -19.2980   20.2490 N.am  499  CYS499     -0.1968
    119  CA        21.5480  -19.8520   19.4490 C.3   499  CYS499      0.1712
    120  C         21.0100  -20.5910   18.2260 C.2   499  CYS499      0.2296
    121  O         21.5780  -20.4990   17.1380 O.2   499  CYS499     -0.2864
    122  CB        22.4070  -20.8050   20.2850 C.3   499  CYS499      0.0983
    123  SG        21.6610  -22.4200   20.5990 S.3   499  CYS499     -0.0798
    124  N         32.1590  -22.5470   25.4260 N.3   530  GLY530     -0.1210
    125  CA        30.8980  -22.2160   26.0680 C.3   530  GLY530      0.1956
    126  C         30.3640  -23.3130   26.9720 C.2   530  GLY530      0.2612
    127  O         30.8450  -24.4460   26.9430 O.2   530  GLY530     -0.2717
    128  N         29.3620  -22.9710   27.7770 N.am  531  GLY531     -0.1956
    129  CA        28.7710  -23.9380   28.6850 C.3   531  GLY531      0.1869
    130  C         27.2920  -24.1640   28.4260 C.2   531  GLY531      0.2309
    131  O         26.4470  -23.4650   28.9850 O.2   531  GLY531     -0.2863
    132  N         23.6610  -25.1730   28.7210 N.3   533  PRO533     -0.2116
    133  CA        22.7980  -25.5260   29.8480 C.3   533  PRO533      0.1372
    134  C         22.1300  -26.8740   29.6080 C.2   533  PRO533      0.2244
    135  O         21.3740  -27.0410   28.6510 O.2   533  PRO533     -0.2868
    136  CB        21.7950  -24.3800   29.8780 C.3   533  PRO533      0.0268
    137  CG        21.6660  -24.0350   28.4340 C.3   533  PRO533      0.0207
    138  CD        23.1090  -24.0200   27.9910 C.3   533  PRO533      0.0892
    139  N         19.4400  -28.8970   30.4660 N.3   535  GLN535     -0.1245
    140  CA        18.1370  -28.8450   31.1160 C.3   535  GLN535      0.1566
    141  C         17.1680  -29.9760   30.7770 C.2   535  GLN535      0.2260
    142  O         16.7710  -30.7440   31.6550 O.2   535  GLN535     -0.2867
    143  CB        17.4830  -27.4930   30.8140 C.3   535  GLN535      0.0367
    144  CG        17.6890  -27.0200   29.3810 C.3   535  GLN535      0.0905
    145  CD        17.2350  -25.5890   29.1630 C.2   535  GLN535      0.2608
    146  OE1       17.6670  -24.6740   29.8660 O.2   535  GLN535     -0.2717
    147  NE2       16.3660  -25.3880   28.1780 N.am  535  GLN535     -0.0878
    148  N         20.4270  -28.1870   23.6960 N.3   555  LEU555     -0.1245
    149  CA        21.3270  -27.0720   23.4280 C.3   555  LEU555      0.1561
    150  C         22.7610  -27.5790   23.4470 C.2   555  LEU555      0.2260
    151  O         23.7110  -26.8070   23.3080 O.2   555  LEU555     -0.2867
    152  CB        21.1440  -25.9710   24.4730 C.3   555  LEU555      0.0270
    153  CG        19.7830  -25.2710   24.4460 C.3   555  LEU555      0.0019
    154  CD1       19.7240  -24.2150   25.5350 C.3   555  LEU555      0.0001
    155  CD2       19.5600  -24.6400   23.0810 C.3   555  LEU555      0.0001
    156  N         32.5500  -26.7880   28.5670 N.3   574  GLU574     -0.1245
    157  CA        32.5760  -26.8900   30.0210 C.3   574  GLU574      0.1567
    158  C         31.1510  -27.1210   30.5040 C.2   574  GLU574      0.2260
    159  O         30.1920  -26.6960   29.8570 O.2   574  GLU574     -0.2867
    160  CB        33.1330  -25.6030   30.6420 C.3   574  GLU574      0.0388
    161  CG        32.1410  -24.4440   30.7200 C.3   574  GLU574      0.1160
    162  CD        31.1990  -24.5480   31.9120 C.2   574  GLU574      0.3649
    163  OE1       30.2690  -23.7200   32.0130 O.co2 574  GLU574     -0.2457
    164  OE2       31.3930  -25.4540   32.7500 O.co2 574  GLU574     -0.2457
    165  N         22.7560  -14.6540   39.7740 N.3   878  ARG878     -0.1245
    166  CA        22.6700  -15.7280   38.7960 C.3   878  ARG878      0.1563
    167  C         23.8220  -15.6960   37.7930 C.2   878  ARG878      0.2260
    168  O         24.3240  -16.7440   37.3860 O.2   878  ARG878     -0.2867
    169  CB        21.3230  -15.6670   38.0690 C.3   878  ARG878      0.0307
    170  CG        20.9930  -16.9330   37.2960 C.3   878  ARG878      0.0489
    171  CD        19.5340  -16.9830   36.8690 C.3   878  ARG878      0.2205
    172  NE        18.8310  -18.1170   37.4690 N.pl3 878  ARG878     -0.0865
    173  CZ        18.4760  -18.1900   38.7490 C.cat 878  ARG878      0.5346
    174  NH1       18.7500  -17.1910   39.5760 N.pl3 878  ARG878      0.1354
    175  NH2       17.8530  -19.2680   39.2060 N.pl3 878  ARG878      0.1354
    176  N         26.4030  -18.8670   37.4930 N.3   882  ASN882     -0.1225
    177  CA        26.5990  -19.6680   36.2920 C.3   882  ASN882      0.1785
    178  C         28.0390  -19.6250   35.8040 C.2   882  ASN882      0.2597
    179  O         28.6200  -20.6550   35.4680 O.2   882  ASN882     -0.2718
    180  CB        25.6740  -19.1820   35.1750 C.3   882  ASN882      0.1169
    181  CG        24.2150  -19.4670   35.4610 C.2   882  ASN882      0.2627
    182  OD1       23.8190  -20.6190   35.6320 O.2   882  ASN882     -0.2716
    183  ND2       23.4060  -18.4180   35.5090 N.am  882  ASN882     -0.0877
    184  N         28.6050  -18.4230   35.7760 N.am  883  ALA883     -0.1966
    185  CA        29.9710  -18.1960   35.3140 C.3   883  ALA883      0.1728
    186  C         30.9930  -19.2570   35.7120 C.2   883  ALA883      0.2616
    187  O         30.7360  -20.1120   36.5600 O.2   883  ALA883     -0.2715
    188  CB        30.4430  -16.8300   35.7800 C.3   883  ALA883      0.0334
    189  N         32.1620  -19.1850   35.0810 N.am  884  VAL884     -0.1977
    190  CA        33.2510  -20.1170   35.3420 C.3   884  VAL884      0.1596
    191  C         34.4130  -19.3920   36.0170 C.2   884  VAL884      0.2287
    192  O         34.8020  -18.2990   35.6060 O.2   884  VAL884     -0.2864
    193  CB        33.7550  -20.7690   34.0320 C.3   884  VAL884      0.0276
    194  CG1       34.9680  -21.6380   34.3130 C.3   884  VAL884      0.0022
    195  CG2       32.6520  -21.6080   33.4150 C.3   884  VAL884      0.0022
@<TRIPOS>BOND
     1   121   120    2
     2   120   119    1
     3   106   107    1
     4   106   105    1
     5   113   112    2
     6    64    62    1
     7   107   108   ar
     8   107   109   ar
     9   119   118    1
    10   119   122    1
    11   105   102    1
    12    62    61    1
    13   112   118   am
    14   112   111    1
    15   116   115   ar
    16   122   123    1
    17   114   115    1
    18   114   111    1
    19   115   117   ar
    20   110   111    1
    21   110   103   am
    22    63    61    1
    23   102   103    1
    24   102   101    1
    25    61    58    1
    26   103   104    2
    27    10    11    1
    28    58    57    1
    29    58    59    1
    30    11    12    1
    31    11    14    1
    32   155   153    1
    33    12    13    2
    34   151   150    2
    35    59    65   am
    36    59    60    2
    37   149   150    1
    38   149   148    1
    39   149   152    1
    40    65    66    1
    41    28    27   ar
    42    28    26   ar
    43    27    25   ar
    44    14    15    1
    45    26    24   ar
    46    80    81    1
    47    80    79    1
    48   153   152    1
    49   153   154    1
    50    68    67    2
    51    79    78    1
    52    18    19    1
    53    67    66    1
    54    67    74   am
    55    25    23   ar
    56    66    69    1
    57    75    78    1
    58    75    74    1
    59    75    76    1
    60    24    23   ar
    61   124   125    1
    62    15    16   ar
    63    15    17   ar
    64    23    22    1
    65   125   126    1
    66    77    76    2
    67    69    70    1
    68    19    22    1
    69    19    20    1
    70    34    33    1
    71    76    82   am
    72    33    30    1
    73    29    20   am
    74    29    30    1
    75   127   126    2
    76   126   128   am
    77    20    21    2
    78    30    31    1
    79    70    71    1
    80    82    83    1
    81   128   129    1
    82   138   137    1
    83   138   132    1
    84   147   145   am
    85    71    72   ar
    86    71    73   ar
    87   130   129    1
    88   130   131    2
    89   137   136    1
    90    56    54    1
    91   156   157    1
    92    84    83    1
    93    84    85    2
    94    31    35   am
    95    31    32    2
    96   135   134    2
    97    83    86    1
    98   132   133    1
    99    35    36    1
   100    54    53    1
   101    54    55    1
   102   145   144    1
   103   145   146    2
   104   144   143    1
   105    38    37    2
   106   134   133    1
   107    52    51    2
   108    51    50    1
   109   133   136    1
   110   159   158    2
   111    98    99    2
   112    98    97    1
   113    86    87    1
   114    53    50    1
   115   157   158    1
   116   157   160    1
   117    36    37    1
   118   139   140    1
   119    37    39   am
   120   160   161    1
   121   161   162    1
   122    50    49    1
   123   141   140    1
   124   141   142    2
   125   143   140    1
   126   100    97    1
   127    97    96    1
   128    87    88   ar
   129    87    89   ar
   130    88    90   ar
   131    49    47   am
   132    41    42    2
   133    41    40    1
   134    39    40    1
   135   162   163   ar
   136   162   164   ar
   137    45    46    1
   138    40    43    1
   139    47    48    2
   140    47    46    1
   141    89    92   ar
   142    89    91   ar
   143    90    91   ar
   144    92    94   ar
   145     5     6    1
   146     5     2    1
   147    91    93   ar
   148   195   193    1
   149    43    44    1
   150     6     7    1
   151   193   194    1
   152   193   190    1
   153     2     1    1
   154     2     3    1
   155    94    95   ar
   156     4     3    2
   157     9     7   ar
   158    93    95   ar
   159     7     8   ar
   160   189   190    1
   161   189   186   am
   162   180   181    1
   163   180   177    1
   164   185   186    1
   165   185   184    1
   166   185   188    1
   167   190   191    1
   168   181   183   am
   169   181   182    2
   170   179   178    2
   171   192   191    2
   172   186   187    2
   173   184   178   am
   174   178   177    1
   175   177   176    1
   176   171   170    1
   177   171   172    1
   178   170   169    1
   179   168   167    2
   180   172   173    2
   181   167   166    1
   182   169   166    1
   183   173   175    1
   184   173   174    1
   185   166   165    1
