@<TRIPOS>MOLECULE
tmp/3ptkB00.pdb
 150 150 0 0 0
SMALL
GASTEIGER

@<TRIPOS>ATOM
      1  N        -29.0830   14.1000    9.8730 N.3    21  GLN21      -0.1245
      2  CA       -27.7240   13.5970    9.9240 C.3    21  GLN21       0.1566
      3  C        -27.5900   12.1860    9.3730 C.2    21  GLN21       0.2260
      4  O        -26.4940   11.7760    8.9710 O.2    21  GLN21      -0.2867
      5  CB       -27.2160   13.6240   11.3580 C.3    21  GLN21       0.0367
      6  CG       -27.0990   15.0190   11.9480 C.3    21  GLN21       0.0905
      7  CD       -26.5080   14.9870   13.3370 C.2    21  GLN21       0.2608
      8  OE1      -27.2380   15.0220   14.3210 O.2    21  GLN21      -0.2717
      9  NE2      -25.1810   14.8890   13.4270 N.am   21  GLN21      -0.0878
     10  N        -34.9720   18.2610   15.8100 N.3   125  HIS125     -0.1226
     11  CA       -33.5160   18.2050   15.8890 C.3   125  HIS125      0.1752
     12  C        -32.9170   19.0860   14.7720 C.2   125  HIS125      0.2596
     13  O        -32.1230   18.6410   13.9280 O.2   125  HIS125     -0.2718
     14  CB       -33.0280   16.7530   15.8400 C.3   125  HIS125      0.0759
     15  CG       -31.6400   16.5570   16.3660 C.ar  125  HIS125      0.0818
     16  ND1      -31.3120   15.5320   17.2280 N.ar  125  HIS125     -0.2268
     17  CD2      -30.4910   17.2390   16.1400 C.ar  125  HIS125      0.1154
     18  CE1      -30.0210   15.5890   17.5070 C.ar  125  HIS125      0.1986
     19  NE2      -29.5010   16.6210   16.8650 N.ar  125  HIS125     -0.2212
     20  N        -33.3680   20.3380   14.7820 N.am  126  TRP126     -0.1976
     21  CA       -32.8040   21.4650   14.0180 C.3   126  TRP126      0.1640
     22  C        -33.2660   21.6000   12.5700 C.2   126  TRP126      0.2290
     23  O        -33.1660   22.6980   11.9920 O.2   126  TRP126     -0.2864
     24  CB       -31.2700   21.5700   14.1320 C.3   126  TRP126      0.0576
     25  CG       -30.7130   21.3520   15.5080 C.ar  126  TRP126      0.0006
     26  CD1      -31.3940   21.3940   16.6920 C.ar  126  TRP126      0.0946
     27  CD2      -29.3500   21.0760   15.8400 C.ar  126  TRP126      0.0152
     28  NE1      -30.5440   21.1390   17.7360 N.ar  126  TRP126     -0.2442
     29  CE2      -29.2790   20.9490   17.2420 C.ar  126  TRP126      0.0810
     30  CE3      -28.1760   20.9380   15.0870 C.ar  126  TRP126      0.0012
     31  CZ2      -28.0860   20.6770   17.9100 C.ar  126  TRP126      0.0191
     32  CZ3      -26.9920   20.6590   15.7480 C.ar  126  TRP126      0.0001
     33  CH2      -26.9570   20.5320   17.1510 C.ar  126  TRP126      0.0015
     34  N        -31.0910   19.9490   22.2240 N.3   171  GLU171     -0.1245
     35  CA       -30.1260   21.0270   22.4730 C.3   171  GLU171      0.1567
     36  C        -30.5190   22.3870   21.8790 C.2   171  GLU171      0.2260
     37  O        -29.8880   22.8520   20.9160 O.2   171  GLU171     -0.2867
     38  CB       -28.7480   20.6410   21.9570 C.3   171  GLU171      0.0388
     39  CG       -28.1890   19.3120   22.4410 C.3   171  GLU171      0.1160
     40  CD       -26.8700   18.9980   21.7650 C.2   171  GLU171      0.3649
     41  OE1      -26.2240   17.9850   22.1050 O.co2 171  GLU171     -0.2457
     42  OE2      -26.4640   19.7730   20.8690 O.co2 171  GLU171     -0.2457
     43  N        -27.5030   24.8900   21.4370 N.3   174  THR174     -0.1218
     44  CA       -26.7440   24.7910   20.1990 C.3   174  THR174      0.1862
     45  C        -27.5020   25.4690   19.0590 C.2   174  THR174      0.2287
     46  O        -26.9350   26.2620   18.3040 O.2   174  THR174     -0.2866
     47  CB       -26.4820   23.3350   19.8400 C.3   174  THR174      0.1770
     48  OG1      -26.0310   22.6330   21.0090 O.3   174  THR174     -0.2211
     49  CG2      -25.4270   23.2460   18.7460 C.3   174  THR174      0.0375
     50  N        -24.2210   27.7510   12.0460 N.3   185  PHE185     -0.1241
     51  CA       -25.1810   26.6860   11.7530 C.3   185  PHE185      0.1605
     52  C        -26.4110   27.3190   11.1180 C.2   185  PHE185      0.2264
     53  O        -26.6530   28.5260   11.2970 O.2   185  PHE185     -0.2867
     54  CB       -25.6030   25.9660   13.0450 C.3   185  PHE185      0.0534
     55  CG       -24.6380   24.8990   13.5250 C.ar  185  PHE185     -0.0203
     56  CD1      -23.3130   24.8590   13.0980 C.ar  185  PHE185     -0.0042
     57  CD2      -25.0610   23.9480   14.4520 C.ar  185  PHE185     -0.0042
     58  CE1      -22.4280   23.8610   13.5730 C.ar  185  PHE185     -0.0003
     59  CE2      -24.1910   22.9470   14.9300 C.ar  185  PHE185     -0.0003
     60  CZ       -22.8720   22.9100   14.4920 C.ar  185  PHE185     -0.0000
     61  N        -28.1780   20.4330   26.5160 N.3   242  VAL242     -0.1245
     62  CA       -26.7440   20.1700   26.5210 C.3   242  VAL242      0.1561
     63  C        -26.0390   21.1030   27.5120 C.2   242  VAL242      0.2260
     64  O        -26.4280   22.2630   27.6860 O.2   242  VAL242     -0.2867
     65  CB       -26.1410   20.2910   25.1000 C.3   242  VAL242      0.0252
     66  CG1      -26.3810   21.6880   24.5120 C.3   242  VAL242      0.0019
     67  CG2      -24.6530   19.9010   25.0750 C.3   242  VAL242      0.0019
     68  N        -20.6040   16.1500   26.6840 N.3   314  TYR314     -0.1241
     69  CA       -19.4700   15.7930   25.8480 C.3   314  TYR314      0.1605
     70  C        -18.1250   16.1470   26.4700 C.2   314  TYR314      0.2264
     71  O        -17.1980   15.3460   26.4280 O.2   314  TYR314     -0.2867
     72  CB       -19.6070   16.4560   24.4700 C.3   314  TYR314      0.0534
     73  CG       -20.6730   15.8260   23.6130 C.ar  314  TYR314     -0.0201
     74  CD1      -20.4380   14.6060   22.9760 C.ar  314  TYR314     -0.0009
     75  CD2      -21.9160   16.4410   23.4320 C.ar  314  TYR314     -0.0009
     76  CE1      -21.4070   14.0100   22.1750 C.ar  314  TYR314      0.0417
     77  CE2      -22.8970   15.8510   22.6310 C.ar  314  TYR314      0.0417
     78  CZ       -22.6290   14.6310   22.0070 C.ar  314  TYR314      0.1957
     79  OH       -23.5740   14.0080   21.2120 O.3   314  TYR314     -0.2866
     80  N        -13.6930   21.4590   19.6090 N.3   357  TRP357     -0.1241
     81  CA       -14.4080   21.8090   20.8360 C.3   357  TRP357      0.1605
     82  C        -14.4830   20.6620   21.8560 C.2   357  TRP357      0.2264
     83  O        -14.8750   20.8840   23.0050 O.2   357  TRP357     -0.2867
     84  CB       -15.8170   22.3230   20.5040 C.3   357  TRP357      0.0550
     85  CG       -16.6270   21.3340   19.7130 C.ar  357  TRP357      0.0003
     86  CD1      -16.6930   21.2320   18.3440 C.ar  357  TRP357      0.0946
     87  CD2      -17.4640   20.2900   20.2320 C.ar  357  TRP357      0.0152
     88  NE1      -17.5250   20.1940   17.9860 N.ar  357  TRP357     -0.2442
     89  CE2      -18.0130   19.6000   19.1200 C.ar  357  TRP357      0.0810
     90  CE3      -17.8150   19.8770   21.5260 C.ar  357  TRP357      0.0012
     91  CZ2      -18.8890   18.5160   19.2630 C.ar  357  TRP357      0.0191
     92  CZ3      -18.6880   18.8000   21.6710 C.ar  357  TRP357      0.0001
     93  CH2      -19.2150   18.1300   20.5400 C.ar  357  TRP357      0.0015
     94  N        -27.4220   12.0620   24.9520 N.3   385  GLU385     -0.1245
     95  CA       -26.2300   12.0500   24.0900 C.3   385  GLU385      0.1567
     96  C        -24.9180   12.0660   24.8830 C.2   385  GLU385      0.2260
     97  O        -24.7080   12.9190   25.7500 O.2   385  GLU385     -0.2867
     98  CB       -26.2390   13.2390   23.1040 C.3   385  GLU385      0.0388
     99  CG       -27.1510   13.0730   21.8820 C.3   385  GLU385      0.1160
    100  CD       -27.2430   14.3370   21.0110 C.2   385  GLU385      0.3649
    101  OE1      -26.1820   14.8640   20.5820 O.co2 385  GLU385     -0.2457
    102  OE2      -28.3800   14.7990   20.7480 O.co2 385  GLU385     -0.2457
    103  N        -24.0550    8.6800   21.6260 N.3   434  TRP434     -0.1241
    104  CA       -23.9520    9.2980   20.3060 C.3   434  TRP434      0.1605
    105  C        -22.6800    8.8310   19.5940 C.2   434  TRP434      0.2264
    106  O        -21.5860    9.1690   20.0390 O.2   434  TRP434     -0.2867
    107  CB       -23.9300   10.8180   20.3930 C.3   434  TRP434      0.0550
    108  CG       -23.9710   11.4380   19.0420 C.ar  434  TRP434      0.0003
    109  CD1      -22.9080   11.8440   18.2930 C.ar  434  TRP434      0.0946
    110  CD2      -25.1430   11.6920   18.2520 C.ar  434  TRP434      0.0152
    111  NE1      -23.3420   12.3520   17.0890 N.ar  434  TRP434     -0.2442
    112  CE2      -24.7100   12.2650   17.0340 C.ar  434  TRP434      0.0810
    113  CE3      -26.5200   11.4890   18.4560 C.ar  434  TRP434      0.0012
    114  CZ2      -25.6020   12.6430   16.0230 C.ar  434  TRP434      0.0191
    115  CZ3      -27.4040   11.8650   17.4550 C.ar  434  TRP434      0.0001
    116  CH2      -26.9390   12.4380   16.2510 C.ar  434  TRP434      0.0015
    117  N        -22.0490   15.4250   10.3450 N.3   441  GLU441     -0.1231
    118  CA       -21.7570   16.1950   11.5660 C.3   441  GLU441      0.1699
    119  C        -21.8550   17.7010   11.3400 C.2   441  GLU441      0.2592
    120  O        -20.9270   18.4620   11.6260 O.2   441  GLU441     -0.2718
    121  CB       -20.3860   15.8160   12.1390 C.3   441  GLU441      0.0402
    122  CG       -19.9770   16.5900   13.4190 C.3   441  GLU441      0.1161
    123  CD       -20.9490   16.4200   14.6010 C.2   441  GLU441      0.3649
    124  OE1      -21.7650   15.4550   14.6100 O.co2 441  GLU441     -0.2457
    125  OE2      -20.8880   17.2560   15.5320 O.co2 441  GLU441     -0.2457
    126  N        -22.9910   18.1320   10.8140 N.am  442  TRP442     -0.1976
    127  CA       -23.2470   19.5430   10.6440 C.3   442  TRP442      0.1640
    128  C        -22.0650   20.2430    9.9650 C.2   442  TRP442      0.2290
    129  O        -21.5890   19.7840    8.9270 O.2   442  TRP442     -0.2864
    130  CB       -23.5970   20.1580   11.9970 C.3   442  TRP442      0.0576
    131  CG       -24.6660   19.3690   12.7420 C.ar  442  TRP442      0.0006
    132  CD1      -24.5080   18.6830   13.9120 C.ar  442  TRP442      0.0946
    133  CD2      -26.0400   19.1780   12.3490 C.ar  442  TRP442      0.0152
    134  NE1      -25.6920   18.0860   14.2750 N.ar  442  TRP442     -0.2442
    135  CE2      -26.6500   18.3800   13.3390 C.ar  442  TRP442      0.0810
    136  CE3      -26.8120   19.6030   11.2590 C.ar  442  TRP442      0.0012
    137  CZ2      -28.0040   18.0090   13.2770 C.ar  442  TRP442      0.0191
    138  CZ3      -28.1570   19.2390   11.2000 C.ar  442  TRP442      0.0001
    139  CH2      -28.7350   18.4450   12.1960 C.ar  442  TRP442      0.0015
    140  N        -18.3590    9.9410   14.5140 N.3   450  PHE450     -0.1241
    141  CA       -18.8410    9.7720   15.8940 C.3   450  PHE450      0.1605
    142  C        -19.4030    8.3890   16.1490 C.2   450  PHE450      0.2264
    143  O        -19.7210    8.0470   17.2840 O.2   450  PHE450     -0.2867
    144  CB       -19.9520   10.7700   16.1920 C.3   450  PHE450      0.0534
    145  CG       -19.4740   12.0510   16.7910 C.ar  450  PHE450     -0.0203
    146  CD1      -19.1980   12.1340   18.1520 C.ar  450  PHE450     -0.0042
    147  CD2      -19.3200   13.1830   16.0040 C.ar  450  PHE450     -0.0042
    148  CE1      -18.7640   13.3230   18.7130 C.ar  450  PHE450     -0.0003
    149  CE2      -18.8930   14.3750   16.5610 C.ar  450  PHE450     -0.0003
    150  CZ       -18.6080   14.4450   17.9170 C.ar  450  PHE450     -0.0000
@<TRIPOS>BOND
     1   129   128    2
     2     4     3    2
     3     3     2    1
     4     1     2    1
     5     2     5    1
     6   128   127    1
     7   117   118    1
     8   127   126    1
     9   127   130    1
    10   126   119   am
    11    52    53    2
    12    52    51    1
    13   138   136   ar
    14   138   139   ar
    15   136   133   ar
    16   119   118    1
    17   119   120    2
    18     5     6    1
    19   118   121    1
    20    51    50    1
    21    51    54    1
    22     6     7    1
    23    23    22    2
    24   130   131    1
    25   121   122    1
    26   139   137   ar
    27   133   131   ar
    28   133   135   ar
    29    22    21    1
    30   131   132   ar
    31    54    55    1
    32    56    55   ar
    33    56    58   ar
    34   137   135   ar
    35     7     9   am
    36     7     8    2
    37   135   134   ar
    38   122   123    1
    39    55    57   ar
    40    58    60   ar
    41   132   134   ar
    42    13    12    2
    43    21    24    1
    44    21    20    1
    45    24    25    1
    46    57    59   ar
    47    60    59   ar
    48   140   141    1
    49   123   124   ar
    50   123   125   ar
    51    12    20   am
    52    12    11    1
    53    30    32   ar
    54    30    27   ar
    55    25    27   ar
    56    25    26   ar
    57    32    33   ar
    58    10    11    1
    59    27    29   ar
    60    14    11    1
    61    14    15    1
    62   141   142    1
    63   141   144    1
    64   147   149   ar
    65   147   145   ar
    66   114   116   ar
    67   114   112   ar
    68    17    15   ar
    69    17    19   ar
    70   142   143    2
    71   144   145    1
    72   116   115   ar
    73    15    16   ar
    74   149   150   ar
    75    26    28   ar
    76   145   146   ar
    77    19    18   ar
    78   112   111   ar
    79   112   110   ar
    80   111   109   ar
    81    33    31   ar
    82    16    18   ar
    83    29    28   ar
    84    29    31   ar
    85   115   113   ar
    86   150   148   ar
    87    88    86   ar
    88    88    89   ar
    89   146   148   ar
    90   110   113   ar
    91   110   108   ar
    92   109   108   ar
    93    46    45    2
    94    86    85   ar
    95    49    47    1
    96   108   107    1
    97    45    44    1
    98    89    91   ar
    99    89    87   ar
   100    91    93   ar
   101   105   106    2
   102   105   104    1
   103    80    81    1
   104    85    87   ar
   105    85    84    1
   106    47    44    1
   107    47    48    1
   108    44    43    1
   109    87    90   ar
   110   104   107    1
   111   104   103    1
   112    84    81    1
   113    93    92   ar
   114   101   100   ar
   115   102   100   ar
   116    81    82    1
   117    42    40   ar
   118    37    36    2
   119   100    99    1
   120    79    78    1
   121    90    92   ar
   122    40    41   ar
   123    40    39    1
   124    82    83    2
   125    36    35    1
   126    99    98    1
   127    38    39    1
   128    38    35    1
   129    78    76   ar
   130    78    77   ar
   131    76    74   ar
   132    34    35    1
   133    77    75   ar
   134    74    73   ar
   135    98    95    1
   136    75    73   ar
   137    73    72    1
   138    95    96    1
   139    95    94    1
   140    72    69    1
   141    66    65    1
   142    96    97    2
   143    67    65    1
   144    65    62    1
   145    69    70    1
   146    69    68    1
   147    71    70    2
   148    61    62    1
   149    62    63    1
   150    63    64    2
