@<TRIPOS>MOLECULE
tmp/3ptmA00.pdb
 133 135 0 0 0
SMALL
GASTEIGER

@<TRIPOS>ATOM
      1  N        -35.3680   -4.5270  -13.5250 N.3    21  GLN21      -0.1245
      2  CA       -34.1060   -3.8320  -13.7550 C.3    21  GLN21       0.1566
      3  C        -34.0850   -2.4160  -13.1880 C.2    21  GLN21       0.2260
      4  O        -33.0270   -1.9130  -12.8170 O.2    21  GLN21      -0.2867
      5  CB       -33.7890   -3.8090  -15.2500 C.3    21  GLN21       0.0367
      6  CG       -33.4090   -5.1690  -15.8140 C.3    21  GLN21       0.0905
      7  CD       -33.2130   -5.1500  -17.3210 C.2    21  GLN21       0.2608
      8  OE1      -34.1780   -5.1330  -18.0810 O.2    21  GLN21      -0.2717
      9  NE2      -31.9610   -5.1700  -17.7570 N.am   21  GLN21      -0.0878
     10  N        -41.5730   -9.2520  -18.8050 N.3   125  HIS125     -0.1226
     11  CA       -40.1560   -9.0090  -19.0160 C.3   125  HIS125      0.1752
     12  C        -39.3200   -9.8410  -18.0350 C.2   125  HIS125      0.2596
     13  O        -38.4430   -9.3200  -17.3370 O.2   125  HIS125     -0.2718
     14  CB       -39.8380   -7.5190  -18.8910 C.3   125  HIS125      0.0759
     15  CG       -38.6120   -7.0980  -19.6400 C.ar  125  HIS125      0.0818
     16  ND1      -38.6470   -6.1690  -20.6560 N.ar  125  HIS125     -0.2268
     17  CD2      -37.3180   -7.4780  -19.5240 C.ar  125  HIS125      0.1154
     18  CE1      -37.4270   -5.9850  -21.1260 C.ar  125  HIS125      0.1986
     19  NE2      -36.6010   -6.7700  -20.4580 N.ar  125  HIS125     -0.2212
     20  N        -39.6340  -11.1380  -17.9880 N.am  126  TRP126     -0.1976
     21  CA       -38.8270  -12.1950  -17.3410 C.3   126  TRP126      0.1640
     22  C        -39.0270  -12.3920  -15.8340 C.2   126  TRP126      0.2290
     23  O        -38.5760  -13.3970  -15.2730 O.2   126  TRP126     -0.2864
     24  CB       -37.3230  -12.1000  -17.6760 C.3   126  TRP126      0.0576
     25  CG       -36.9890  -11.8590  -19.1280 C.ar  126  TRP126      0.0006
     26  CD1      -37.8140  -12.0230  -20.2110 C.ar  126  TRP126      0.0946
     27  CD2      -35.7260  -11.4330  -19.6500 C.ar  126  TRP126      0.0152
     28  NE1      -37.1420  -11.7100  -21.3690 N.ar  126  TRP126     -0.2442
     29  CE2      -35.8610  -11.3430  -21.0550 C.ar  126  TRP126      0.0810
     30  CE3      -34.4900  -11.1210  -19.0690 C.ar  126  TRP126      0.0012
     31  CZ2      -34.8080  -10.9460  -21.8840 C.ar  126  TRP126      0.0191
     32  CZ3      -33.4440  -10.7280  -19.8970 C.ar  126  TRP126      0.0001
     33  CH2      -33.6100  -10.6420  -21.2860 C.ar  126  TRP126      0.0015
     34  N        -41.3890  -10.0230  -23.7730 N.3   170  ASN170     -0.1225
     35  CA       -40.1140   -9.4860  -24.2250 C.3   170  ASN170      0.1785
     36  C        -39.0870  -10.5910  -24.4800 C.2   170  ASN170      0.2597
     37  O        -38.7840  -11.3820  -23.5850 O.2   170  ASN170     -0.2718
     38  CB       -39.5580   -8.4850  -23.2180 C.3   170  ASN170      0.1169
     39  CG       -38.1810   -8.0040  -23.5950 C.2   170  ASN170      0.2627
     40  OD1      -38.0320   -7.1430  -24.4560 O.2   170  ASN170     -0.2716
     41  ND2      -37.1600   -8.5700  -22.9620 N.am  170  ASN170     -0.0877
     42  N        -38.5530  -10.6130  -25.7020 N.am  171  GLU171     -0.1979
     43  CA       -37.5060  -11.5540  -26.1210 C.3   171  GLU171      0.1602
     44  C        -37.6500  -12.9460  -25.5010 C.2   171  GLU171      0.2287
     45  O        -36.8500  -13.3130  -24.6360 O.2   171  GLU171     -0.2864
     46  CB       -36.1110  -11.0040  -25.8010 C.3   171  GLU171      0.0415
     47  CG       -35.8750   -9.5670  -26.2140 C.3   171  GLU171      0.1163
     48  CD       -34.4520   -9.1070  -25.9300 C.2   171  GLU171      0.3649
     49  OE1      -33.8770   -9.5240  -24.8980 O.co2 171  GLU171     -0.2457
     50  OE2      -33.9040   -8.3300  -26.7400 O.co2 171  GLU171     -0.2457
     51  N        -28.9940   -5.5650  -31.5940 N.3   314  TYR314     -0.1241
     52  CA       -27.8030   -5.0830  -30.8950 C.3   314  TYR314      0.1605
     53  C        -26.5270   -5.3110  -31.6980 C.2   314  TYR314      0.2264
     54  O        -25.6930   -4.4110  -31.8190 O.2   314  TYR314     -0.2867
     55  CB       -27.6640   -5.7630  -29.5310 C.3   314  TYR314      0.0534
     56  CG       -28.5930   -5.2310  -28.4680 C.ar  314  TYR314     -0.0201
     57  CD1      -29.7340   -5.9370  -28.0990 C.ar  314  TYR314     -0.0009
     58  CD2      -28.3270   -4.0250  -27.8240 C.ar  314  TYR314     -0.0009
     59  CE1      -30.5900   -5.4530  -27.1190 C.ar  314  TYR314      0.0417
     60  CE2      -29.1760   -3.5320  -26.8420 C.ar  314  TYR314      0.0417
     61  CZ       -30.3030   -4.2520  -26.4970 C.ar  314  TYR314      0.1957
     62  OH       -31.1470   -3.7740  -25.5310 O.3   314  TYR314     -0.2866
     63  N        -20.7200  -10.0830  -25.5230 N.3   357  TRP357     -0.1241
     64  CA       -21.5450  -10.5550  -26.6320 C.3   357  TRP357      0.1605
     65  C        -21.9450   -9.4330  -27.6050 C.2   357  TRP357      0.2264
     66  O        -22.4540   -9.7010  -28.6950 O.2   357  TRP357     -0.2867
     67  CB       -22.7900  -11.2640  -26.0950 C.3   357  TRP357      0.0550
     68  CG       -23.6120  -10.4250  -25.1600 C.ar  357  TRP357      0.0003
     69  CD1      -23.5510  -10.4190  -23.7960 C.ar  357  TRP357      0.0946
     70  CD2      -24.6240   -9.4710  -25.5210 C.ar  357  TRP357      0.0152
     71  NE1      -24.4580   -9.5240  -23.2860 N.ar  357  TRP357     -0.2442
     72  CE2      -25.1290   -8.9270  -24.3220 C.ar  357  TRP357      0.0810
     73  CE3      -25.1500   -9.0220  -26.7440 C.ar  357  TRP357      0.0012
     74  CZ2      -26.1350   -7.9550  -24.3040 C.ar  357  TRP357      0.0191
     75  CZ3      -26.1500   -8.0580  -26.7270 C.ar  357  TRP357      0.0001
     76  CH2      -26.6320   -7.5350  -25.5130 C.ar  357  TRP357      0.0015
     77  N        -35.9330   -2.2200  -28.8000 N.3   385  GLU385     -0.1245
     78  CA       -34.6540   -2.1840  -28.0770 C.3   385  GLU385      0.1567
     79  C        -33.4840   -2.0380  -29.0320 C.2   385  GLU385      0.2260
     80  O        -33.3340   -2.8230  -29.9710 O.2   385  GLU385     -0.2867
     81  CB       -34.4340   -3.4580  -27.2600 C.3   385  GLU385      0.0388
     82  CG       -34.5990   -3.3370  -25.7620 C.3   385  GLU385      0.1160
     83  CD       -34.5950   -4.6990  -25.0820 C.2   385  GLU385      0.3649
     84  OE1      -33.5390   -5.0960  -24.5300 O.co2 385  GLU385     -0.2457
     85  OE2      -35.6430   -5.3840  -25.1210 O.co2 385  GLU385     -0.2457
     86  N        -32.5370    1.3110  -25.7160 N.3   434  TRP434     -0.1241
     87  CA       -32.1320    0.7170  -24.4440 C.3   434  TRP434      0.1605
     88  C        -30.8100    1.3510  -23.9880 C.2   434  TRP434      0.2264
     89  O        -29.7810    1.1560  -24.6340 O.2   434  TRP434     -0.2867
     90  CB       -31.9880   -0.8070  -24.5360 C.3   434  TRP434      0.0550
     91  CG       -31.8090   -1.4030  -23.1690 C.ar  434  TRP434      0.0003
     92  CD1      -30.6240   -1.6470  -22.5240 C.ar  434  TRP434      0.0946
     93  CD2      -32.8480   -1.7720  -22.2510 C.ar  434  TRP434      0.0152
     94  NE1      -30.8640   -2.1610  -21.2730 N.ar  434  TRP434     -0.2442
     95  CE2      -32.2190   -2.2490  -21.0790 C.ar  434  TRP434      0.0810
     96  CE3      -34.2460   -1.7650  -22.3130 C.ar  434  TRP434      0.0012
     97  CZ2      -32.9460   -2.7080  -19.9730 C.ar  434  TRP434      0.0191
     98  CZ3      -34.9660   -2.2230  -21.2160 C.ar  434  TRP434      0.0001
     99  CH2      -34.3130   -2.6820  -20.0610 C.ar  434  TRP434      0.0015
    100  N        -28.2980   -5.1870  -15.0260 N.3   441  GLU441     -0.1231
    101  CA       -28.1080   -5.9090  -16.2840 C.3   441  GLU441      0.1699
    102  C        -27.9850   -7.4180  -16.0480 C.2   441  GLU441      0.2592
    103  O        -26.9800   -8.0440  -16.3900 O.2   441  GLU441     -0.2718
    104  CB       -26.9320   -5.3310  -17.0900 C.3   441  GLU441      0.0402
    105  CG       -26.6060   -6.0650  -18.4030 C.3   441  GLU441      0.1161
    106  CD       -27.7450   -6.0970  -19.4220 C.2   441  GLU441      0.3649
    107  OE1      -28.7360   -5.3370  -19.2790 O.co2 441  GLU441     -0.2457
    108  OE2      -27.6330   -6.8910  -20.3860 O.co2 441  GLU441     -0.2457
    109  N        -29.0310   -7.9770  -15.4420 N.am  442  TRP442     -0.1976
    110  CA       -29.1880   -9.4210  -15.2560 C.3   442  TRP442      0.1640
    111  C        -27.9390  -10.1050  -14.6820 C.2   442  TRP442      0.2290
    112  O        -27.4710   -9.7210  -13.6060 O.2   442  TRP442     -0.2864
    113  CB       -29.6680  -10.0770  -16.5580 C.3   442  TRP442      0.0576
    114  CG       -30.8610   -9.3750  -17.1620 C.ar  442  TRP442      0.0006
    115  CD1      -30.8940   -8.6810  -18.3400 C.ar  442  TRP442      0.0946
    116  CD2      -32.1800   -9.2780  -16.6010 C.ar  442  TRP442      0.0152
    117  NE1      -32.1540   -8.1800  -18.5570 N.ar  442  TRP442     -0.2442
    118  CE2      -32.9630   -8.5270  -17.5050 C.ar  442  TRP442      0.0810
    119  CE3      -32.7790   -9.7620  -15.4270 C.ar  442  TRP442      0.0012
    120  CZ2      -34.3180   -8.2530  -17.2780 C.ar  442  TRP442      0.0191
    121  CZ3      -34.1260   -9.4850  -15.2000 C.ar  442  TRP442      0.0001
    122  CH2      -34.8770   -8.7340  -16.1220 C.ar  442  TRP442      0.0015
    123  N        -25.9340    0.6340  -19.4440 N.3   450  PHE450     -0.1241
    124  CA       -26.6110    0.7890  -20.7380 C.3   450  PHE450      0.1605
    125  C        -27.3220    2.1410  -20.9150 C.2   450  PHE450      0.2264
    126  O        -27.7900    2.4570  -22.0090 O.2   450  PHE450     -0.2867
    127  CB       -27.6350   -0.3410  -20.9510 C.3   450  PHE450      0.0534
    128  CG       -27.0950   -1.5370  -21.6980 C.ar  450  PHE450     -0.0203
    129  CD1      -27.1270   -1.5770  -23.0930 C.ar  450  PHE450     -0.0042
    130  CD2      -26.5830   -2.6350  -21.0090 C.ar  450  PHE450     -0.0042
    131  CE1      -26.6370   -2.6830  -23.7910 C.ar  450  PHE450     -0.0003
    132  CE2      -26.0940   -3.7430  -21.6920 C.ar  450  PHE450     -0.0003
    133  CZ       -26.1180   -3.7640  -23.0920 C.ar  450  PHE450     -0.0000
@<TRIPOS>BOND
     1    54    53    2
     2    53    52    1
     3    51    52    1
     4    52    55    1
     5    80    79    2
     6    55    56    1
     7    79    78    1
     8    77    78    1
     9    66    65    2
    10    56    57   ar
    11    56    58   ar
    12    57    59   ar
    13    78    81    1
    14    58    60   ar
    15    65    64    1
    16    81    82    1
    17    59    61   ar
    18    60    61   ar
    19    73    75   ar
    20    73    70   ar
    21    50    48   ar
    22    75    76   ar
    23    64    67    1
    24    64    63    1
    25    61    62    1
    26    47    48    1
    27    47    46    1
    28    43    46    1
    29    43    42    1
    30    43    44    1
    31    67    68    1
    32    48    49   ar
    33    82    83    1
    34    86    87    1
    35    42    36   am
    36    70    68   ar
    37    70    72   ar
    38    76    74   ar
    39    44    45    2
    40    68    69   ar
    41    85    83   ar
    42    83    84   ar
    43    89    88    2
    44    90    87    1
    45    90    91    1
    46    36    35    1
    47    36    37    2
    48    40    39    2
    49    87    88    1
    50    72    74   ar
    51    72    71   ar
    52    35    34    1
    53    35    38    1
    54    69    71   ar
    55   131   129   ar
    56   131   133   ar
    57    39    38    1
    58    39    41   am
    59    91    92   ar
    60    91    93   ar
    61   129   128   ar
    62   133   132   ar
    63    92    94   ar
    64    96    93   ar
    65    96    98   ar
    66    93    95   ar
    67   126   125    2
    68    31    33   ar
    69    31    29   ar
    70   128   130   ar
    71   128   127    1
    72   132   130   ar
    73    28    29   ar
    74    28    26   ar
    75    33    32   ar
    76    94    95   ar
    77    98    99   ar
    78    18    16   ar
    79    18    19   ar
    80    95    97   ar
    81    29    27   ar
    82   127   124    1
    83   125   124    1
    84   124   123    1
    85    16    15   ar
    86    19    17   ar
    87   108   106   ar
    88    26    25   ar
    89    99    97   ar
    90    32    30   ar
    91    27    25   ar
    92    27    30   ar
    93    15    17   ar
    94    15    14    1
    95   106   107   ar
    96   106   105    1
    97    25    24    1
    98    11    14    1
    99    11    10    1
   100    11    12    1
   101   117   115   ar
   102   117   118   ar
   103   105   104    1
   104   115   114   ar
   105     8     7    2
   106    12    20   am
   107    12    13    2
   108    20    21    1
   109     9     7   am
   110    24    21    1
   111   118   120   ar
   112   118   116   ar
   113    21    22    1
   114     7     6    1
   115   120   122   ar
   116   114   116   ar
   117   114   113    1
   118   104   101    1
   119   116   119   ar
   120   113   110    1
   121   103   102    2
   122   101   102    1
   123   101   100    1
   124   122   121   ar
   125   102   109   am
   126    22    23    2
   127     6     5    1
   128   109   110    1
   129   119   121   ar
   130   110   111    1
   131     5     2    1
   132   111   112    2
   133     2     1    1
   134     2     3    1
   135     3     4    2
