@<TRIPOS>MOLECULE
tmp/3ptqA00.pdb
 204 205 0 0 0
SMALL
GASTEIGER

@<TRIPOS>ATOM
      1  N        -35.3870   -4.6710  -13.7640 N.3    21  GLN21      -0.1245
      2  CA       -34.1140   -3.9680  -13.9390 C.3    21  GLN21       0.1566
      3  C        -34.1070   -2.5580  -13.3590 C.2    21  GLN21       0.2260
      4  O        -33.0520   -2.0510  -13.0400 O.2    21  GLN21      -0.2867
      5  CB       -33.6890   -3.9550  -15.4120 C.3    21  GLN21       0.0367
      6  CG       -33.3620   -5.3440  -15.9570 C.3    21  GLN21       0.0905
      7  CD       -33.1170   -5.3510  -17.4430 C.2    21  GLN21       0.2608
      8  OE1      -34.0520   -5.4510  -18.2380 O.2    21  GLN21      -0.2717
      9  NE2      -31.8580   -5.2590  -17.8330 N.am   21  GLN21      -0.0878
     10  N        -41.6470   -9.2650  -18.9750 N.3   125  HIS125     -0.1226
     11  CA       -40.2190   -9.0620  -19.1560 C.3   125  HIS125      0.1752
     12  C        -39.3950   -9.9370  -18.1930 C.2   125  HIS125      0.2596
     13  O        -38.5020   -9.4420  -17.4950 O.2   125  HIS125     -0.2718
     14  CB       -39.8700   -7.5920  -18.9560 C.3   125  HIS125      0.0759
     15  CG       -38.6910   -7.1400  -19.7550 C.ar  125  HIS125      0.0818
     16  ND1      -38.7690   -6.1310  -20.6870 N.ar  125  HIS125     -0.2268
     17  CD2      -37.4080   -7.5670  -19.7700 C.ar  125  HIS125      0.1154
     18  CE1      -37.5830   -5.9440  -21.2340 C.ar  125  HIS125      0.1986
     19  NE2      -36.7380   -6.8010  -20.6910 N.ar  125  HIS125     -0.2212
     20  N        -39.7210  -11.2350  -18.1610 N.am  126  TRP126     -0.1976
     21  CA       -38.9430  -12.3090  -17.4890 C.3   126  TRP126      0.1640
     22  C        -39.1760  -12.5100  -15.9910 C.2   126  TRP126      0.2290
     23  O        -38.7120  -13.5130  -15.4100 O.2   126  TRP126     -0.2864
     24  CB       -37.4280  -12.2230  -17.7480 C.3   126  TRP126      0.0576
     25  CG       -36.9990  -11.9930  -19.1710 C.ar  126  TRP126      0.0006
     26  CD1      -37.7500  -12.1250  -20.3000 C.ar  126  TRP126      0.0946
     27  CD2      -35.6870  -11.6150  -19.6060 C.ar  126  TRP126      0.0152
     28  NE1      -36.9890  -11.8420  -21.4180 N.ar  126  TRP126     -0.2442
     29  CE2      -35.7210  -11.5190  -21.0140 C.ar  126  TRP126      0.0810
     30  CE3      -34.4850  -11.3470  -18.9410 C.ar  126  TRP126      0.0012
     31  CZ2      -34.5980  -11.1560  -21.7630 C.ar  126  TRP126      0.0191
     32  CZ3      -33.3800  -10.9980  -19.6810 C.ar  126  TRP126      0.0001
     33  CH2      -33.4410  -10.8970  -21.0730 C.ar  126  TRP126      0.0015
     34  N        -41.3840  -10.0900  -23.8600 N.3   170  ASN170     -0.1225
     35  CA       -40.1100   -9.5670  -24.3020 C.3   170  ASN170      0.1785
     36  C        -39.0560  -10.6620  -24.5340 C.2   170  ASN170      0.2597
     37  O        -38.7680  -11.4500  -23.6350 O.2   170  ASN170     -0.2718
     38  CB       -39.5720   -8.5370  -23.3120 C.3   170  ASN170      0.1169
     39  CG       -38.1740   -8.1270  -23.6420 C.2   170  ASN170      0.2627
     40  OD1      -37.9590   -7.3730  -24.5820 O.2   170  ASN170     -0.2716
     41  ND2      -37.2030   -8.6510  -22.8990 N.am  170  ASN170     -0.0877
     42  N        -38.4710  -10.6630  -25.7310 N.am  171  GLU171     -0.1979
     43  CA       -37.3920  -11.5870  -26.0960 C.3   171  GLU171      0.1602
     44  C        -37.6090  -13.0170  -25.5520 C.2   171  GLU171      0.2287
     45  O        -36.8580  -13.4700  -24.6930 O.2   171  GLU171     -0.2864
     46  CB       -36.0330  -11.0470  -25.6430 C.3   171  GLU171      0.0415
     47  CG       -35.7310   -9.6080  -26.0660 C.3   171  GLU171      0.1163
     48  CD       -34.2410   -9.2170  -25.9060 C.2   171  GLU171      0.3649
     49  OE1      -33.4990   -9.9390  -25.2120 O.co2 171  GLU171     -0.2457
     50  OE2      -33.8020   -8.1830  -26.4670 O.co2 171  GLU171     -0.2457
     51  N        -36.8380  -15.6520  -26.9730 N.3   173  TRP173     -0.1227
     52  CA       -35.5760  -16.3260  -27.2800 C.3   173  TRP173      0.1737
     53  C        -34.6400  -16.2950  -26.0850 C.2   173  TRP173      0.2596
     54  O        -34.1660  -17.3370  -25.6300 O.2   173  TRP173     -0.2718
     55  CB       -34.8710  -15.6620  -28.4620 C.3   173  TRP173      0.0564
     56  CG       -33.5510  -16.2730  -28.7550 C.ar  173  TRP173      0.0003
     57  CD1      -33.3260  -17.3920  -29.4890 C.ar  173  TRP173      0.0946
     58  CD2      -32.2640  -15.8180  -28.3140 C.ar  173  TRP173      0.0152
     59  NE1      -31.9830  -17.6670  -29.5440 N.ar  173  TRP173     -0.2442
     60  CE2      -31.3060  -16.7170  -28.8290 C.ar  173  TRP173      0.0810
     61  CE3      -31.8260  -14.7400  -27.5360 C.ar  173  TRP173      0.0012
     62  CZ2      -29.9300  -16.5700  -28.5960 C.ar  173  TRP173      0.0191
     63  CZ3      -30.4640  -14.5980  -27.2950 C.ar  173  TRP173      0.0001
     64  CH2      -29.5310  -15.5070  -27.8310 C.ar  173  TRP173      0.0015
     65  N        -34.3640  -15.0840  -25.6000 N.am  174  THR174     -0.1953
     66  CA       -33.4250  -14.8900  -24.5060 C.3   174  THR174      0.1897
     67  C        -33.9220  -15.6240  -23.2740 C.2   174  THR174      0.2313
     68  O        -33.1600  -16.3220  -22.6090 O.2   174  THR174     -0.2863
     69  CB       -33.2000  -13.3900  -24.1690 C.3   174  THR174      0.1794
     70  OG1      -33.0780  -12.6240  -25.3740 O.3   174  THR174     -0.2208
     71  CG2      -31.9310  -13.2170  -23.3440 C.3   174  THR174      0.0378
     72  N        -31.5660  -18.8110  -22.3650 N.3   178  ASN178     -0.1240
     73  CA       -30.7870  -18.6190  -21.1420 C.3   178  ASN178      0.1653
     74  C        -31.4030  -19.2210  -19.8830 C.2   178  ASN178      0.2266
     75  O        -30.6940  -19.5960  -18.9610 O.2   178  ASN178     -0.2867
     76  CB       -30.4850  -17.1380  -20.9120 C.3   178  ASN178      0.1155
     77  CG       -29.4300  -16.6180  -21.8410 C.2   178  ASN178      0.2627
     78  OD1      -28.7490  -17.3900  -22.5260 O.2   178  ASN178     -0.2716
     79  ND2      -29.2780  -15.3040  -21.8800 N.am  178  ASN178     -0.0877
     80  N        -29.6370  -17.6880  -16.8720 N.3   185  PHE185     -0.1241
     81  CA       -30.6430  -16.7550  -16.3280 C.3   185  PHE185      0.1605
     82  C        -31.6470  -17.5380  -15.5170 C.2   185  PHE185      0.2264
     83  O        -31.7450  -18.7400  -15.6560 O.2   185  PHE185     -0.2867
     84  CB       -31.4420  -16.0680  -17.4500 C.3   185  PHE185      0.0534
     85  CG       -30.7280  -14.9360  -18.1360 C.ar  185  PHE185     -0.0203
     86  CD1      -29.3930  -14.6470  -17.8650 C.ar  185  PHE185     -0.0042
     87  CD2      -31.3950  -14.1890  -19.1060 C.ar  185  PHE185     -0.0042
     88  CE1      -28.7470  -13.6270  -18.5380 C.ar  185  PHE185     -0.0003
     89  CE2      -30.7590  -13.1840  -19.7780 C.ar  185  PHE185     -0.0003
     90  CZ       -29.4330  -12.8900  -19.4970 C.ar  185  PHE185     -0.0000
     91  N        -35.9700  -10.6460  -30.3040 N.3   242  VAL242     -0.1245
     92  CA       -34.5820  -10.3250  -30.6680 C.3   242  VAL242      0.1561
     93  C        -34.1210  -11.0800  -31.8850 C.2   242  VAL242      0.2260
     94  O        -34.5000  -12.2270  -32.1060 O.2   242  VAL242     -0.2867
     95  CB       -33.4950  -10.7430  -29.6220 C.3   242  VAL242      0.0252
     96  CG1      -32.6390   -9.5660  -29.1900 C.3   242  VAL242      0.0019
     97  CG2      -34.0300  -11.6120  -28.4830 C.3   242  VAL242      0.0019
     98  N        -30.0550  -11.2890  -33.7810 N.3   244  HIS244     -0.1241
     99  CA       -28.7900  -10.8160  -34.3090 C.3   244  HIS244      0.1621
    100  C        -28.9310  -10.7990  -35.8260 C.2   244  HIS244      0.2264
    101  O        -29.9020  -11.3300  -36.3830 O.2   244  HIS244     -0.2867
    102  CB       -27.6320  -11.7620  -33.9600 C.3   244  HIS244      0.0745
    103  CG       -27.4230  -11.9860  -32.4960 C.ar  244  HIS244      0.0817
    104  ND1      -27.7790  -11.0650  -31.5330 N.ar  244  HIS244     -0.2268
    105  CD2      -26.8530  -13.0190  -31.8340 C.ar  244  HIS244      0.1154
    106  CE1      -27.4540  -11.5300  -30.3400 C.ar  244  HIS244      0.1986
    107  NE2      -26.8870  -12.7130  -30.4960 N.ar  244  HIS244     -0.2212
    108  N        -29.0590   -5.6720  -31.5820 N.3   314  TYR314     -0.1241
    109  CA       -27.8240   -5.2390  -30.9370 C.3   314  TYR314      0.1605
    110  C        -26.5710   -5.4970  -31.7580 C.2   314  TYR314      0.2264
    111  O        -25.6810   -4.6560  -31.7890 O.2   314  TYR314     -0.2867
    112  CB       -27.6640   -5.9180  -29.5830 C.3   314  TYR314      0.0534
    113  CG       -28.6370   -5.4380  -28.5490 C.ar  314  TYR314     -0.0201
    114  CD1      -28.3380   -4.3390  -27.7390 C.ar  314  TYR314     -0.0009
    115  CD2      -29.8590   -6.0670  -28.3820 C.ar  314  TYR314     -0.0009
    116  CE1      -29.2360   -3.8860  -26.7860 C.ar  314  TYR314      0.0417
    117  CE2      -30.7660   -5.6170  -27.4430 C.ar  314  TYR314      0.0417
    118  CZ       -30.4440   -4.5340  -26.6470 C.ar  314  TYR314      0.1957
    119  OH       -31.3480   -4.1120  -25.7100 O.3   314  TYR314     -0.2866
    120  N        -20.7830  -10.2970  -25.5270 N.3   357  TRP357     -0.1241
    121  CA       -21.5720  -10.7160  -26.6810 C.3   357  TRP357      0.1605
    122  C        -21.9420   -9.5740  -27.6500 C.2   357  TRP357      0.2264
    123  O        -22.4540   -9.8280  -28.7400 O.2   357  TRP357     -0.2867
    124  CB       -22.8460  -11.3980  -26.2050 C.3   357  TRP357      0.0550
    125  CG       -23.6780  -10.5370  -25.3000 C.ar  357  TRP357      0.0003
    126  CD1      -23.6730  -10.5450  -23.9360 C.ar  357  TRP357      0.0946
    127  CD2      -24.6380   -9.5430  -25.6920 C.ar  357  TRP357      0.0152
    128  NE1      -24.5720   -9.6310  -23.4540 N.ar  357  TRP357     -0.2442
    129  CE2      -25.1790   -8.9990  -24.5060 C.ar  357  TRP357      0.0810
    130  CE3      -25.0980   -9.0630  -26.9300 C.ar  357  TRP357      0.0012
    131  CZ2      -26.1540   -7.9870  -24.5170 C.ar  357  TRP357      0.0191
    132  CZ3      -26.0710   -8.0580  -26.9430 C.ar  357  TRP357      0.0001
    133  CH2      -26.5850   -7.5310  -25.7430 C.ar  357  TRP357      0.0015
    134  N        -35.9090   -2.2090  -28.8280 N.3   385  GLU385     -0.1245
    135  CA       -34.6180   -2.0480  -28.1290 C.3   385  GLU385      0.1567
    136  C        -33.4540   -1.9280  -29.0930 C.2   385  GLU385      0.2260
    137  O        -33.3540   -2.6880  -30.0470 O.2   385  GLU385     -0.2867
    138  CB       -34.3170   -3.2060  -27.1610 C.3   385  GLU385      0.0388
    139  CG       -35.1930   -3.2610  -25.9020 C.3   385  GLU385      0.1160
    140  CD       -34.8700   -4.4350  -24.9720 C.2   385  GLU385      0.3649
    141  OE1      -33.7420   -4.9790  -25.0460 O.co2 385  GLU385     -0.2457
    142  OE2      -35.7480   -4.8050  -24.1530 O.co2 385  GLU385     -0.2457
    143  N        -32.4750    1.3240  -25.8720 N.3   434  TRP434     -0.1241
    144  CA       -32.1100    0.7010  -24.6000 C.3   434  TRP434      0.1605
    145  C        -30.8140    1.3160  -24.0590 C.2   434  TRP434      0.2264
    146  O        -29.7550    1.1330  -24.6570 O.2   434  TRP434     -0.2867
    147  CB       -31.9400   -0.8180  -24.7210 C.3   434  TRP434      0.0550
    148  CG       -31.7400   -1.4360  -23.3660 C.ar  434  TRP434      0.0003
    149  CD1      -30.5440   -1.7290  -22.7640 C.ar  434  TRP434      0.0946
    150  CD2      -32.7680   -1.7890  -22.4160 C.ar  434  TRP434      0.0152
    151  NE1      -30.7650   -2.2540  -21.5090 N.ar  434  TRP434     -0.2442
    152  CE2      -32.1180   -2.3010  -21.2690 C.ar  434  TRP434      0.0810
    153  CE3      -34.1740   -1.7300  -22.4290 C.ar  434  TRP434      0.0012
    154  CZ2      -32.8220   -2.7440  -20.1430 C.ar  434  TRP434      0.0191
    155  CZ3      -34.8780   -2.1750  -21.3030 C.ar  434  TRP434      0.0001
    156  CH2      -34.1970   -2.6760  -20.1780 C.ar  434  TRP434      0.0015
    157  N        -28.3630   -5.3330  -15.1130 N.3   441  GLU441     -0.1231
    158  CA       -28.1780   -6.0370  -16.3770 C.3   441  GLU441      0.1699
    159  C        -28.0350   -7.5510  -16.1590 C.2   441  GLU441      0.2592
    160  O        -27.0250   -8.1600  -16.4970 O.2   441  GLU441     -0.2718
    161  CB       -27.0030   -5.4380  -17.1730 C.3   441  GLU441      0.0402
    162  CG       -26.6440   -6.1400  -18.4960 C.3   441  GLU441      0.1161
    163  CD       -27.7950   -6.2490  -19.5180 C.2   441  GLU441      0.3649
    164  OE1      -28.8380   -5.5440  -19.4080 O.co2 441  GLU441     -0.2457
    165  OE2      -27.6350   -7.0590  -20.4580 O.co2 441  GLU441     -0.2457
    166  N        -29.0740   -8.1280  -15.5600 N.am  442  TRP442     -0.1962
    167  CA       -29.2120   -9.5700  -15.3940 C.3   442  TRP442      0.1771
    168  C        -27.9470  -10.2210  -14.8290 C.2   442  TRP442      0.2620
    169  O        -27.4440   -9.7760  -13.7840 O.2   442  TRP442     -0.2715
    170  CB       -29.6530  -10.2110  -16.7110 C.3   442  TRP442      0.0590
    171  CG       -30.8370   -9.5060  -17.3090 C.ar  442  TRP442      0.0006
    172  CD1      -30.8520   -8.7880  -18.4660 C.ar  442  TRP442      0.0946
    173  CD2      -32.1650   -9.4100  -16.7570 C.ar  442  TRP442      0.0152
    174  NE1      -32.1030   -8.2800  -18.6850 N.ar  442  TRP442     -0.2442
    175  CE2      -32.9290   -8.6380  -17.6530 C.ar  442  TRP442      0.0810
    176  CE3      -32.7810   -9.9130  -15.6000 C.ar  442  TRP442      0.0012
    177  CZ2      -34.2880   -8.3660  -17.4470 C.ar  442  TRP442      0.0191
    178  CZ3      -34.1400   -9.6320  -15.3890 C.ar  442  TRP442      0.0001
    179  CH2      -34.8680   -8.8580  -16.3060 C.ar  442  TRP442      0.0015
    180  N        -27.4150  -11.2340  -15.5280 N.am  443  SER443     -0.1936
    181  CA       -26.2550  -11.9800  -15.0280 C.3   443  SER443      0.2055
    182  C        -24.9970  -11.1240  -14.9710 C.2   443  SER443      0.2643
    183  O        -24.0020  -11.5380  -14.3920 O.2   443  SER443     -0.2714
    184  CB       -26.0180  -13.2610  -15.8310 C.3   443  SER443      0.2130
    185  OG       -25.3230  -13.0000  -17.0400 O.3   443  SER443     -0.2179
    186  N        -25.0520   -9.9280  -15.5520 N.am  444  ASN444     -0.1971
    187  CA       -23.9650   -8.9580  -15.4160 C.3   444  ASN444      0.1688
    188  C        -24.0990   -7.9510  -14.2660 C.2   444  ASN444      0.2292
    189  O        -23.1880   -7.1390  -14.0200 O.2   444  ASN444     -0.2864
    190  CB       -23.7130   -8.2590  -16.7400 C.3   444  ASN444      0.1181
    191  CG       -22.5160   -8.8290  -17.4610 C.2   444  ASN444      0.2629
    192  OD1      -21.4740   -9.0870  -16.8480 O.2   444  ASN444     -0.2716
    193  ND2      -22.6490   -9.0290  -18.7700 N.am  444  ASN444     -0.0877
    194  N        -25.8980    0.5560  -19.4770 N.3   450  PHE450     -0.1241
    195  CA       -26.5200    0.7400  -20.7830 C.3   450  PHE450      0.1605
    196  C        -27.2100    2.1010  -20.9440 C.2   450  PHE450      0.2264
    197  O        -27.6490    2.4470  -22.0370 O.2   450  PHE450     -0.2867
    198  CB       -27.5440   -0.3710  -21.0550 C.3   450  PHE450      0.0534
    199  CG       -26.9850   -1.5800  -21.7590 C.ar  450  PHE450     -0.0203
    200  CD1      -26.9990   -1.6560  -23.1500 C.ar  450  PHE450     -0.0042
    201  CD2      -26.5070   -2.6760  -21.0260 C.ar  450  PHE450     -0.0042
    202  CE1      -26.5100   -2.7810  -23.8130 C.ar  450  PHE450     -0.0003
    203  CE2      -26.0180   -3.8110  -21.6710 C.ar  450  PHE450     -0.0003
    204  CZ       -26.0080   -3.8620  -23.0750 C.ar  450  PHE450     -0.0000
@<TRIPOS>BOND
     1   101   100    2
     2   100    99    1
     3    99   102    1
     4    99    98    1
     5   102   103    1
     6   103   105   ar
     7   103   104   ar
     8    94    93    2
     9    93    92    1
    10   105   107   ar
    11   111   110    2
    12   110   109    1
    13   108   109    1
    14   104   106   ar
    15   109   112    1
    16    92    91    1
    17    92    95    1
    18   107   106   ar
    19   137   136    2
    20    95    96    1
    21    95    97    1
    22   112   113    1
    23    59    57   ar
    24    59    60   ar
    25    57    56   ar
    26   136   135    1
    27    60    62   ar
    28    60    58   ar
    29   134   135    1
    30    56    55    1
    31    56    58   ar
    32   123   122    2
    33    62    64   ar
    34   113   115   ar
    35   113   114   ar
    36    55    52    1
    37   115   117   ar
    38    58    61   ar
    39   135   138    1
    40    64    63   ar
    41   114   116   ar
    42   122   121    1
    43    61    63   ar
    44   117   118   ar
    45    52    51    1
    46    52    53    1
    47   138   139    1
    48   132   130   ar
    49   132   133   ar
    50   130   127   ar
    51   116   118   ar
    52   121   124    1
    53   121   120    1
    54   118   119    1
    55    50    48   ar
    56   124   125    1
    57    43    42    1
    58    43    46    1
    59    43    44    1
    60    53    54    2
    61    53    65   am
    62    47    48    1
    63    47    46    1
    64    48    49   ar
    65   139   140    1
    66   143   144    1
    67   133   131   ar
    68    42    36   am
    69   127   125   ar
    70   127   129   ar
    71    65    66    1
    72    44    45    2
    73    70    69    1
    74   125   126   ar
    75   141   140   ar
    76   140   142   ar
    77   147   144    1
    78   147   148    1
    79   146   145    2
    80   144   145    1
    81    40    39    2
    82    36    35    1
    83    36    37    2
    84   131   129   ar
    85   129   128   ar
    86    66    69    1
    87    66    67    1
    88    35    34    1
    89    35    38    1
    90    69    71    1
    91   126   128   ar
    92   202   200   ar
    93   202   204   ar
    94    39    38    1
    95    39    41   am
    96   148   149   ar
    97   148   150   ar
    98    67    68    2
    99   200   199   ar
   100   204   203   ar
   101   149   151   ar
   102    78    77    2
   103   153   150   ar
   104   153   155   ar
   105   150   152   ar
   106    72    73    1
   107   197   196    2
   108    79    77   am
   109    77    76    1
   110    31    33   ar
   111    31    29   ar
   112   199   198    1
   113   199   201   ar
   114   203   201   ar
   115   151   152   ar
   116    28    29   ar
   117    28    26   ar
   118   155   156   ar
   119   152   154   ar
   120    18    19   ar
   121    18    16   ar
   122    73    76    1
   123    73    74    1
   124    33    32   ar
   125   198   195    1
   126    29    27   ar
   127   196   195    1
   128   195   194    1
   129    19    17   ar
   130    16    15   ar
   131   165   163   ar
   132    26    25   ar
   133   156   154   ar
   134    74    75    2
   135    89    90   ar
   136    89    87   ar
   137    17    15   ar
   138    15    14    1
   139    32    30   ar
   140    27    25   ar
   141    27    30   ar
   142   163   164   ar
   143   163   162    1
   144    90    88   ar
   145    25    24    1
   146    11    10    1
   147    11    14    1
   148    11    12    1
   149    87    85   ar
   150   193   191   am
   151   174   172   ar
   152   174   175   ar
   153    88    86   ar
   154   162   161    1
   155   172   171   ar
   156     8     7    2
   157    12    20   am
   158    12    13    2
   159    20    21    1
   160    85    86   ar
   161    85    84    1
   162     9     7   am
   163    24    21    1
   164   175   177   ar
   165   175   173   ar
   166    21    22    1
   167   191   192    2
   168   191   190    1
   169    84    81    1
   170   177   179   ar
   171     7     6    1
   172   171   173   ar
   173   171   170    1
   174   161   158    1
   175   185   184    1
   176    80    81    1
   177   173   176   ar
   178   190   187    1
   179   170   167    1
   180   160   159    2
   181   158   159    1
   182   158   157    1
   183    81    82    1
   184   179   178   ar
   185   159   166   am
   186    22    23    2
   187     6     5    1
   188   184   181    1
   189    83    82    2
   190   176   178   ar
   191   166   167    1
   192   186   187    1
   193   186   182   am
   194   180   181    1
   195   180   168   am
   196   187   188    1
   197     5     2    1
   198   167   168    1
   199   181   182    1
   200   182   183    2
   201   168   169    2
   202   188   189    2
   203     2     1    1
   204     2     3    1
   205     3     4    2
