@<TRIPOS>MOLECULE
tmp/3pukA00.pdb
 198 191 0 0 0
SMALL
GASTEIGER

@<TRIPOS>ATOM
      1  N        -32.5370  -50.6280  116.0680 N.3    11  LYS11      -0.1245
      2  CA       -33.3420  -51.1270  114.9600 C.3    11  LYS11       0.1561
      3  C        -34.0470  -52.4230  115.3300 C.2    11  LYS11       0.2260
      4  O        -35.2700  -52.5150  115.2560 O.2    11  LYS11      -0.2867
      5  CB       -32.4800  -51.3470  113.7180 C.3    11  LYS11       0.0271
      6  CG       -33.2030  -52.0790  112.6010 C.3    11  LYS11       0.0035
      7  CD       -32.4080  -52.0540  111.3070 C.3    11  LYS11       0.0206
      8  CE       -33.2300  -52.6050  110.1520 C.3    11  LYS11       0.1093
      9  NZ       -32.5190  -52.4980  108.8470 N.3    11  LYS11      -0.1314
     10  N        -37.9230  -52.8960  115.2730 N.3    15  ALA15      -0.1245
     11  CA       -38.2990  -53.6280  114.0720 C.3    15  ALA15       0.1562
     12  C        -38.8090  -55.0170  114.4220 C.2    15  ALA15       0.2260
     13  O        -39.6490  -55.5740  113.7170 O.2    15  ALA15      -0.2867
     14  CB       -37.1110  -53.7240  113.1160 C.3    15  ALA15       0.0290
     15  N        -33.6840  -60.5620  103.0220 N.3   107  PHE107     -0.1227
     16  CA       -34.7340  -60.9570  102.0890 C.3   107  PHE107      0.1736
     17  C        -34.8410  -62.4750  101.9700 C.2   107  PHE107      0.2595
     18  O        -33.8310  -63.1810  101.9470 O.2   107  PHE107     -0.2718
     19  CB       -34.5110  -60.3260  100.7110 C.3   107  PHE107      0.0547
     20  CG       -34.7130  -58.8350  100.6870 C.ar  107  PHE107     -0.0202
     21  CD1      -33.7840  -58.0040  100.0850 C.ar  107  PHE107     -0.0042
     22  CD2      -35.8290  -58.2640  101.2760 C.ar  107  PHE107     -0.0042
     23  CE1      -33.9700  -56.6350  100.0670 C.ar  107  PHE107     -0.0003
     24  CE2      -36.0200  -56.8970  101.2640 C.ar  107  PHE107     -0.0003
     25  CZ       -35.0890  -56.0810  100.6570 C.ar  107  PHE107     -0.0000
     26  N        -36.0720  -62.9700  101.8970 N.am  108  CYS108     -0.1970
     27  CA       -36.3160  -64.4060  101.8360 C.3   108  CYS108      0.1712
     28  C        -36.7370  -64.8390  100.4370 C.2   108  CYS108      0.2296
     29  O        -37.7730  -64.4040   99.9360 O.2   108  CYS108     -0.2864
     30  CB       -37.3840  -64.8080  102.8550 C.3   108  CYS108      0.0983
     31  SG       -37.6410  -66.5890  103.0070 S.3   108  CYS108     -0.0798
     32  N        -38.1120  -66.8670   97.1310 N.3   110  ASP110     -0.1239
     33  CA       -39.4040  -67.5030   96.8990 C.3   110  ASP110      0.1674
     34  C        -39.3430  -69.0030   97.1710 C.2   110  ASP110      0.2266
     35  O        -40.2970  -69.5870   97.6830 O.2   110  ASP110     -0.2867
     36  CB       -39.8870  -67.2450   95.4700 C.3   110  ASP110      0.1410
     37  CG       -40.2950  -65.8020   95.2440 C.2   110  ASP110      0.3668
     38  OD1      -39.6530  -64.9020   95.8260 O.co2 110  ASP110     -0.2456
     39  OD2      -41.2560  -65.5690   94.4810 O.co2 110  ASP110     -0.2456
     40  N        -39.6030  -69.3350  100.9600 N.3   113  PHE113     -0.1241
     41  CA       -40.8740  -68.7510  101.3700 C.3   113  PHE113      0.1605
     42  C        -42.0430  -69.6510  100.9840 C.2   113  PHE113      0.2264
     43  O        -42.9570  -69.8690  101.7770 O.2   113  PHE113     -0.2867
     44  CB       -41.0590  -67.3590  100.7610 C.3   113  PHE113      0.0534
     45  CG       -42.2560  -66.6210  101.2930 C.ar  113  PHE113     -0.0203
     46  CD1      -42.1070  -65.6200  102.2370 C.ar  113  PHE113     -0.0042
     47  CD2      -43.5320  -66.9380  100.8590 C.ar  113  PHE113     -0.0042
     48  CE1      -43.2070  -64.9460  102.7320 C.ar  113  PHE113     -0.0003
     49  CE2      -44.6350  -66.2660  101.3480 C.ar  113  PHE113     -0.0003
     50  CZ       -44.4730  -65.2690  102.2860 C.ar  113  PHE113     -0.0000
     51  N        -42.5740  -72.3210  103.1790 N.3   116  ILE116     -0.1231
     52  CA       -43.1100  -71.7900  104.4280 C.3   116  ILE116      0.1692
     53  C        -44.6060  -71.5070  104.3250 C.2   116  ILE116      0.2591
     54  O        -45.4050  -72.0750  105.0680 O.2   116  ILE116     -0.2718
     55  CB       -42.3860  -70.4960  104.8490 C.3   116  ILE116      0.0266
     56  CG1      -40.9770  -70.8100  105.3520 C.3   116  ILE116      0.0019
     57  CG2      -43.1790  -69.7620  105.9210 C.3   116  ILE116      0.0020
     58  CD1      -40.2180  -69.5920  105.8260 C.3   116  ILE116      0.0001
     59  N        -44.9740  -70.6260  103.3990 N.am  117  LYS117     -0.1980
     60  CA       -46.3660  -70.2250  103.2270 C.3   117  LYS117      0.1596
     61  C        -47.2830  -71.4340  103.0890 C.2   117  LYS117      0.2287
     62  O        -48.3180  -71.5190  103.7500 O.2   117  LYS117     -0.2864
     63  CB       -46.5190  -69.3270  101.9990 C.3   117  LYS117      0.0298
     64  CG       -47.8690  -68.6320  101.9130 C.3   117  LYS117      0.0038
     65  CD       -48.2900  -68.4020  100.4720 C.3   117  LYS117      0.0206
     66  CE       -48.6280  -69.7170   99.7870 C.3   117  LYS117      0.1093
     67  NZ       -49.1940  -69.5140   98.4250 N.3   117  LYS117     -0.1314
     68  N        -49.3970  -72.9250  108.6490 N.3   121  SER121     -0.1202
     69  CA       -50.0870  -71.9760  109.5120 C.3   121  SER121      0.2020
     70  C        -50.6510  -70.8060  108.7020 C.2   121  SER121      0.2618
     71  O        -50.1300  -70.5120  107.6260 O.2   121  SER121     -0.2717
     72  CB       -49.1180  -71.4760  110.5780 C.3   121  SER121      0.2103
     73  OG       -48.6630  -72.5490  111.3840 O.3   121  SER121     -0.2182
     74  N        -51.6950  -70.1220  109.1840 N.am  122  LYS122     -0.1979
     75  CA       -52.3580  -70.3210  110.4860 C.3   122  LYS122      0.1596
     76  C        -51.6300  -69.6520  111.6570 C.2   122  LYS122      0.2287
     77  O        -51.7440  -68.4430  111.8560 O.2   122  LYS122     -0.2864
     78  CB       -52.6640  -71.7960  110.7840 C.3   122  LYS122      0.0298
     79  CG       -53.6290  -72.4450  109.8050 C.3   122  LYS122      0.0038
     80  CD       -53.8510  -73.9080  110.1510 C.3   122  LYS122      0.0206
     81  CE       -54.7910  -74.5760  109.1620 C.3   122  LYS122      0.1093
     82  NZ       -54.9960  -76.0160  109.4810 N.3   122  LYS122     -0.1314
     83  N        -48.6250  -68.8050  112.0300 N.3   124  ILE124     -0.1231
     84  CA       -47.7310  -67.7390  111.5860 C.3   124  ILE124      0.1692
     85  C        -48.4600  -66.4020  111.5190 C.2   124  ILE124      0.2592
     86  O        -49.0850  -66.0760  110.5120 O.2   124  ILE124     -0.2718
     87  CB       -47.1110  -68.0430  110.2100 C.3   124  ILE124      0.0266
     88  CG1      -46.3690  -69.3800  110.2420 C.3   124  ILE124      0.0019
     89  CG2      -46.1630  -66.9280  109.8020 C.3   124  ILE124      0.0020
     90  CD1      -45.7420  -69.7560  108.9160 C.3   124  ILE124      0.0001
     91  N        -48.3750  -65.6340  112.6000 N.am  125  ARG125     -0.1966
     92  CA       -49.0730  -64.3590  112.6930 C.3   125  ARG125      0.1729
     93  C        -48.2620  -63.2330  112.0600 C.2   125  ARG125      0.2616
     94  O        -48.7360  -62.1020  111.9550 O.2   125  ARG125     -0.2715
     95  CB       -49.3930  -64.0290  114.1550 C.3   125  ARG125      0.0348
     96  CG       -50.2240  -62.7680  114.3470 C.3   125  ARG125      0.0492
     97  CD       -51.4920  -62.8000  113.5020 C.3   125  ARG125      0.2205
     98  NE       -52.4050  -63.8630  113.9140 N.pl3 125  ARG125     -0.0865
     99  CZ       -53.5790  -64.1020  113.3380 C.cat 125  ARG125      0.5346
    100  NH1      -53.9860  -63.3530  112.3220 N.pl3 125  ARG125      0.1354
    101  NH2      -54.3460  -65.0900  113.7780 N.pl3 125  ARG125      0.1354
    102  N        -47.0420  -63.5450  111.6290 N.am  126  ARG126     -0.1963
    103  CA       -46.1800  -62.5310  111.0300 C.3   126  ARG126      0.1729
    104  C        -44.9030  -63.0870  110.4030 C.2   126  ARG126      0.2616
    105  O        -44.2010  -63.9010  111.0030 O.2   126  ARG126     -0.2715
    106  CB       -45.8140  -61.4730  112.0690 C.3   126  ARG126      0.0348
    107  CG       -45.0220  -60.3160  111.5050 C.3   126  ARG126      0.0492
    108  CD       -44.6510  -59.3390  112.6000 C.3   126  ARG126      0.2205
    109  NE       -45.7180  -59.2020  113.5850 N.pl3 126  ARG126     -0.0865
    110  CZ       -46.8290  -58.5030  113.3860 C.cat 126  ARG126      0.5346
    111  NH1      -47.0200  -57.8770  112.2300 N.pl3 126  ARG126      0.1354
    112  NH2      -47.7490  -58.4340  114.3420 N.pl3 126  ARG126      0.1354
    113  N        -44.6150  -62.6350  109.1860 N.am  127  CYS127     -0.1954
    114  CA       -43.3500  -62.9270  108.5250 C.3   127  CYS127      0.1843
    115  C        -42.7650  -61.6240  107.9960 C.2   127  CYS127      0.2625
    116  O        -43.1980  -61.1110  106.9650 O.2   127  CYS127     -0.2714
    117  CB       -43.5410  -63.9240  107.3820 C.3   127  CYS127      0.0997
    118  SG       -42.0210  -64.2710  106.4510 S.3   127  CYS127     -0.0797
    119  N        -41.7820  -61.0940  108.7150 N.am  128  LYS128     -0.1963
    120  CA       -41.2230  -59.7810  108.4220 C.3   128  LYS128      0.1728
    121  C        -39.7270  -59.8880  108.1410 C.2   128  LYS128      0.2616
    122  O        -39.0330  -60.7050  108.7450 O.2   128  LYS128     -0.2715
    123  CB       -41.4700  -58.8500  109.6120 C.3   128  LYS128      0.0311
    124  CG       -41.3300  -57.3650  109.3240 C.3   128  LYS128      0.0038
    125  CD       -41.4840  -56.5580  110.6100 C.3   128  LYS128      0.0206
    126  CE       -41.5470  -55.0620  110.3410 C.3   128  LYS128      0.1093
    127  NZ       -42.8090  -54.6780  109.6540 N.3   128  LYS128     -0.1314
    128  N        -39.2360  -59.0660  107.2200 N.am  129  GLU129     -0.1963
    129  CA       -37.8090  -59.0150  106.9150 C.3   129  GLU129      0.1733
    130  C        -37.2470  -57.6660  107.3460 C.2   129  GLU129      0.2616
    131  O        -37.7160  -56.6240  106.8960 O.2   129  GLU129     -0.2715
    132  CB       -37.5730  -59.2310  105.4200 C.3   129  GLU129      0.0429
    133  CG       -38.1500  -60.5320  104.8860 C.3   129  GLU129      0.1163
    134  CD       -38.0920  -60.6160  103.3750 C.2   129  GLU129      0.3649
    135  OE1      -38.4390  -61.6780  102.8180 O.co2 129  GLU129     -0.2457
    136  OE2      -37.7020  -59.6160  102.7420 O.co2 129  GLU129     -0.2457
    137  N        -36.2450  -57.6850  108.2200 N.am  130  ILE130     -0.1963
    138  CA       -35.7300  -56.4510  108.8100 C.3   130  ILE130      0.1727
    139  C        -34.4620  -55.9260  108.1280 C.2   130  ILE130      0.2616
    140  O        -34.1090  -54.7550  108.2710 O.2   130  ILE130     -0.2715
    141  CB       -35.4660  -56.6160  110.3200 C.3   130  ILE130      0.0290
    142  CG1      -34.2500  -57.5120  110.5550 C.3   130  ILE130      0.0022
    143  CG2      -36.6930  -57.1780  111.0160 C.3   130  ILE130      0.0023
    144  CD1      -33.8530  -57.6200  112.0080 C.3   130  ILE130      0.0001
    145  N        -33.7810  -56.7940  107.3890 N.am  131  ASN131     -0.1972
    146  CA       -32.5790  -56.3960  106.6630 C.3   131  ASN131      0.1688
    147  C        -31.4330  -55.9640  107.5780 C.2   131  ASN131      0.2292
    148  O        -31.0500  -54.7930  107.6050 O.2   131  ASN131     -0.2864
    149  CB       -32.9000  -55.2930  105.6510 C.3   131  ASN131      0.1181
    150  CG       -33.9040  -55.7370  104.6050 C.2   131  ASN131      0.2629
    151  OD1      -34.8980  -55.0560  104.3560 O.2   131  ASN131     -0.2716
    152  ND2      -33.6540  -56.8890  103.9940 N.am  131  ASN131     -0.0877
    153  N        -33.5020  -51.9380   96.0910 N.3   212  TYR212     -0.1241
    154  CA       -33.8490  -51.6120   97.4660 C.3   212  TYR212      0.1605
    155  C        -34.2670  -50.1480   97.4780 C.2   212  TYR212      0.2264
    156  O        -33.9190  -49.3980   96.5660 O.2   212  TYR212     -0.2867
    157  CB       -32.6540  -51.8380   98.3950 C.3   212  TYR212      0.0534
    158  CG       -33.0000  -51.8120   99.8700 C.ar  212  TYR212     -0.0201
    159  CD1      -33.2060  -52.9910  100.5760 C.ar  212  TYR212     -0.0009
    160  CD2      -33.1180  -50.6110  100.5570 C.ar  212  TYR212     -0.0009
    161  CE1      -33.5220  -52.9750  101.9230 C.ar  212  TYR212      0.0417
    162  CE2      -33.4350  -50.5850  101.9030 C.ar  212  TYR212      0.0417
    163  CZ       -33.6360  -51.7690  102.5820 C.ar  212  TYR212      0.1957
    164  OH       -33.9540  -51.7430  103.9230 O.3   212  TYR212     -0.2866
    165  N        -38.3690  -50.5090   97.0650 N.3   215  ILE215     -0.1231
    166  CA       -39.2510  -51.5070   97.6580 C.3   215  ILE215      0.1692
    167  C        -39.2570  -51.4320   99.1890 C.2   215  ILE215      0.2592
    168  O        -40.1720  -51.9380   99.8400 O.2   215  ILE215     -0.2718
    169  CB       -38.8790  -52.9280   97.1710 C.3   215  ILE215      0.0266
    170  CG1      -39.7160  -53.2920   95.9440 C.3   215  ILE215      0.0019
    171  CG2      -39.0750  -53.9600   98.2690 C.3   215  ILE215      0.0020
    172  CD1      -39.4730  -54.6910   95.4320 C.3   215  ILE215      0.0001
    173  N        -38.2420  -50.7860   99.7550 N.am  216  ASP216     -0.1960
    174  CA       -38.1710  -50.5790  101.1980 C.3   216  ASP216      0.1840
    175  C        -39.4990  -50.0560  101.7180 C.2   216  ASP216      0.2622
    176  O        -40.0340  -49.0770  101.1980 O.2   216  ASP216     -0.2715
    177  CB       -37.0580  -49.5880  101.5430 C.3   216  ASP216      0.1450
    178  CG       -36.9990  -49.2660  103.0260 C.2   216  ASP216      0.3671
    179  OD1      -36.4490  -48.2040  103.3860 O.co2 216  ASP216     -0.2456
    180  OD2      -37.5040  -50.0750  103.8320 O.co2 216  ASP216     -0.2456
    181  N        -40.0300  -50.7120  102.7440 N.am  217  GLU217     -0.1963
    182  CA       -41.3270  -50.3360  103.2960 C.3   217  GLU217      0.1733
    183  C        -41.2070  -49.3920  104.4920 C.2   217  GLU217      0.2616
    184  O        -42.2080  -48.8640  104.9720 O.2   217  GLU217     -0.2715
    185  CB       -42.1370  -51.5810  103.6680 C.3   217  GLU217      0.0429
    186  CG       -42.6720  -52.3490  102.4660 C.3   217  GLU217      0.1163
    187  CD       -43.5550  -53.5220  102.8640 C.2   217  GLU217      0.3649
    188  OE1      -43.6590  -53.8090  104.0770 O.co2 217  GLU217     -0.2457
    189  OE2      -44.1420  -54.1580  101.9620 O.co2 217  GLU217     -0.2457
    190  N        -39.9820  -49.1760  104.9640 N.am  218  LYS218     -0.1977
    191  CA       -39.7420  -48.2350  106.0530 C.3   218  LYS218      0.1596
    192  C        -40.0920  -46.8130  105.6220 C.2   218  LYS218      0.2287
    193  O        -40.5800  -46.0170  106.4220 O.2   218  LYS218     -0.2864
    194  CB       -38.2880  -48.3050  106.5260 C.3   218  LYS218      0.0298
    195  CG       -37.9770  -47.3630  107.6800 C.3   218  LYS218      0.0038
    196  CD       -36.5800  -47.5900  108.2340 C.3   218  LYS218      0.0206
    197  CE       -36.2970  -46.6630  109.4100 C.3   218  LYS218      0.1093
    198  NZ       -34.9240  -46.8420  109.9550 N.3   218  LYS218     -0.1314
@<TRIPOS>BOND
     1    39    37   ar
     2    37    36    1
     3    37    38   ar
     4   172   170    1
     5    36    33    1
     6   170   169    1
     7   153   154    1
     8   156   155    2
     9    33    32    1
    10    33    34    1
    11   165   166    1
    12    34    35    2
    13   169   166    1
    14   169   171    1
    15   154   155    1
    16   154   157    1
    17   166   167    1
    18   157   158    1
    19    67    66    1
    20   167   173   am
    21   167   168    2
    22   173   174    1
    23    66    65    1
    24   158   160   ar
    25   158   159   ar
    26    29    28    2
    27    23    21   ar
    28    23    25   ar
    29    21    20   ar
    30    28    27    1
    31    65    64    1
    32   160   162   ar
    33   159   161   ar
    34    25    24   ar
    35    20    19    1
    36    20    22   ar
    37    19    16    1
    38    44    45    1
    39    44    41    1
    40    47    45   ar
    41    47    49   ar
    42    40    41    1
    43    42    41    1
    44    42    43    2
    45   176   175    2
    46   174   177    1
    47   174   175    1
    48    24    22   ar
    49    45    46   ar
    50    49    50   ar
    51   177   178    1
    52   175   181   am
    53    27    26    1
    54    27    30    1
    55    26    17   am
    56   162   163   ar
    57    64    63    1
    58   161   163   ar
    59    18    17    2
    60   189   187   ar
    61    17    16    1
    62    63    60    1
    63    16    15    1
    64    46    48   ar
    65    50    48   ar
    66   186   187    1
    67   186   185    1
    68   163   164    1
    69   136   134   ar
    70   181   182    1
    71   135   134   ar
    72    30    31    1
    73   187   188   ar
    74   178   179   ar
    75   178   180   ar
    76    61    60    1
    77    61    62    2
    78    51    52    1
    79    60    59    1
    80   182   185    1
    81   182   183    1
    82   134   133    1
    83    59    53   am
    84   152   150   am
    85    53    52    1
    86    53    54    2
    87   151   150    2
    88    52    55    1
    89   183   190   am
    90   183   184    2
    91   150   149    1
    92    55    56    1
    93    55    57    1
    94   133   132    1
    95   190   191    1
    96    56    58    1
    97   132   129    1
    98   192   191    1
    99   192   193    2
   100   149   146    1
   101   191   194    1
   102   118   117    1
   103   194   195    1
   104   146   145    1
   105   146   147    1
   106   131   130    2
   107   129   128    1
   108   129   130    1
   109   116   115    2
   110   128   121   am
   111   130   137   am
   112   117   114    1
   113   145   139   am
   114   147   148    2
   115    71    70    2
   116   195   196    1
   117   115   114    1
   118   115   119   am
   119   139   140    2
   120   139   138    1
   121   121   120    1
   122   121   122    2
   123   137   138    1
   124   196   197    1
   125   120   119    1
   126   120   123    1
   127   114   113    1
   128    68    69    1
   129    70    74   am
   130    70    69    1
   131   138   141    1
   132     9     8    1
   133    90    88    1
   134    81    82    1
   135    81    80    1
   136    74    75    1
   137   113   104   am
   138   124   123    1
   139   124   125    1
   140   197   198    1
   141    69    72    1
   142   127   126    1
   143    89    87    1
   144    79    80    1
   145    79    78    1
   146     8     7    1
   147    87    88    1
   148    87    84    1
   149   141   142    1
   150   141   143    1
   151   126   125    1
   152   104   105    2
   153   104   103    1
   154    75    78    1
   155    75    76    1
   156    86    85    2
   157   142   144    1
   158    72    73    1
   159   103   102    1
   160   103   106    1
   161     7     6    1
   162   107   106    1
   163   107   108    1
   164    85    84    1
   165    85    91   am
   166    84    83    1
   167   102    93   am
   168    76    77    2
   169    94    93    2
   170    93    92    1
   171   111   110    1
   172   100    99    1
   173   108   109    1
   174    91    92    1
   175     6     5    1
   176    92    95    1
   177    14    11    1
   178    99   101    1
   179    99    98    2
   180   110   109    2
   181   110   112    1
   182    97    98    1
   183    97    96    1
   184    13    12    2
   185     5     2    1
   186    11    12    1
   187    11    10    1
   188    95    96    1
   189     2     3    1
   190     2     1    1
   191     4     3    2
