@<TRIPOS>MOLECULE
tmp/3pulB00.pdb
 86 82 0 0 0
SMALL
GASTEIGER

@<TRIPOS>ATOM
      1  N         46.3120   33.7270    0.5490 N.3    44  THR44      -0.1218
      2  CA        46.2740   32.9020   -0.6470 C.3    44  THR44       0.1862
      3  C         47.3610   33.3330   -1.6280 C.2    44  THR44       0.2287
      4  O         48.1030   32.5120   -2.1460 O.2    44  THR44      -0.2866
      5  CB        44.9120   33.0320   -1.3170 C.3    44  THR44       0.1770
      6  OG1       43.8980   32.8010   -0.3380 O.3    44  THR44      -0.2211
      7  CG2       44.7540   32.0410   -2.4480 C.3    44  THR44       0.0375
      8  N         36.6200   35.8580    5.3020 N.3   133  TYR133     -0.1241
      9  CA        37.0510   35.8640    3.9130 C.3   133  TYR133      0.1605
     10  C         36.2690   34.8280    3.1180 C.2   133  TYR133      0.2264
     11  O         36.4490   33.6220    3.2770 O.2   133  TYR133     -0.2867
     12  CB        38.5680   35.6000    3.8730 C.3   133  TYR133      0.0534
     13  CG        39.2160   35.3930    2.5180 C.ar  133  TYR133     -0.0201
     14  CD1       38.5780   35.7670    1.3250 C.ar  133  TYR133     -0.0009
     15  CD2       40.4900   34.8420    2.4360 C.ar  133  TYR133     -0.0009
     16  CE1       39.1970   35.5900    0.0920 C.ar  133  TYR133      0.0417
     17  CE2       41.1170   34.6620    1.2080 C.ar  133  TYR133      0.0417
     18  CZ        40.4700   35.0340    0.0440 C.ar  133  TYR133      0.1957
     19  OH        41.0820   34.8340   -1.1720 O.3   133  TYR133     -0.2866
     20  N         35.3380   33.3550   -0.5530 N.3   135  VAL135     -0.1245
     21  CA        35.7530   33.2070   -1.9610 C.3   135  VAL135      0.1561
     22  C         35.2330   31.8160   -2.3320 C.2   135  VAL135      0.2260
     23  O         35.9910   30.8610   -2.4130 O.2   135  VAL135     -0.2867
     24  CB        37.2960   33.2880   -2.0870 C.3   135  VAL135      0.0252
     25  CG1       37.9720   32.3120   -1.1410 C.3   135  VAL135      0.0019
     26  CG2       37.7090   33.0160   -3.5230 C.3   135  VAL135      0.0019
     27  N         34.3930   30.2370   -4.9970 N.3   137  GLY137     -0.1210
     28  CA        34.9600   29.4690   -6.0970 C.3   137  GLY137      0.1956
     29  C         36.1530   28.5990   -5.7330 C.2   137  GLY137      0.2611
     30  O         36.4780   27.6480   -6.4580 O.2   137  GLY137     -0.2717
     31  N         36.8190   28.9310   -4.6320 N.am  138  ARG138     -0.1979
     32  CA        37.9820   28.1780   -4.1740 C.3   138  ARG138      0.1597
     33  C         37.6460   27.2010   -3.0530 C.2   138  ARG138      0.2287
     34  O         38.2260   26.1230   -2.9540 O.2   138  ARG138     -0.2864
     35  CB        39.0570   29.1410   -3.6500 C.3   138  ARG138      0.0334
     36  CG        39.8920   29.8700   -4.6770 C.3   138  ARG138      0.0492
     37  CD        40.8810   30.7880   -3.9620 C.3   138  ARG138      0.2205
     38  NE        41.7400   31.5360   -4.8730 N.pl3 138  ARG138     -0.0865
     39  CZ        42.9000   31.0970   -5.3560 C.cat 138  ARG138      0.5346
     40  NH1       43.3640   29.9030   -5.0150 N.pl3 138  ARG138      0.1354
     41  NH2       43.5920   31.8540   -6.1970 N.pl3 138  ARG138      0.1354
     42  N         35.1010   38.3080   -1.7600 N.3   163  ALA163     -0.1245
     43  CA        35.7540   38.0460   -3.0320 C.3   163  ALA163      0.1562
     44  C         34.8370   37.5860   -4.1650 C.2   163  ALA163      0.2260
     45  O         35.3160   37.1740   -5.2210 O.2   163  ALA163     -0.2867
     46  CB        36.8790   37.0350   -2.8210 C.3   163  ALA163      0.0290
     47  N         45.0290   37.3680  -13.6270 N.3   244  PHE244     -0.1227
     48  CA        44.2440   36.1740  -13.3390 C.3   244  PHE244      0.1736
     49  C         44.0710   35.2900  -14.5690 C.2   244  PHE244      0.2596
     50  O         43.0860   34.5710  -14.6730 O.2   244  PHE244     -0.2718
     51  CB        42.8750   36.5750  -12.7850 C.3   244  PHE244      0.0547
     52  CG        42.9470   37.2910  -11.4680 C.ar  244  PHE244     -0.0202
     53  CD1       42.8930   36.5850  -10.2750 C.ar  244  PHE244     -0.0042
     54  CD2       43.1110   38.6680  -11.4160 C.ar  244  PHE244     -0.0042
     55  CE1       42.9900   37.2440   -9.0400 C.ar  244  PHE244     -0.0003
     56  CE2       43.2090   39.3300  -10.1870 C.ar  244  PHE244     -0.0003
     57  CZ        43.1530   38.6120   -8.9980 C.ar  244  PHE244     -0.0000
     58  N         45.0260   35.3430  -15.4960 N.am  245  CYS245     -0.1956
     59  CA        44.9330   34.5240  -16.7060 C.3   245  CYS245      0.1843
     60  C         45.0640   33.0490  -16.3420 C.2   245  CYS245      0.2625
     61  O         44.5750   32.1640  -17.0420 O.2   245  CYS245     -0.2714
     62  CB        45.9820   34.9460  -17.7520 C.3   245  CYS245      0.0997
     63  SG        47.7200   34.9080  -17.2830 S.3   245  CYS245     -0.0797
     64  N         45.8670   32.8120  -15.3410 N.am  246  GLU246     -0.1963
     65  CA        45.8840   31.5740  -14.6490 C.3   246  GLU246      0.1733
     66  C         45.6260   31.9010  -13.1730 C.2   246  GLU246      0.2617
     67  O         45.6460   33.0070  -12.7710 O.2   246  GLU246     -0.2715
     68  CB        47.1920   30.8100  -14.8690 C.3   246  GLU246      0.0429
     69  CG        47.5410   30.5010  -16.2910 C.3   246  GLU246      0.1163
     70  CD        48.6220   29.4650  -16.4460 C.2   246  GLU246      0.3649
     71  OE1       49.7700   29.7490  -16.1900 O.co2 246  GLU246     -0.2457
     72  OE2       48.3210   28.3720  -16.8710 O.co2 246  GLU246     -0.2457
     73  N         45.3900   30.8950  -12.3920 N.am  247  SER247     -0.1936
     74  CA        45.0670   31.0550  -10.9950 C.3   247  SER247      0.2055
     75  C         46.0940   31.8500  -10.2380 C.2   247  SER247      0.2643
     76  O         47.2370   31.5890  -10.3280 O.2   247  SER247     -0.2714
     77  CB        44.8800   29.7060  -10.3430 C.3   247  SER247      0.2130
     78  OG        43.9330   28.9450  -10.9670 O.3   247  SER247     -0.2179
     79  N         45.6190   32.8250   -9.4920 N.am  248  ASN248     -0.1971
     80  CA        46.4430   33.6700   -8.6320 C.3   248  ASN248      0.1688
     81  C         47.0010   32.7020   -7.5790 C.2   248  ASN248      0.2292
     82  O         46.3040   31.8050   -7.1090 O.2   248  ASN248     -0.2864
     83  CB        45.5570   34.7450   -7.9970 C.3   248  ASN248      0.1181
     84  CG        46.2390   35.5130   -6.8830 C.2   248  ASN248      0.2629
     85  OD1       47.2280   36.2070   -7.1060 O.2   248  ASN248     -0.2716
     86  ND2       45.6940   35.4030   -5.6720 N.am  248  ASN248     -0.0877
@<TRIPOS>BOND
     1    62    63    1
     2    62    59    1
     3    61    60    2
     4    72    70   ar
     5    59    60    1
     6    59    58    1
     7    70    69    1
     8    70    71   ar
     9    60    64   am
    10    69    68    1
    11    58    49   am
    12    64    65    1
    13    68    65    1
    14    50    49    2
    15    65    66    1
    16    49    48    1
    17    47    48    1
    18    48    51    1
    19    66    67    2
    20    66    73   am
    21    51    52    1
    22    73    74    1
    23    52    54   ar
    24    52    53   ar
    25    54    56   ar
    26    74    77    1
    27    74    75    1
    28    78    77    1
    29    76    75    2
    30    53    55   ar
    31    75    79   am
    32    56    57   ar
    33    79    80    1
    34    55    57   ar
    35    80    83    1
    36    80    81    1
    37    83    84    1
    38    81    82    2
    39    85    84    2
    40    84    86   am
    41    30    29    2
    42    41    39    1
    43    28    29    1
    44    28    27    1
    45    29    31   am
    46    39    40    1
    47    39    38    2
    48    45    44    2
    49    38    37    1
    50    36    37    1
    51    36    35    1
    52    31    32    1
    53    32    35    1
    54    32    33    1
    55    44    43    1
    56    26    24    1
    57    33    34    2
    58    43    46    1
    59    43    42    1
    60     7     5    1
    61    23    22    2
    62    22    21    1
    63     4     3    2
    64    24    21    1
    65    24    25    1
    66    21    20    1
    67     3     2    1
    68     5     2    1
    69     5     6    1
    70    19    18    1
    71     2     1    1
    72    18    16   ar
    73    18    17   ar
    74    16    14   ar
    75    17    15   ar
    76    14    13   ar
    77    15    13   ar
    78    13    12    1
    79    10    11    2
    80    10     9    1
    81    12     9    1
    82     9     8    1
