@<TRIPOS>MOLECULE
tmp/3puoB00.pdb
 86 81 0 0 0
SMALL
GASTEIGER

@<TRIPOS>ATOM
      1  N         23.4570  -10.1490   -1.5770 N.3    48  SER48      -0.1202
      2  CA        22.9580   -9.1560   -2.5120 C.3    48  SER48       0.2020
      3  C         24.0080   -8.0900   -2.7260 C.2    48  SER48       0.2618
      4  O         24.1310   -7.5450   -3.8100 O.2    48  SER48      -0.2717
      5  CB        21.6780   -8.5300   -1.9850 C.3    48  SER48       0.2103
      6  OG        21.9540   -7.7610   -0.8380 O.3    48  SER48      -0.2182
      7  N         24.7750   -7.8160   -1.6820 N.am   49  ALA49      -0.1979
      8  CA        25.8440   -6.8210   -1.7190 C.3    49  ALA49       0.1597
      9  C         26.8750   -7.0140   -2.8350 C.2    49  ALA49       0.2287
     10  O         27.3750   -6.0300   -3.3570 O.2    49  ALA49      -0.2864
     11  CB        26.5580   -6.7810   -0.3630 C.3    49  ALA49       0.0319
     12  N         26.5230   -8.7130   -6.0030 N.3    51  LEU51      -0.1231
     13  CA        26.0270   -9.1940   -7.2940 C.3    51  LEU51       0.1693
     14  C         25.8740   -8.0530   -8.3070 C.2    51  LEU51       0.2592
     15  O         25.4430   -6.9690   -7.9220 O.2    51  LEU51      -0.2718
     16  CB        24.6720   -9.8730   -7.0970 C.3    51  LEU51       0.0284
     17  CG        24.5730  -11.1030   -6.2150 C.3    51  LEU51       0.0019
     18  CD1       23.1250  -11.3640   -6.0070 C.3    51  LEU51       0.0001
     19  CD2       25.2160  -12.2970   -6.8440 C.3    51  LEU51       0.0001
     20  N         26.2220   -8.2800   -9.5790 N.am   52  ASP52      -0.1960
     21  CA        25.9610   -7.2630  -10.6250 C.3    52  ASP52       0.1840
     22  C         24.4690   -7.0180  -10.6500 C.2    52  ASP52       0.2621
     23  O         23.7020   -7.7010   -9.9780 O.2    52  ASP52      -0.2715
     24  CB        26.3050   -7.7450  -12.0620 C.3    52  ASP52       0.1450
     25  CG        27.7480   -8.0510  -12.2600 C.2    52  ASP52       0.3671
     26  OD1       28.5750   -7.5340  -11.5010 O.co2  52  ASP52      -0.2456
     27  OD2       28.0670   -8.8030  -13.1900 O.co2  52  ASP52      -0.2456
     28  N         24.0630   -6.0570  -11.4680 N.am   53  VAL53      -0.1977
     29  CA        22.6510   -5.8350  -11.7070 C.3    53  VAL53       0.1596
     30  C         22.1350   -6.9690  -12.5680 C.2    53  VAL53       0.2287
     31  O         20.9910   -7.3910  -12.4050 O.2    53  VAL53      -0.2864
     32  CB        22.4110   -4.4650  -12.3920 C.3    53  VAL53       0.0276
     33  CG1       22.6950   -3.3430  -11.4030 C.3    53  VAL53       0.0022
     34  CG2       23.3120   -4.3260  -13.6190 C.3    53  VAL53       0.0022
     35  N         21.7380  -10.0900  -10.5790 N.3    56  HIS56      -0.1241
     36  CA        20.5370   -9.9190   -9.8010 C.3    56  HIS56       0.1621
     37  C         19.2560  -10.5700  -10.3490 C.2    56  HIS56       0.2264
     38  O         18.6240  -11.3730   -9.6550 O.2    56  HIS56      -0.2867
     39  CB        20.2570   -8.4220   -9.6350 C.3    56  HIS56       0.0745
     40  CG        19.2410   -8.1260   -8.5920 C.ar   56  HIS56       0.0817
     41  ND1       17.9710   -7.6850   -8.8980 N.ar   56  HIS56      -0.2268
     42  CD2       19.2860   -8.2730   -7.2530 C.ar   56  HIS56       0.1154
     43  CE1       17.2790   -7.5630   -7.7870 C.ar   56  HIS56       0.1986
     44  NE2       18.0550   -7.9100   -6.7730 N.ar   56  HIS56      -0.2212
     45  N         17.9270   -0.9000   -1.3090 N.3    79  ALA79      -0.1231
     46  CA        19.1200   -0.1260   -1.6390 C.3    79  ALA79       0.1694
     47  C         19.1000    1.1570   -0.8280 C.2    79  ALA79       0.2592
     48  O         18.0290    1.5970   -0.4340 O.2    79  ALA79      -0.2718
     49  CB        19.1390    0.1910   -3.1470 C.3    79  ALA79       0.0304
     50  N         20.2680    1.7640   -0.5820 N.am   80  ASN80      -0.1974
     51  CA        20.3190    2.9830    0.2240 C.3    80  ASN80       0.1688
     52  C         20.0310    4.2440   -0.5700 C.2    80  ASN80       0.2292
     53  O         20.1130    5.3610   -0.0340 O.2    80  ASN80      -0.2864
     54  CB        21.6350    3.0940    0.9930 C.3    80  ASN80       0.1181
     55  CG        22.8540    3.1100    0.0850 C.2    80  ASN80       0.2629
     56  OD1       22.7710    2.7790   -1.1080 O.2    80  ASN80      -0.2716
     57  ND2       24.0130    3.4800    0.6570 N.am   80  ASN80      -0.0877
     58  N         17.7520    3.5560   -6.9600 N.3    84  GLU84      -0.1245
     59  CA        18.2850    2.2140   -7.1440 C.3    84  GLU84       0.1567
     60  C         17.2740    1.1670   -6.6930 C.2    84  GLU84       0.2260
     61  O         17.0920    0.1460   -7.3560 O.2    84  GLU84      -0.2867
     62  CB        19.5950    2.0470   -6.3740 C.3    84  GLU84       0.0388
     63  CG        20.7280    1.4550   -7.1960 C.3    84  GLU84       0.1160
     64  CD        21.8580    0.9250   -6.3350 C.2    84  GLU84       0.3649
     65  OE1       22.7250    1.7280   -5.9300 O.co2  84  GLU84      -0.2457
     66  OE2       21.8790   -0.2940   -6.0640 O.co2  84  GLU84      -0.2457
     67  N         15.8500   -1.7530   -8.9320 N.3    88  LEU88      -0.1245
     68  CA        15.9940   -3.1390   -8.5060 C.3    88  LEU88       0.1561
     69  C         14.6330   -3.7970   -8.3360 C.2    88  LEU88       0.2260
     70  O         14.4870   -5.0040   -8.5300 O.2    88  LEU88      -0.2867
     71  CB        16.7840   -3.2180   -7.1980 C.3    88  LEU88       0.0270
     72  CG        18.2860   -2.9440   -7.2960 C.3    88  LEU88       0.0019
     73  CD1       18.9310   -2.9900   -5.9190 C.3    88  LEU88       0.0001
     74  CD2       18.9530   -3.9330   -8.2390 C.3    88  LEU88       0.0001
     75  N         20.8000    1.8940    4.5640 N.3   106  TYR106     -0.1241
     76  CA        21.9400    1.5300    5.4100 C.3   106  TYR106      0.1605
     77  C         23.0850    2.5070    5.7900 C.2   106  TYR106      0.2264
     78  O         23.5190    2.5000    6.9030 O.2   106  TYR106     -0.2867
     79  CB        22.5700    0.1450    5.0740 C.3   106  TYR106      0.0534
     80  CG        22.5210   -0.1840    3.6520 C.ar  106  TYR106     -0.0201
     81  CD1       23.5000    0.2250    2.7840 C.ar  106  TYR106     -0.0009
     82  CD2       21.4840   -0.8740    3.1570 C.ar  106  TYR106     -0.0009
     83  CE1       23.4010   -0.0090    1.5230 C.ar  106  TYR106      0.0417
     84  CE2       21.4000   -1.1340    1.8930 C.ar  106  TYR106      0.0417
     85  CZ        22.3410   -0.7030    1.0740 C.ar  106  TYR106      0.1957
     86  OH        22.1890   -0.9630   -0.2280 O.3   106  TYR106     -0.2866
@<TRIPOS>BOND
     1    34    32    1
     2    27    25   ar
     3    30    31    2
     4    30    29    1
     5    32    29    1
     6    32    33    1
     7    25    24    1
     8    25    26   ar
     9    24    21    1
    10    29    28    1
    11    28    22   am
    12    22    21    1
    13    22    23    2
    14    21    20    1
    15    35    36    1
    16    37    36    1
    17    37    38    2
    18    36    39    1
    19    39    40    1
    20    20    14   am
    21    67    68    1
    22    41    40   ar
    23    41    43   ar
    24    40    42   ar
    25    70    69    2
    26    68    69    1
    27    68    71    1
    28    14    15    2
    29    14    13    1
    30    74    72    1
    31    43    44   ar
    32    61    60    2
    33    72    71    1
    34    72    73    1
    35    13    16    1
    36    13    12    1
    37    42    44   ar
    38    63    62    1
    39    63    64    1
    40    59    58    1
    41    59    60    1
    42    59    62    1
    43    16    17    1
    44    19    17    1
    45    64    66   ar
    46    64    65   ar
    47    17    18    1
    48     4     3    2
    49    10     9    2
    50    49    46    1
    51     9     8    1
    52     3     2    1
    53     3     7   am
    54     2     5    1
    55     2     1    1
    56     5     6    1
    57     8     7    1
    58     8    11    1
    59    46    45    1
    60    46    47    1
    61    56    55    2
    62    47    50   am
    63    47    48    2
    64    50    51    1
    65    52    53    2
    66    52    51    1
    67    86    85    1
    68    55    57   am
    69    55    54    1
    70    51    54    1
    71    85    83   ar
    72    85    84   ar
    73    83    81   ar
    74    84    82   ar
    75    81    80   ar
    76    82    80   ar
    77    80    79    1
    78    75    76    1
    79    79    76    1
    80    76    77    1
    81    77    78    2
