@<TRIPOS>MOLECULE
tmp/3pupB00.pdb
 164 155 0 0 0
SMALL
GASTEIGER

@<TRIPOS>ATOM
      1  N         -4.2050    6.0040  -30.4680 N.3    28  ILE28      -0.1245
      2  CA        -3.3270    4.9740  -30.9840 C.3    28  ILE28       0.1561
      3  C         -2.4030    4.5370  -29.8680 C.2    28  ILE28       0.2260
      4  O         -2.0740    3.3680  -29.7620 O.2    28  ILE28      -0.2867
      5  CB        -2.4900    5.4850  -32.1520 C.3    28  ILE28       0.0252
      6  CG1       -3.4210    5.8040  -33.3190 C.3    28  ILE28       0.0019
      7  CG2       -1.3930    4.4530  -32.5580 C.3    28  ILE28       0.0019
      8  CD1       -2.7090    6.3420  -34.5420 C.3    28  ILE28       0.0001
      9  N          6.1650   10.8060  -24.7300 N.3    33  PHE33      -0.1241
     10  CA         5.8390   11.6540  -25.8590 C.3    33  PHE33       0.1605
     11  C          4.5200   12.3910  -25.7820 C.2    33  PHE33       0.2264
     12  O          4.2960   13.2980  -26.5770 O.2    33  PHE33      -0.2867
     13  CB         5.8290   10.8180  -27.1270 C.3    33  PHE33       0.0534
     14  CG         4.8780    9.6510  -27.0930 C.ar   33  PHE33      -0.0203
     15  CD1        3.5920    9.7640  -27.6420 C.ar   33  PHE33      -0.0042
     16  CD2        5.2850    8.3980  -26.5550 C.ar   33  PHE33      -0.0042
     17  CE1        2.7060    8.6390  -27.6450 C.ar   33  PHE33      -0.0003
     18  CE2        4.4220    7.2660  -26.5480 C.ar   33  PHE33      -0.0003
     19  CZ         3.1340    7.3820  -27.0940 C.ar   33  PHE33      -0.0000
     20  N         -0.9140   10.0530  -28.8660 N.3    36  VAL36      -0.1245
     21  CA        -1.0570    9.9910  -30.3200 C.3    36  VAL36       0.1561
     22  C         -2.4210    9.3840  -30.6630 C.2    36  VAL36       0.2260
     23  O         -2.7430    8.2860  -30.2010 O.2    36  VAL36      -0.2867
     24  CB         0.0520    9.1440  -30.9650 C.3    36  VAL36       0.0252
     25  CG1       -0.1760    9.0060  -32.4590 C.3    36  VAL36       0.0019
     26  CG2        1.4350    9.7520  -30.6980 C.3    36  VAL36       0.0019
     27  N         -2.7740   11.0830  -38.2250 N.3    49  ALA49      -0.1245
     28  CA        -2.3450   10.9060  -36.8410 C.3    49  ALA49       0.1562
     29  C         -2.2520   12.2840  -36.1560 C.2    49  ALA49       0.2260
     30  O         -1.8280   13.2610  -36.7900 O.2    49  ALA49      -0.2867
     31  CB        -1.0030   10.2060  -36.8200 C.3    49  ALA49       0.0290
     32  N         -0.4600   13.9880  -32.7750 N.3    51  LYS51      -0.1245
     33  CA         0.4440   13.8910  -31.6020 C.3    51  LYS51       0.1561
     34  C          0.2910   15.1350  -30.7660 C.2    51  LYS51       0.2260
     35  O          0.5530   16.2350  -31.2390 O.2    51  LYS51      -0.2867
     36  CB         1.9150   13.7730  -32.0260 C.3    51  LYS51       0.0271
     37  CG         2.9320   13.7260  -30.8730 C.3    51  LYS51       0.0035
     38  CD         4.3920   13.8280  -31.3740 C.3    51  LYS51       0.0206
     39  CE         5.3920   13.9790  -30.2220 C.3    51  LYS51       0.1093
     40  NZ         6.7300   13.3850  -30.5180 N.3    51  LYS51      -0.1314
     41  N         10.7180   19.9830  -31.8400 N.3    63  GLU63      -0.1245
     42  CA        10.1770   19.0180  -32.8040 C.3    63  GLU63       0.1567
     43  C          9.3920   19.7320  -33.8790 C.2    63  GLU63       0.2260
     44  O          9.5850   19.4860  -35.0440 O.2    63  GLU63      -0.2867
     45  CB         9.2700   17.9910  -32.1300 C.3    63  GLU63       0.0388
     46  CG         8.7250   16.9350  -33.0660 C.3    63  GLU63       0.1160
     47  CD         7.8720   15.9150  -32.3700 C.2    63  GLU63       0.3649
     48  OE1        7.4840   16.1740  -31.2150 O.co2  63  GLU63      -0.2457
     49  OE2        7.5950   14.8440  -32.9790 O.co2  63  GLU63      -0.2457
     50  N          7.3180   10.8600  -42.0020 N.3    76  VAL76      -0.1245
     51  CA         5.9390   11.3210  -41.7950 C.3    76  VAL76       0.1561
     52  C          5.8370   12.8340  -41.9370 C.2    76  VAL76       0.2260
     53  O          6.6440   13.5880  -41.3720 O.2    76  VAL76      -0.2867
     54  CB         5.3240   10.9040  -40.4330 C.3    76  VAL76       0.0252
     55  CG1        5.0530    9.4290  -40.4350 C.3    76  VAL76       0.0019
     56  CG2        6.2170   11.2990  -39.2550 C.3    76  VAL76       0.0019
     57  N         -0.2670   14.6250  -38.3770 N.3    97  LEU97      -0.1231
     58  CA         0.7260   13.9450  -39.2140 C.3    97  LEU97       0.1693
     59  C          0.0800   12.9490  -40.1550 C.2    97  LEU97       0.2592
     60  O         -1.0990   12.6320  -39.9940 O.2    97  LEU97      -0.2718
     61  CB         1.6740   13.2000  -38.2910 C.3    97  LEU97       0.0284
     62  CG         2.3410   14.1210  -37.2650 C.3    97  LEU97       0.0019
     63  CD1        2.2580   13.5500  -35.8780 C.3    97  LEU97       0.0001
     64  CD2        3.7810   14.3820  -37.6510 C.3    97  LEU97       0.0001
     65  N          0.8510   12.4580  -41.1270 N.am   98  ASP98      -0.1960
     66  CA         0.4280   11.3250  -41.9590 C.3    98  ASP98       0.1840
     67  C          0.0830   10.1480  -41.0490 C.2    98  ASP98       0.2622
     68  O          0.7060    9.9700  -40.0030 O.2    98  ASP98      -0.2715
     69  CB         1.5630   10.8590  -42.8680 C.3    98  ASP98       0.1450
     70  CG         1.8340   11.7840  -44.0520 C.2    98  ASP98       0.3671
     71  OD1        0.9040   12.4550  -44.5920 O.co2  98  ASP98      -0.2456
     72  OD2        3.0340   11.7810  -44.4550 O.co2  98  ASP98      -0.2456
     73  N         -0.8950    9.3410  -41.4370 N.am   99  TYR99      -0.1960
     74  CA        -1.1410    8.0760  -40.7340 C.3    99  TYR99       0.1771
     75  C         -0.5520    6.9060  -41.5020 C.2    99  TYR99       0.2619
     76  O         -0.7200    6.8170  -42.7130 O.2    99  TYR99      -0.2715
     77  CB        -2.6220    7.8120  -40.5490 C.3    99  TYR99       0.0574
     78  CG        -2.8870    6.5160  -39.8300 C.ar   99  TYR99      -0.0198
     79  CD1       -2.6890    6.4110  -38.4560 C.ar   99  TYR99      -0.0009
     80  CD2       -3.3170    5.3840  -40.5240 C.ar   99  TYR99      -0.0009
     81  CE1       -2.9220    5.2140  -37.7940 C.ar   99  TYR99       0.0417
     82  CE2       -3.5570    4.1830  -39.8630 C.ar   99  TYR99       0.0417
     83  CZ        -3.3520    4.1150  -38.5070 C.ar   99  TYR99       0.1957
     84  OH        -3.5860    2.9510  -37.8560 O.3    99  TYR99      -0.2866
     85  N          0.1330    6.0200  -40.7930 N.am  100  VAL100     -0.1964
     86  CA         0.7450    4.8500  -41.3960 C.3   100  VAL100      0.1712
     87  C          0.4200    3.6910  -40.4680 C.2   100  VAL100      0.2458
     88  O          0.7400    3.7320  -39.2810 O.2   100  VAL100     -0.2730
     89  CB         2.2590    5.0080  -41.5480 C.3   100  VAL100      0.0289
     90  CG1        2.8410    3.8190  -42.2610 C.3   100  VAL100      0.0023
     91  CG2        2.5850    6.2590  -42.3040 C.3   100  VAL100      0.0023
     92  N         -0.2100    2.6490  -40.9970 N.am  101  PRO101     -0.2716
     93  CA        -0.8950    1.6840  -40.1440 C.3   101  PRO101      0.1536
     94  C         -0.0740    0.6620  -39.3430 C.2   101  PRO101      0.2598
     95  O         -0.5700    0.1900  -38.3410 O.2   101  PRO101     -0.2715
     96  CB        -1.7940    0.9460  -41.1350 C.3   101  PRO101      0.0310
     97  CG        -1.0680    1.0150  -42.4440 C.3   101  PRO101      0.0237
     98  CD        -0.3250    2.3150  -42.4290 C.3   101  PRO101      0.0939
     99  N          1.1350    0.3080  -39.7650 N.am  102  GLU102     -0.1964
    100  CA         1.9080   -0.6900  -39.0470 C.3   102  GLU102      0.1733
    101  C          3.2150   -0.1070  -38.6140 C.2   102  GLU102      0.2617
    102  O          3.4790    1.0450  -38.8720 O.2   102  GLU102     -0.2715
    103  CB         2.1630   -1.8910  -39.9460 C.3   102  GLU102      0.0429
    104  CG         1.0350   -2.8970  -39.9140 C.3   102  GLU102      0.1163
    105  CD         0.9720   -3.6940  -38.6220 C.2   102  GLU102      0.3649
    106  OE1        1.9590   -3.7030  -37.8590 O.co2 102  GLU102     -0.2457
    107  OE2       -0.0700   -4.3290  -38.3800 O.co2 102  GLU102     -0.2457
    108  N          4.0230   -0.9070  -37.9430 N.am  103  THR103     -0.1951
    109  CA         5.3700   -0.5180  -37.6090 C.3   103  THR103      0.1897
    110  C          6.2570   -1.7440  -37.8180 C.2   103  THR103      0.2313
    111  O          5.7640   -2.8880  -37.8100 O.2   103  THR103     -0.2863
    112  CB         5.4930   -0.0640  -36.1600 C.3   103  THR103      0.1794
    113  OG1        5.4290   -1.2020  -35.2970 O.3   103  THR103     -0.2208
    114  CG2        4.3970    0.9040  -35.8040 C.3   103  THR103      0.0378
    115  N          6.1800   -4.3690  -34.9380 N.3   106  ARG106     -0.1245
    116  CA         5.0680   -5.3130  -34.9730 C.3   106  ARG106      0.1563
    117  C          5.2530   -6.3750  -36.0290 C.2   106  ARG106      0.2260
    118  O          5.1300   -7.5740  -35.7410 O.2   106  ARG106     -0.2867
    119  CB         3.7400   -4.5870  -35.1750 C.3   106  ARG106      0.0307
    120  CG         3.3620   -3.7910  -33.9290 C.3   106  ARG106      0.0489
    121  CD         2.2090   -2.8730  -34.1550 C.3   106  ARG106      0.2205
    122  NE         0.9660   -3.6190  -34.3270 N.pl3 106  ARG106     -0.0865
    123  CZ        -0.1770   -3.0590  -34.7030 C.cat 106  ARG106      0.5346
    124  NH1       -0.2270   -1.7440  -34.9470 N.pl3 106  ARG106      0.1354
    125  NH2       -1.2680   -3.8070  -34.8400 N.pl3 106  ARG106      0.1354
    126  N         10.2650    0.5940  -33.6280 N.3   150  GLN150     -0.1231
    127  CA         8.9960    1.2250  -33.2860 C.3   150  GLN150      0.1698
    128  C          8.7810    2.5040  -34.0880 C.2   150  GLN150      0.2592
    129  O          7.6580    2.8200  -34.4810 O.2   150  GLN150     -0.2718
    130  CB         8.9350    1.5270  -31.7870 C.3   150  GLN150      0.0381
    131  CG         9.0580    0.2990  -30.9000 C.3   150  GLN150      0.0905
    132  CD         8.7980    0.6070  -29.4390 C.2   150  GLN150      0.2608
    133  OE1        7.7300    1.1010  -29.0760 O.2   150  GLN150     -0.2717
    134  NE2        9.7770    0.3170  -28.5900 N.am  150  GLN150     -0.0878
    135  N          9.8650    3.2350  -34.3270 N.am  151  ASN151     -0.1974
    136  CA         9.7840    4.5270  -34.9980 C.3   151  ASN151      0.1688
    137  C          9.8280    4.3930  -36.5160 C.2   151  ASN151      0.2292
    138  O          9.9460    5.3860  -37.2340 O.2   151  ASN151     -0.2864
    139  CB        10.9070    5.4500  -34.5190 C.3   151  ASN151      0.1181
    140  CG        10.7080    5.9170  -33.0910 C.2   151  ASN151      0.2629
    141  OD1        9.5790    6.1160  -32.6420 O.2   151  ASN151     -0.2716
    142  ND2       11.8070    6.0960  -32.3680 N.am  151  ASN151     -0.0877
    143  N          7.5980    3.3440  -39.4670 N.3   153  LEU153     -0.1245
    144  CA         6.2260    3.0510  -39.8620 C.3   153  LEU153      0.1561
    145  C          6.1760    2.3980  -41.2400 C.2   153  LEU153      0.2260
    146  O          7.0450    2.6310  -42.0800 O.2   153  LEU153     -0.2867
    147  CB         5.3820    4.3280  -39.8550 C.3   153  LEU153      0.0270
    148  CG         5.0840    4.9360  -38.4830 C.3   153  LEU153      0.0019
    149  CD1        4.2730    6.2150  -38.6270 C.3   153  LEU153      0.0001
    150  CD2        4.3590    3.9330  -37.5980 C.3   153  LEU153      0.0001
    151  N          9.4530    8.1740  -38.0150 N.3   164  CYS164     -0.1221
    152  CA         8.5720    9.0210  -37.2280 C.3   164  CYS164      0.1808
    153  C          9.1300    9.3110  -35.8590 C.2   164  CYS164      0.2601
    154  O         10.1090    8.7210  -35.4650 O.2   164  CYS164     -0.2717
    155  CB         7.1940    8.3810  -37.1000 C.3   164  CYS164      0.0970
    156  SG         7.1060    7.0970  -35.8500 S.3   164  CYS164     -0.0800
    157  N          8.4720   10.2160  -35.1360 N.am  165  ASP165     -0.1973
    158  CA         8.9200   10.7130  -33.8350 C.3   165  ASP165      0.1709
    159  C         10.2450   11.5300  -33.8930 C.2   165  ASP165      0.2293
    160  O         11.3540   10.9790  -33.9660 O.2   165  ASP165     -0.2864
    161  CB         9.0170    9.5610  -32.8390 C.3   165  ASP165      0.1436
    162  CG         9.1800   10.0450  -31.4000 C.2   165  ASP165      0.3671
    163  OD1        8.9140   11.2570  -31.1070 O.co2 165  ASP165     -0.2456
    164  OD2        9.5970    9.2010  -30.5620 O.co2 165  ASP165     -0.2456
@<TRIPOS>BOND
     1    71    70   ar
     2    72    70   ar
     3    70    69    1
     4    69    66    1
     5    76    75    2
     6    97    98    1
     7    97    96    1
     8    98    92    1
     9    91    89    1
    10    90    89    1
    11   146   145    2
    12    50    51    1
    13    66    65    1
    14    66    67    1
    15    52    51    1
    16    52    53    2
    17    51    54    1
    18    89    86    1
    19    75    85   am
    20    75    74    1
    21    73    67   am
    22    73    74    1
    23    86    85    1
    24    86    87    1
    25   145   144    1
    26    96    93    1
    27    65    59   am
    28    67    68    2
    29    92    87   am
    30    92    93    1
    31    74    77    1
    32    77    78    1
    33    80    82   ar
    34    80    78   ar
    35    87    88    2
    36    55    54    1
    37    54    56    1
    38    59    60    2
    39    59    58    1
    40    93    94    1
    41   103   104    1
    42   103   100    1
    43   104   105    1
    44    82    83   ar
    45   144   147    1
    46   144   143    1
    47   147   148    1
    48    78    79   ar
    49    99    94   am
    50    99   100    1
    51    94    95    2
    52    58    57    1
    53    58    61    1
    54   100   101    1
    55   102   101    2
    56   149   148    1
    57   105   107   ar
    58   105   106   ar
    59   101   108   am
    60    83    84    1
    61    83    81   ar
    62   148   150    1
    63    79    81   ar
    64    61    62    1
    65    27    28    1
    66   151   152    1
    67   108   109    1
    68   110   111    2
    69   110   109    1
    70    64    62    1
    71   109   112    1
    72    62    63    1
    73   138   137    2
    74   152   155    1
    75   152   153    1
    76   155   156    1
    77    28    31    1
    78    28    29    1
    79    30    29    2
    80   137   136    1
    81   112   114    1
    82   112   113    1
    83   117   118    2
    84   117   116    1
    85   153   154    2
    86   153   157   am
    87   119   116    1
    88   119   120    1
    89   157   158    1
    90    44    43    2
    91   136   139    1
    92   136   135    1
    93   116   115    1
    94   124   123    1
    95   125   123    1
    96   123   122    2
    97     8     6    1
    98   139   140    1
    99   129   128    2
   100   135   128   am
   101   122   121    1
   102   121   120    1
   103   128   127    1
   104   160   159    2
   105   159   158    1
   106    43    42    1
   107   158   161    1
   108   126   127    1
   109     6     5    1
   110   127   130    1
   111   140   141    2
   112   140   142   am
   113    46    47    1
   114    46    45    1
   115    49    47   ar
   116   161   162    1
   117    42    45    1
   118    42    41    1
   119    32    33    1
   120     7     5    1
   121    25    24    1
   122    47    48   ar
   123     5     2    1
   124    36    33    1
   125    36    37    1
   126   130   131    1
   127    33    34    1
   128   162   163   ar
   129   162   164   ar
   130    38    37    1
   131    38    39    1
   132    35    34    2
   133     2     1    1
   134     2     3    1
   135    24    26    1
   136    24    21    1
   137   131   132    1
   138    22    21    1
   139    22    23    2
   140    40    39    1
   141    21    20    1
   142     3     4    2
   143   132   133    2
   144   132   134   am
   145    17    15   ar
   146    17    19   ar
   147    15    14   ar
   148    13    14    1
   149    13    10    1
   150    19    18   ar
   151    14    16   ar
   152    12    11    2
   153    16    18   ar
   154    10    11    1
   155    10     9    1
