@<TRIPOS>MOLECULE
tmp/3purB00.pdb
 129 118 0 0 0
SMALL
GASTEIGER

@<TRIPOS>ATOM
      1  N        -11.3520   19.5650   33.3390 N.3    19  LYS19      -0.1245
      2  CA       -10.4290   19.8270   34.4490 C.3    19  LYS19       0.1561
      3  C         -9.8040   21.2350   34.4440 C.2    19  LYS19       0.2260
      4  O         -8.9050   21.5390   33.6500 O.2    19  LYS19      -0.2867
      5  CB        -9.3370   18.7500   34.5100 C.3    19  LYS19       0.0271
      6  CG        -8.6710   18.6090   35.8720 C.3    19  LYS19       0.0035
      7  CD        -7.6870   17.4450   35.8960 C.3    19  LYS19       0.0206
      8  CE        -8.3350   16.1370   35.4330 C.3    19  LYS19       0.1093
      9  NZ        -7.4980   14.9410   35.7870 N.3    19  LYS19      -0.1314
     10  N          4.0030   21.6310   34.8990 N.3   212  ASN212     -0.1240
     11  CA         3.4580   20.4140   34.3340 C.3   212  ASN212      0.1653
     12  C          2.0150   20.7730   34.0790 C.2   212  ASN212      0.2266
     13  O          1.3860   21.3470   34.9610 O.2   212  ASN212     -0.2867
     14  CB         3.5630   19.3440   35.4090 C.3   212  ASN212      0.1155
     15  CG         3.3260   17.9580   34.8930 C.2   212  ASN212      0.2627
     16  OD1        2.1860   17.5340   34.7020 O.2   212  ASN212     -0.2716
     17  ND2        4.4070   17.2170   34.6970 N.am  212  ASN212     -0.0877
     18  N         -2.0470   20.3830   33.7830 N.3   214  LEU214     -0.1245
     19  CA        -3.1690   19.5610   34.1930 C.3   214  LEU214      0.1561
     20  C         -3.6770   18.7630   33.0020 C.2   214  LEU214      0.2260
     21  O         -3.1960   17.6730   32.6740 O.2   214  LEU214     -0.2867
     22  CB        -4.3100   20.4550   34.6890 C.3   214  LEU214      0.0270
     23  CG        -4.6250   20.6750   36.1750 C.3   214  LEU214      0.0019
     24  CD1       -5.9410   21.4470   36.3210 C.3   214  LEU214      0.0001
     25  CD2       -4.6650   19.3680   36.9560 C.3   214  LEU214      0.0001
     26  N         -1.1430   16.1070   27.9360 N.3   274  LEU274     -0.1245
     27  CA        -0.3780   16.4650   29.1370 C.3   274  LEU274      0.1561
     28  C          1.0770   16.6120   28.7730 C.2   274  LEU274      0.2260
     29  O          1.6280   15.7710   28.0720 O.2   274  LEU274     -0.2867
     30  CB        -0.4610   15.3800   30.2180 C.3   274  LEU274      0.0270
     31  CG        -1.7820   14.6810   30.4940 C.3   274  LEU274      0.0019
     32  CD1       -1.9660   13.5980   29.4510 C.3   274  LEU274      0.0001
     33  CD2       -1.7880   14.0640   31.8740 C.3   274  LEU274      0.0001
     34  N          3.2920   14.0830   40.6140 N.3   282  THR282     -0.1218
     35  CA         1.8740   14.2470   40.8820 C.3   282  THR282      0.1862
     36  C          1.5080   13.2930   41.9890 C.2   282  THR282      0.2287
     37  O          1.6680   12.0890   41.8280 O.2   282  THR282     -0.2866
     38  CB         1.0250   13.8830   39.6540 C.3   282  THR282      0.1770
     39  OG1        1.1940   14.8830   38.6430 O.3   282  THR282     -0.2211
     40  CG2       -0.4450   13.7980   40.0400 C.3   282  THR282      0.0375
     41  N         -3.7730   10.0150   44.1800 N.3   285  HIS285     -0.1241
     42  CA        -5.1640   10.3780   43.9810 C.3   285  HIS285      0.1621
     43  C         -5.8830    9.2350   43.2960 C.2   285  HIS285      0.2264
     44  O         -5.2690    8.2970   42.7960 O.2   285  HIS285     -0.2867
     45  CB        -5.2950   11.6410   43.1260 C.3   285  HIS285      0.0745
     46  CG        -4.7610   11.4840   41.7300 C.ar  285  HIS285      0.0817
     47  ND1       -3.4150   11.5670   41.4390 N.ar  285  HIS285     -0.2268
     48  CD2       -5.3890   11.2350   40.5580 C.ar  285  HIS285      0.1154
     49  CE1       -3.2360   11.3750   40.1420 C.ar  285  HIS285      0.1986
     50  NE2       -4.4190   11.1760   39.5820 N.ar  285  HIS285     -0.2212
     51  N         -8.7770    8.8470   40.2860 N.3   287  ASP287     -0.1239
     52  CA        -9.2680    9.7080   39.2140 C.3   287  ASP287      0.1674
     53  C        -10.7170   10.0260   39.4770 C.2   287  ASP287      0.2266
     54  O        -11.4430    9.1940   40.0010 O.2   287  ASP287     -0.2867
     55  CB        -9.0510    9.0660   37.8240 C.3   287  ASP287      0.1410
     56  CG        -7.6400    9.2820   37.3080 C.2   287  ASP287      0.3668
     57  OD1       -7.3340    8.8610   36.1730 O.co2 287  ASP287     -0.2456
     58  OD2       -6.8250    9.8880   38.0380 O.co2 287  ASP287     -0.2456
     59  N         -8.7930    5.2670   32.8170 N.3   293  VAL293     -0.1245
     60  CA        -7.9520    6.1090   31.9670 C.3   293  VAL293      0.1561
     61  C         -7.2210    5.3040   30.9220 C.2   293  VAL293      0.2260
     62  O         -6.7320    4.2050   31.2040 O.2   293  VAL293     -0.2867
     63  CB        -6.7910    6.8060   32.7340 C.3   293  VAL293      0.0252
     64  CG1       -6.9540    8.3260   32.7510 C.3   293  VAL293      0.0019
     65  CG2       -6.6220    6.2490   34.1090 C.3   293  VAL293      0.0019
     66  N         -3.7840    6.1430   28.5600 N.3   295  TYR295     -0.1241
     67  CA        -2.6560    7.0190   28.7530 C.3   295  TYR295      0.1605
     68  C         -1.5300    6.6230   27.8060 C.2   295  TYR295      0.2264
     69  O         -0.8880    5.5990   28.0270 O.2   295  TYR295     -0.2867
     70  CB        -2.2010    6.8060   30.1740 C.3   295  TYR295      0.0534
     71  CG        -1.4720    7.9500   30.7750 C.ar  295  TYR295     -0.0201
     72  CD1       -2.1540    9.0710   31.2280 C.ar  295  TYR295     -0.0009
     73  CD2       -0.0920    7.8970   30.9270 C.ar  295  TYR295     -0.0009
     74  CE1       -1.4670   10.1310   31.8140 C.ar  295  TYR295      0.0417
     75  CE2        0.6070    8.9350   31.5110 C.ar  295  TYR295      0.0417
     76  CZ        -0.0800   10.0530   31.9550 C.ar  295  TYR295      0.1957
     77  OH         0.6390   11.0810   32.5310 O.3   295  TYR295     -0.2866
     78  N          7.1410    7.9780   32.1260 N.3   302  LYS302     -0.1245
     79  CA         6.4180    8.1440   33.3780 C.3   302  LYS302      0.1561
     80  C          6.6500    6.9440   34.2710 C.2   302  LYS302      0.2260
     81  O          6.7980    5.8190   33.7990 O.2   302  LYS302     -0.2867
     82  CB         4.9210    8.2630   33.1430 C.3   302  LYS302      0.0271
     83  CG         4.4930    9.4450   32.3210 C.3   302  LYS302      0.0035
     84  CD         4.4590   10.7060   33.1470 C.3   302  LYS302      0.0206
     85  CE         3.5920   11.7600   32.4680 C.3   302  LYS302      0.1093
     86  NZ         3.7950   13.1030   33.0930 N.3   302  LYS302     -0.1314
     87  N          4.5840    5.2190   37.3760 N.3   304  PHE304     -0.1241
     88  CA         3.3830    5.2050   38.1790 C.3   304  PHE304      0.1605
     89  C          3.5970    4.3720   39.4390 C.2   304  PHE304      0.2264
     90  O          4.2060    3.2890   39.3920 O.2   304  PHE304     -0.2867
     91  CB         2.2220    4.6430   37.3680 C.3   304  PHE304      0.0534
     92  CG         1.5690    5.6490   36.4720 C.ar  304  PHE304     -0.0203
     93  CD1        2.3090    6.3460   35.5400 C.ar  304  PHE304     -0.0042
     94  CD2        0.2100    5.8920   36.5570 C.ar  304  PHE304     -0.0042
     95  CE1        1.7000    7.2750   34.7020 C.ar  304  PHE304     -0.0003
     96  CE2       -0.3970    6.8200   35.7330 C.ar  304  PHE304     -0.0003
     97  CZ         0.3510    7.5120   34.8030 C.ar  304  PHE304     -0.0000
     98  N         -3.1140    6.2080   42.6540 N.3   357  HIS357     -0.1241
     99  CA        -1.8670    6.3600   41.9160 C.3   357  HIS357      0.1621
    100  C         -1.2160    7.7280   42.0120 C.2   357  HIS357      0.2264
    101  O         -1.8730    8.7450   42.1260 O.2   357  HIS357     -0.2867
    102  CB        -2.0670    5.9650   40.4460 C.3   357  HIS357      0.0745
    103  CG        -3.0110    6.8520   39.6970 C.ar  357  HIS357      0.0817
    104  ND1       -4.3770    6.7390   39.7950 N.ar  357  HIS357     -0.2268
    105  CD2       -2.7790    7.8350   38.7920 C.ar  357  HIS357      0.1154
    106  CE1       -4.9510    7.6450   39.0260 C.ar  357  HIS357      0.1986
    107  NE2       -4.0030    8.3080   38.3870 N.ar  357  HIS357     -0.2212
    108  N          2.3820    9.8990   40.2760 N.3   359  VAL359     -0.1245
    109  CA         3.2280    9.8370   39.0960 C.3   359  VAL359      0.1561
    110  C          4.4680   10.7190   39.1620 C.2   359  VAL359      0.2260
    111  O          4.3880   11.9130   39.4400 O.2   359  VAL359     -0.2867
    112  CB         2.4450   10.2170   37.8260 C.3   359  VAL359      0.0252
    113  CG1        3.3060    9.9650   36.5710 C.3   359  VAL359      0.0019
    114  CG2        1.1550    9.4330   37.7560 C.3   359  VAL359      0.0019
    115  N          7.7200   12.0430   36.7640 N.3   361  THR361     -0.1218
    116  CA         8.0640   12.2990   35.3680 C.3   361  THR361      0.1862
    117  C          9.5640   12.5550   35.3030 C.2   361  THR361      0.2287
    118  O         10.0030   13.6920   35.4170 O.2   361  THR361     -0.2866
    119  CB         7.3160   13.5400   34.8540 C.3   361  THR361      0.1770
    120  OG1        5.9160   13.4040   35.1400 O.3   361  THR361     -0.2211
    121  CG2        7.5220   13.7390   33.3360 C.3   361  THR361      0.0375
    122  N        -10.1120   10.2050   30.3030 N.3   371  ASN371     -0.1240
    123  CA       -10.8840    9.5660   31.3610 C.3   371  ASN371      0.1653
    124  C        -12.2690    9.1830   30.8770 C.2   371  ASN371      0.2266
    125  O        -12.8720    9.8950   30.0520 O.2   371  ASN371     -0.2867
    126  CB       -10.9950   10.5250   32.5560 C.3   371  ASN371      0.1155
    127  CG        -9.6760   10.7200   33.2370 C.2   371  ASN371      0.2627
    128  OD1       -8.8640   11.5500   32.8140 O.2   371  ASN371     -0.2716
    129  ND2       -9.4230    9.9250   34.2730 N.am  371  ASN371     -0.0877
@<TRIPOS>BOND
     1    68    69    2
     2    68    67    1
     3    26    27    1
     4    29    28    2
     5    66    67    1
     6    67    70    1
     7    28    27    1
     8    27    30    1
     9    32    31    1
    10   125   124    2
    11    70    71    1
    12    30    31    1
    13   122   123    1
    14    31    33    1
    15    71    73   ar
    16    71    72   ar
    17   124   123    1
    18    61    62    2
    19    61    60    1
    20    73    75   ar
    21    72    74   ar
    22   123   126    1
    23    75    76   ar
    24    74    76   ar
    25    76    77    1
    26    60    63    1
    27    60    59    1
    28    78    79    1
    29    83    82    1
    30    83    84    1
    31    85    86    1
    32    85    84    1
    33   126   127    1
    34    21    20    2
    35    63    64    1
    36    63    65    1
    37   128   127    2
    38    20    19    1
    39    82    79    1
    40   127   129   am
    41   121   119    1
    42     1     2    1
    43    79    80    1
    44     4     3    2
    45    18    19    1
    46    81    80    2
    47    12    11    1
    48    12    13    2
    49    19    22    1
    50    11    10    1
    51    11    14    1
    52     3     2    1
    53     2     5    1
    54     5     6    1
    55    22    23    1
    56    17    15   am
    57    95    97   ar
    58    95    93   ar
    59    16    15    2
    60    97    96   ar
    61   119   120    1
    62   119   116    1
    63    15    14    1
    64   117   116    1
    65   117   118    2
    66   116   115    1
    67     8     9    1
    68     8     7    1
    69    93    92   ar
    70    96    94   ar
    71     6     7    1
    72    57    56   ar
    73    23    24    1
    74    23    25    1
    75    92    94   ar
    76    92    91    1
    77   113   112    1
    78    56    55    1
    79    56    58   ar
    80    91    88    1
    81    87    88    1
    82   114   112    1
    83    55    52    1
    84   112   109    1
    85    88    89    1
    86   107   105   ar
    87   107   106   ar
    88    39    38    1
    89   105   103   ar
    90   106   104   ar
    91   109   110    1
    92   109   108    1
    93   110   111    2
    94    52    53    1
    95    52    51    1
    96    90    89    2
    97    53    54    2
    98    50    49   ar
    99    50    48   ar
   100    38    40    1
   101    38    35    1
   102   103   104   ar
   103   103   102    1
   104    49    47   ar
   105   102    99    1
   106    48    46   ar
   107    34    35    1
   108    35    36    1
   109    47    46   ar
   110    46    45    1
   111    37    36    2
   112    99   100    1
   113    99    98    1
   114   100   101    2
   115    44    43    2
   116    45    42    1
   117    43    42    1
   118    42    41    1
