@<TRIPOS>MOLECULE
tmp/3pusA00.pdb
 113 105 0 0 0
SMALL
GASTEIGER

@<TRIPOS>ATOM
      1  N        -22.8550  -10.0430   10.7300 N.3   114  THR114     -0.1218
      2  CA       -21.7660   -9.2420   10.2050 C.3   114  THR114      0.1862
      3  C        -22.1480   -8.5320    8.9110 C.2   114  THR114      0.2287
      4  O        -21.2790   -8.0020    8.2140 O.2   114  THR114     -0.2866
      5  CB       -20.4910  -10.0960   10.0040 C.3   114  THR114      0.1770
      6  OG1      -20.8220  -11.2870    9.2830 O.3   114  THR114     -0.2211
      7  CG2      -19.8900  -10.4890   11.3540 C.3   114  THR114      0.0375
      8  N        -22.2910   -0.3570    9.1320 N.3   157  TYR157     -0.1241
      9  CA       -22.5730   -1.7200    9.5180 C.3   157  TYR157      0.1605
     10  C        -22.4190   -1.8690   11.0230 C.2   157  TYR157      0.2264
     11  O        -21.5380   -1.2600   11.6270 O.2   157  TYR157     -0.2867
     12  CB       -21.6020   -2.6740    8.8290 C.3   157  TYR157      0.0534
     13  CG       -21.8970   -2.8540    7.3640 C.ar  157  TYR157     -0.0201
     14  CD1      -22.8320   -3.7830    6.9380 C.ar  157  TYR157     -0.0009
     15  CD2      -21.2430   -2.0920    6.4090 C.ar  157  TYR157     -0.0009
     16  CE1      -23.1130   -3.9380    5.5900 C.ar  157  TYR157      0.0417
     17  CE2      -21.5150   -2.2410    5.0850 C.ar  157  TYR157      0.0417
     18  CZ       -22.4490   -3.1600    4.6720 C.ar  157  TYR157      0.1957
     19  OH       -22.7030   -3.3000    3.3290 O.3   157  TYR157     -0.2866
     20  N        -21.6030   -4.7930   13.6560 N.3   159  LEU159     -0.1245
     21  CA       -21.1600   -6.1760   13.6700 C.3   159  LEU159      0.1561
     22  C        -21.2960   -6.7440   15.0640 C.2   159  LEU159      0.2260
     23  O        -20.7240   -6.2170   16.0230 O.2   159  LEU159     -0.2867
     24  CB       -19.7160   -6.2900   13.1890 C.3   159  LEU159      0.0270
     25  CG       -19.5470   -5.5100   11.8800 C.3   159  LEU159      0.0019
     26  CD1      -18.2030   -4.8870   11.8050 C.3   159  LEU159      0.0001
     27  CD2      -19.8220   -6.3930   10.6600 C.3   159  LEU159      0.0001
     28  N        -20.5460  -10.1230   17.1300 N.3   161  CYS161     -0.1235
     29  CA       -19.8970  -11.4270   17.1500 C.3   161  CYS161      0.1677
     30  C        -19.7680  -11.9970   18.5800 C.2   161  CYS161      0.2270
     31  O        -19.4170  -11.2870   19.5150 O.2   161  CYS161     -0.2867
     32  CB       -18.5180  -11.3450   16.4710 C.3   161  CYS161      0.0956
     33  SG       -18.5230  -10.5870   14.7950 S.3   161  CYS161     -0.0801
     34  N        -14.4240  -15.1650   11.1240 N.3   167  THR167     -0.1218
     35  CA       -14.7590  -14.7900    9.7570 C.3   167  THR167      0.1862
     36  C        -13.5690  -15.1600    8.8810 C.2   167  THR167      0.2287
     37  O        -12.4430  -14.7410    9.1490 O.2   167  THR167     -0.2866
     38  CB       -15.0510  -13.2920    9.6170 C.3   167  THR167      0.1770
     39  OG1      -16.2230  -12.9690   10.3620 O.3   167  THR167     -0.2211
     40  CG2      -15.2910  -12.9260    8.1460 C.3   167  THR167      0.0375
     41  N        -11.0350  -13.0990    3.2020 N.3   170  HIS170     -0.1241
     42  CA       -11.7930  -12.5590    2.0950 C.3   170  HIS170      0.1621
     43  C        -11.2600  -11.1990    1.7730 C.2   170  HIS170      0.2264
     44  O        -10.5910  -10.5830    2.5930 O.2   170  HIS170     -0.2867
     45  CB       -13.2730  -12.4240    2.4950 C.3   170  HIS170      0.0745
     46  CG       -13.4930  -11.4820    3.6360 C.ar  170  HIS170      0.0817
     47  ND1      -13.1970  -11.8180    4.9430 N.ar  170  HIS170     -0.2268
     48  CD2      -13.9950  -10.2250    3.6730 C.ar  170  HIS170      0.1154
     49  CE1      -13.4890  -10.8000    5.7310 C.ar  170  HIS170      0.1986
     50  NE2      -13.9800   -9.8240    4.9880 N.ar  170  HIS170     -0.2212
     51  N        -12.7700   -7.5140    0.7870 N.3   172  ASP172     -0.1239
     52  CA       -14.0620   -6.8610    0.8250 C.3   172  ASP172      0.1674
     53  C        -14.5240   -6.5090   -0.5780 C.2   172  ASP172      0.2266
     54  O        -13.7150   -6.2320   -1.4510 O.2   172  ASP172     -0.2867
     55  CB       -14.0440   -5.6470    1.7550 C.3   172  ASP172      0.1410
     56  CG       -14.1160   -6.0590    3.2140 C.2   172  ASP172      0.3668
     57  OD1      -14.7360   -7.1010    3.4590 O.co2 172  ASP172     -0.2456
     58  OD2      -13.5430   -5.3840    4.0950 O.co2 172  ASP172     -0.2456
     59  N        -13.0410    0.2800   10.7880 N.3   180  TYR180     -0.1241
     60  CA       -13.5860   -0.7500   11.6350 C.3   180  TYR180      0.1605
     61  C        -13.2960   -0.3370   13.0690 C.2   180  TYR180      0.2264
     62  O        -12.1390   -0.2570   13.4620 O.2   180  TYR180     -0.2867
     63  CB       -12.9260   -2.0810   11.3180 C.3   180  TYR180      0.0534
     64  CG       -13.6170   -3.2430   11.9810 C.ar  180  TYR180     -0.0201
     65  CD1      -14.4580   -4.0750   11.2550 C.ar  180  TYR180     -0.0009
     66  CD2      -13.4360   -3.5050   13.3340 C.ar  180  TYR180     -0.0009
     67  CE1      -15.1010   -5.1340   11.8570 C.ar  180  TYR180      0.0417
     68  CE2      -14.0800   -4.5670   13.9550 C.ar  180  TYR180      0.0417
     69  CZ       -14.9110   -5.3760   13.2090 C.ar  180  TYR180      0.1957
     70  OH       -15.5520   -6.4320   13.8020 O.3   180  TYR180     -0.2866
     71  N        -11.2630   -7.6420   18.7020 N.3   187  LYS187     -0.1245
     72  CA       -11.3040   -8.3610   17.4320 C.3   187  LYS187      0.1561
     73  C         -9.8770   -8.6100   16.9840 C.2   187  LYS187      0.2260
     74  O         -9.0430   -7.7030   17.0170 O.2   187  LYS187     -0.2867
     75  CB       -11.9840   -7.5020   16.3670 C.3   187  LYS187      0.0271
     76  CG       -13.3610   -7.9520   15.9660 C.3   187  LYS187      0.0035
     77  CD       -13.3250   -9.2100   15.1290 C.3   187  LYS187      0.0206
     78  CE       -14.7410   -9.7100   14.9180 C.3   187  LYS187      0.1093
     79  NZ       -15.4760   -9.7400   16.2110 N.3   187  LYS187     -0.1314
     80  N         -8.1480  -10.7810    4.3790 N.3   242  TYR242     -0.1241
     81  CA        -8.1040  -10.8860    5.8340 C.3   242  TYR242      0.1605
     82  C         -9.1910  -11.7420    6.4170 C.2   242  TYR242      0.2264
     83  O        -10.2230  -11.9660    5.7910 O.2   242  TYR242     -0.2867
     84  CB        -8.1090   -9.5120    6.4970 C.3   242  TYR242      0.0534
     85  CG        -9.4270   -8.7870    6.4040 C.ar  242  TYR242     -0.0201
     86  CD1      -10.3590   -8.8790    7.4220 C.ar  242  TYR242     -0.0009
     87  CD2       -9.7270   -7.9900    5.2960 C.ar  242  TYR242     -0.0009
     88  CE1      -11.5680   -8.2160    7.3350 C.ar  242  TYR242      0.0417
     89  CE2      -10.9180   -7.3150    5.1990 C.ar  242  TYR242      0.0417
     90  CZ       -11.8440   -7.4390    6.2190 C.ar  242  TYR242      0.1957
     91  OH       -13.0240   -6.7590    6.1250 O.3   242  TYR242     -0.2866
     92  N        -10.9390  -12.8020   10.5660 N.3   244  THR244     -0.1218
     93  CA       -11.0460  -12.3150   11.9330 C.3   244  THR244      0.1862
     94  C        -11.3870  -13.4420   12.8950 C.2   244  THR244      0.2287
     95  O        -12.0360  -14.4210   12.5270 O.2   244  THR244     -0.2866
     96  CB       -12.1540  -11.2410   12.1040 C.3   244  THR244      0.1770
     97  OG1      -13.4390  -11.8400   11.8940 O.3   244  THR244     -0.2211
     98  CG2      -11.9570  -10.0690   11.1490 C.3   244  THR244      0.0375
     99  N        -18.5600   -0.4980   11.3850 N.3   254  ALA254     -0.1245
    100  CA       -17.6580   -0.4420   10.2440 C.3   254  ALA254      0.1562
    101  C        -18.3480    0.2230    9.0410 C.2   254  ALA254      0.2260
    102  O        -19.5650    0.3920    9.0290 O.2   254  ALA254     -0.2867
    103  CB       -17.1970   -1.8350    9.8780 C.3   254  ALA254      0.0290
    104  N        -17.5750    0.9160    4.4650 N.3   256  HIS256     -0.1241
    105  CA       -16.7280    0.5740    3.3310 C.3   256  HIS256      0.1621
    106  C        -16.8020    1.6930    2.3210 C.2   256  HIS256      0.2264
    107  O        -17.8570    2.3080    2.1370 O.2   256  HIS256     -0.2867
    108  CB       -17.1520   -0.7620    2.7200 C.3   256  HIS256      0.0745
    109  CG       -17.0830   -1.9080    3.6820 C.ar  256  HIS256      0.0817
    110  ND1      -15.9980   -2.7560    3.7590 N.ar  256  HIS256     -0.2268
    111  CD2      -17.9580   -2.3330    4.6250 C.ar  256  HIS256      0.1154
    112  CE1      -16.2120   -3.6580    4.7020 C.ar  256  HIS256      0.1986
    113  NE2      -17.4000   -3.4310    5.2310 N.ar  256  HIS256     -0.2212
@<TRIPOS>BOND
     1    54    53    2
     2    53    52    1
     3    51    52    1
     4    52    55    1
     5    55    56    1
     6    43    42    1
     7    43    44    2
     8    42    45    1
     9    42    41    1
    10   107   106    2
    11   106   105    1
    12    45    46    1
    13   108   105    1
    14   108   109    1
    15    56    57   ar
    16    56    58   ar
    17    19    18    1
    18   105   104    1
    19    46    48   ar
    20    46    47   ar
    21    48    50   ar
    22   109   110   ar
    23   109   111   ar
    24   110   112   ar
    25    80    81    1
    26   111   113   ar
    27    18    17   ar
    28    18    16   ar
    29   112   113   ar
    30    47    49   ar
    31    50    49   ar
    32    17    15   ar
    33    89    87   ar
    34    89    90   ar
    35    87    85   ar
    36    16    14   ar
    37    83    82    2
    38    81    82    1
    39    81    84    1
    40    91    90    1
    41    90    88   ar
    42    85    84    1
    43    85    86   ar
    44    15    13   ar
    45    14    13   ar
    46    88    86   ar
    47    13    12    1
    48    40    38    1
    49     4     3    2
    50    12     9    1
    51    36    37    2
    52    36    35    1
    53     3     2    1
    54   102   101    2
    55   101   100    1
    56     8     9    1
    57     6     5    1
    58     9    10    1
    59    38    35    1
    60    38    39    1
    61    35    34    1
    62   103   100    1
    63     5     2    1
    64     5     7    1
    65     2     1    1
    66   100    99    1
    67    92    93    1
    68    27    25    1
    69    59    60    1
    70    10    11    2
    71    98    96    1
    72    65    67   ar
    73    65    64   ar
    74    63    60    1
    75    63    64    1
    76    60    61    1
    77    26    25    1
    78    67    69   ar
    79    25    24    1
    80    97    96    1
    81    93    96    1
    82    93    94    1
    83    64    66   ar
    84    95    94    2
    85    61    62    2
    86    24    21    1
    87    69    70    1
    88    69    68   ar
    89    66    68   ar
    90    20    21    1
    91    21    22    1
    92    33    32    1
    93    78    77    1
    94    78    79    1
    95    22    23    2
    96    77    76    1
    97    76    75    1
    98    75    72    1
    99    32    29    1
   100    73    74    2
   101    73    72    1
   102    28    29    1
   103    29    30    1
   104    72    71    1
   105    30    31    2
