@<TRIPOS>MOLECULE
tmp/3putB00.pdb
 115 114 0 0 0
SMALL
GASTEIGER

@<TRIPOS>ATOM
      1  N         -7.1600   18.7820   24.0100 N.3    26  TRP26      -0.1241
      2  CA        -6.4210   18.2730   22.8410 C.3    26  TRP26       0.1605
      3  C         -7.3730   17.7460   21.7730 C.2    26  TRP26       0.2264
      4  O         -7.0570   17.7440   20.5830 O.2    26  TRP26      -0.2867
      5  CB        -5.4730   17.1270   23.2360 C.3    26  TRP26       0.0550
      6  CG        -4.2880   17.5490   24.0270 C.ar   26  TRP26       0.0003
      7  CD1       -4.2490   17.8050   25.3660 C.ar   26  TRP26       0.0946
      8  CD2       -2.9560   17.7400   23.5410 C.ar   26  TRP26       0.0152
      9  NE1       -2.9850   18.1710   25.7390 N.ar   26  TRP26      -0.2442
     10  CE2       -2.1680   18.1380   24.6380 C.ar   26  TRP26       0.0810
     11  CE3       -2.3570   17.6350   22.2800 C.ar   26  TRP26       0.0012
     12  CZ2       -0.8110   18.4270   24.5180 C.ar   26  TRP26       0.0191
     13  CZ3       -1.0040   17.9170   22.1600 C.ar   26  TRP26       0.0001
     14  CH2       -0.2430   18.3040   23.2750 C.ar   26  TRP26       0.0015
     15  N         -8.3370   23.3410   21.0700 N.3    32  LYS32      -0.1245
     16  CA        -6.9550   23.2250   20.6190 C.3    32  LYS32       0.1561
     17  C         -6.5100   24.5010   19.8900 C.2    32  LYS32       0.2260
     18  O         -5.4190   25.0070   20.1220 O.2    32  LYS32      -0.2867
     19  CB        -6.8120   21.9850   19.7240 C.3    32  LYS32       0.0271
     20  CG        -5.3910   21.6470   19.2550 C.3    32  LYS32       0.0035
     21  CD        -4.5950   20.9010   20.3040 C.3    32  LYS32       0.0206
     22  CE        -3.1510   20.6630   19.8640 C.3    32  LYS32       0.1093
     23  NZ        -3.0120   19.5700   18.8800 N.3    32  LYS32      -0.1314
     24  N         -5.3770   27.4870   22.2480 N.3    35  TRP35      -0.1227
     25  CA        -4.0770   27.4860   22.9260 C.3    35  TRP35       0.1737
     26  C         -2.8990   27.1400   22.0290 C.2    35  TRP35       0.2595
     27  O         -1.7570   27.4460   22.3570 O.2    35  TRP35      -0.2718
     28  CB        -4.0820   26.5800   24.1640 C.3    35  TRP35       0.0564
     29  CG        -4.2670   25.1030   23.9290 C.ar   35  TRP35       0.0003
     30  CD1       -5.4430   24.4200   23.9480 C.ar   35  TRP35       0.0946
     31  CD2       -3.2370   24.1250   23.6950 C.ar   35  TRP35       0.0152
     32  NE1       -5.2190   23.0800   23.7260 N.ar   35  TRP35      -0.2442
     33  CE2       -3.8720   22.8700   23.5750 C.ar   35  TRP35       0.0810
     34  CE3       -1.8410   24.1870   23.5900 C.ar   35  TRP35       0.0012
     35  CZ2       -3.1630   21.6850   23.3330 C.ar   35  TRP35       0.0191
     36  CZ3       -1.1360   23.0170   23.3590 C.ar   35  TRP35       0.0001
     37  CH2       -1.8030   21.7750   23.2330 C.ar   35  TRP35       0.0015
     38  N         -3.1820   26.5020   20.9030 N.am   36  PHE36      -0.1976
     39  CA        -2.1250   26.0660   19.9990 C.3    36  PHE36       0.1639
     40  C         -1.9760   27.0660   18.8580 C.2    36  PHE36       0.2290
     41  O         -0.8640   27.4530   18.5170 O.2    36  PHE36      -0.2864
     42  CB        -2.4250   24.6560   19.4660 C.3    36  PHE36       0.0560
     43  CG        -1.4740   24.1800   18.3930 C.ar   36  PHE36      -0.0200
     44  CD1       -0.1100   24.4160   18.4880 C.ar   36  PHE36      -0.0042
     45  CD2       -1.9490   23.4620   17.3010 C.ar   36  PHE36      -0.0042
     46  CE1        0.7740   23.9610   17.4930 C.ar   36  PHE36      -0.0003
     47  CE2       -1.0810   23.0080   16.3060 C.ar   36  PHE36      -0.0003
     48  CZ         0.2810   23.2620   16.4060 C.ar   36  PHE36      -0.0000
     49  N         -4.2390   17.2450   11.3400 N.3    57  GLU57      -0.1245
     50  CA        -4.3470   18.5660   11.9310 C.3    57  GLU57       0.1567
     51  C         -3.4650   19.4870   11.1060 C.2    57  GLU57       0.2260
     52  O         -2.3610   19.0900   10.6830 O.2    57  GLU57      -0.2867
     53  CB        -3.8760   18.5350   13.3730 C.3    57  GLU57       0.0388
     54  CG        -3.9000   19.8950   14.0780 C.3    57  GLU57       0.1160
     55  CD        -3.5370   19.7640   15.5460 C.2    57  GLU57       0.3649
     56  OE1       -2.9930   18.6950   15.9110 O.co2  57  GLU57      -0.2457
     57  OE2       -3.8090   20.7040   16.3290 O.co2  57  GLU57      -0.2457
     58  N          2.3340   23.7750    9.7440 N.3    71  TYR71      -0.1241
     59  CA         2.3590   22.5920   10.5910 C.3    71  TYR71       0.1605
     60  C          1.3180   21.6190   10.0380 C.2    71  TYR71       0.2264
     61  O          0.1500   21.9790    9.8990 O.2    71  TYR71      -0.2867
     62  CB         1.9950   23.0010   12.0240 C.3    71  TYR71       0.0534
     63  CG         1.7040   21.8690   13.0000 C.ar   71  TYR71      -0.0201
     64  CD1        0.4370   21.2930   13.0700 C.ar   71  TYR71      -0.0009
     65  CD2        2.6700   21.4370   13.9010 C.ar   71  TYR71      -0.0009
     66  CE1        0.1510   20.2870   13.9860 C.ar   71  TYR71       0.0417
     67  CE2        2.3980   20.4220   14.8150 C.ar   71  TYR71       0.0417
     68  CZ         1.1480   19.8540   14.8470 C.ar   71  TYR71       0.1957
     69  OH         0.8830   18.8590   15.7580 O.3    71  TYR71      -0.2866
     70  N          1.1450   11.1480   17.4380 N.3    86  TYR86      -0.1241
     71  CA         0.9960   11.6840   16.0930 C.3    86  TYR86       0.1605
     72  C          2.3460   11.9940   15.4610 C.2    86  TYR86       0.2264
     73  O          3.3310   12.1860   16.1660 O.2    86  TYR86      -0.2867
     74  CB         0.1010   12.9400   16.0830 C.3    86  TYR86       0.0534
     75  CG         0.5830   14.1170   16.9240 C.ar   86  TYR86      -0.0201
     76  CD1        0.2060   14.2350   18.2540 C.ar   86  TYR86      -0.0009
     77  CD2        1.3790   15.1310   16.3760 C.ar   86  TYR86      -0.0009
     78  CE1        0.6250   15.3120   19.0390 C.ar   86  TYR86       0.0417
     79  CE2        1.7990   16.2360   17.1600 C.ar   86  TYR86       0.0417
     80  CZ         1.4100   16.3090   18.4910 C.ar   86  TYR86       0.1957
     81  OH         1.7950   17.3590   19.3030 O.3    86  TYR86      -0.2866
     82  N          5.0750   14.7520   27.6030 N.3   115  PHE115     -0.1241
     83  CA         5.1260   15.0310   26.1780 C.3   115  PHE115      0.1605
     84  C          6.5150   14.6250   25.7020 C.2   115  PHE115      0.2264
     85  O          7.5170   15.1610   26.1750 O.2   115  PHE115     -0.2867
     86  CB         4.8950   16.5250   25.9720 C.3   115  PHE115      0.0534
     87  CG         4.8500   16.9670   24.5260 C.ar  115  PHE115     -0.0203
     88  CD1        6.0210   17.1670   23.8050 C.ar  115  PHE115     -0.0042
     89  CD2        3.6340   17.2260   23.9110 C.ar  115  PHE115     -0.0042
     90  CE1        5.9860   17.6120   22.4770 C.ar  115  PHE115     -0.0003
     91  CE2        3.5830   17.6580   22.5910 C.ar  115  PHE115     -0.0003
     92  CZ         4.7660   17.8630   21.8720 C.ar  115  PHE115     -0.0000
     93  N          9.9920   26.2830   22.3630 N.3   134  GLY134     -0.1210
     94  CA         8.7030   26.6540   21.8000 C.3   134  GLY134      0.1956
     95  C          7.5870   25.7460   22.2770 C.2   134  GLY134      0.2612
     96  O          6.4320   26.1660   22.4390 O.2   134  GLY134     -0.2717
     97  N          7.9360   24.4870   22.5050 N.am  135  THR135     -0.1952
     98  CA         6.9790   23.5110   23.0110 C.3   135  THR135      0.1897
     99  C          6.6700   23.7670   24.4760 C.2   135  THR135      0.2313
    100  O          5.5110   23.7050   24.8810 O.2   135  THR135     -0.2863
    101  CB         7.4760   22.0710   22.7650 C.3   135  THR135      0.1794
    102  OG1        7.6880   21.9150   21.3550 O.3   135  THR135     -0.2208
    103  CG2        6.4440   21.0590   23.2220 C.3   135  THR135      0.0378
    104  N          4.3300   26.5640   24.4380 N.3   138  GLY138     -0.1210
    105  CA         3.0350   26.1030   23.9730 C.3   138  GLY138      0.1956
    106  C          2.2700   25.3420   25.0420 C.2   138  GLY138      0.2611
    107  O          1.0470   25.4790   25.1610 O.2   138  GLY138     -0.2717
    108  N          2.9790   24.5290   25.8220 N.am  139  LEU139     -0.1979
    109  CA         2.3390   23.7680   26.8960 C.3   139  LEU139      0.1596
    110  C          1.9460   24.6840   28.0620 C.2   139  LEU139      0.2287
    111  O          1.0000   24.3870   28.8000 O.2   139  LEU139     -0.2864
    112  CB         3.2260   22.6080   27.3570 C.3   139  LEU139      0.0297
    113  CG         3.4650   21.5650   26.2580 C.3   139  LEU139      0.0022
    114  CD1        4.2980   20.4020   26.7780 C.3   139  LEU139      0.0001
    115  CD2        2.1340   21.0740   25.6800 C.3   139  LEU139      0.0001
@<TRIPOS>BOND
     1    58    59    1
     2    61    60    2
     3    60    59    1
     4    59    62    1
     5    52    51    2
     6    51    50    1
     7    49    50    1
     8    50    53    1
     9    62    63    1
    10    63    64   ar
    11    63    65   ar
    12    64    66   ar
    13    53    54    1
    14    65    67   ar
    15    66    68   ar
    16    54    55    1
    17    67    68   ar
    18    68    69    1
    19    72    71    1
    20    72    73    2
    21    55    56   ar
    22    55    57   ar
    23    74    71    1
    24    74    75    1
    25    71    70    1
    26    47    48   ar
    27    47    45   ar
    28    77    75   ar
    29    77    79   ar
    30    48    46   ar
    31    75    76   ar
    32    79    80   ar
    33    45    43   ar
    34    46    44   ar
    35    76    78   ar
    36    43    44   ar
    37    43    42    1
    38    80    78   ar
    39    80    81    1
    40    41    40    2
    41    40    39    1
    42    23    22    1
    43    20    19    1
    44    20    21    1
    45    42    39    1
    46    19    16    1
    47    22    21    1
    48    17    18    2
    49    17    16    1
    50    39    38    1
    51     4     3    2
    52    16    15    1
    53    38    26   am
    54   102   101    1
    55     3     2    1
    56    94    95    1
    57    94    93    1
    58    92    90   ar
    59    92    91   ar
    60    26    27    2
    61    26    25    1
    62    13    11   ar
    63    13    14   ar
    64    24    25    1
    65    95    96    2
    66    95    97   am
    67    11     8   ar
    68    90    88   ar
    69    97    98    1
    70    91    89   ar
    71   101    98    1
    72   101   103    1
    73     2     5    1
    74     2     1    1
    75    25    28    1
    76    98    99    1
    77    37    35   ar
    78    37    36   ar
    79     5     6    1
    80    14    12   ar
    81    35    33   ar
    82    36    34   ar
    83     8     6   ar
    84     8    10   ar
    85    33    31   ar
    86    33    32   ar
    87    34    31   ar
    88    31    29   ar
    89    32    30   ar
    90    88    87   ar
    91    89    87   ar
    92    29    30   ar
    93    29    28    1
    94   105   104    1
    95   105   106    1
    96     6     7   ar
    97    99   100    2
    98    12    10   ar
    99    87    86    1
   100    10     9   ar
   101   106   107    2
   102   106   108   am
   103     7     9   ar
   104   115   113    1
   105    84    85    2
   106    84    83    1
   107   108   109    1
   108    86    83    1
   109    83    82    1
   110   113   114    1
   111   113   112    1
   112   109   112    1
   113   109   110    1
   114   110   111    2
