@<TRIPOS>MOLECULE
tmp/3puvB04.pdb
 90 84 0 0 0
SMALL
GASTEIGER

@<TRIPOS>ATOM
      1  N        -57.2310   42.2560   27.3550 N.3   266  ALA266     -0.1245
      2  CA       -56.4260   43.3340   26.7700 C.3   266  ALA266      0.1562
      3  C        -55.0730   43.4990   27.4650 C.2   266  ALA266      0.2260
      4  O        -54.0740   43.8230   26.8190 O.2   266  ALA266     -0.2867
      5  CB       -57.2020   44.6450   26.7790 C.3   266  ALA266      0.0290
      6  N        -52.8940   40.1840   26.6310 N.3   269  VAL269     -0.1231
      7  CA       -52.2540   40.2920   25.3180 C.3   269  VAL269      0.1692
      8  C        -50.9730   41.1270   25.4100 C.2   269  VAL269      0.2592
      9  O        -49.9320   40.7300   24.8770 O.2   269  VAL269     -0.2718
     10  CB       -53.2220   40.8460   24.2320 C.3   269  VAL269      0.0266
     11  CG1      -52.4960   41.0720   22.9100 C.3   269  VAL269      0.0020
     12  CG2      -54.3890   39.8930   24.0230 C.3   269  VAL269      0.0020
     13  N        -51.0470   42.2620   26.1040 N.am  270  TRP270     -0.1976
     14  CA       -49.8770   43.1190   26.2980 C.3   270  TRP270      0.1640
     15  C        -48.7610   42.4290   27.0850 C.2   270  TRP270      0.2290
     16  O        -47.5880   42.6060   26.7620 O.2   270  TRP270     -0.2864
     17  CB       -50.2540   44.4630   26.9440 C.3   270  TRP270      0.0576
     18  CG       -49.0870   45.1630   27.6060 C.ar  270  TRP270      0.0006
     19  CD1      -48.9410   45.4240   28.9370 C.ar  270  TRP270      0.0946
     20  CD2      -47.8980   45.6570   26.9680 C.ar  270  TRP270      0.0152
     21  NE1      -47.7440   46.0570   29.1680 N.ar  270  TRP270     -0.2442
     22  CE2      -47.0830   46.2110   27.9790 C.ar  270  TRP270      0.0810
     23  CE3      -47.4430   45.6820   25.6410 C.ar  270  TRP270      0.0012
     24  CZ2      -45.8380   46.7920   27.7060 C.ar  270  TRP270      0.0191
     25  CZ3      -46.2040   46.2560   25.3700 C.ar  270  TRP270      0.0001
     26  CH2      -45.4170   46.8020   26.4000 C.ar  270  TRP270      0.0015
     27  N        -47.0750   39.9780   24.6880 N.3   273  VAL273     -0.1245
     28  CA       -46.3240   40.7640   23.7030 C.3   273  VAL273      0.1561
     29  C        -45.0630   41.3960   24.3080 C.2   273  VAL273      0.2260
     30  O        -43.9720   41.2730   23.7450 O.2   273  VAL273     -0.2867
     31  CB       -47.2270   41.8180   23.0000 C.3   273  VAL273      0.0252
     32  CG1      -46.3990   42.8460   22.2480 C.3   273  VAL273      0.0019
     33  CG2      -48.1970   41.1290   22.0470 C.3   273  VAL273      0.0019
     34  N        -41.3650   40.2430   22.9800 N.3   277  ILE277     -0.1245
     35  CA       -40.4660   41.2490   22.4150 C.3   277  ILE277      0.1561
     36  C        -39.1910   41.4080   23.2480 C.2   277  ILE277      0.2260
     37  O        -38.0990   41.5430   22.6900 O.2   277  ILE277     -0.2867
     38  CB       -41.1780   42.6090   22.2050 C.3   277  ILE277      0.0252
     39  CG1      -42.2680   42.4680   21.1340 C.3   277  ILE277      0.0019
     40  CG2      -40.1790   43.6890   21.8010 C.3   277  ILE277      0.0019
     41  CD1      -43.1360   43.7000   20.9460 C.3   277  ILE277      0.0001
     42  N        -35.5400   40.5720   21.7310 N.3   281  LEU281     -0.1245
     43  CA       -34.5800   41.6720   21.6530 C.3   281  LEU281      0.1561
     44  C        -33.3500   41.4780   22.5340 C.2   281  LEU281      0.2260
     45  O        -32.2480   41.8610   22.1430 O.2   281  LEU281     -0.2867
     46  CB       -35.2460   43.0180   21.9540 C.3   281  LEU281      0.0270
     47  CG       -36.0650   43.6610   20.8310 C.3   281  LEU281      0.0019
     48  CD1      -36.6980   44.9390   21.3350 C.3   281  LEU281      0.0001
     49  CD2      -35.2240   43.9420   19.5900 C.3   281  LEU281      0.0001
     50  N        -48.8190   53.6340   23.3490 N.3   353  THR353     -0.1218
     51  CA       -47.8620   52.9280   22.4950 C.3   353  THR353      0.1862
     52  C        -46.4180   53.3650   22.7530 C.2   353  THR353      0.2287
     53  O        -45.5210   52.5210   22.8370 O.2   353  THR353     -0.2866
     54  CB       -48.2150   53.0640   20.9950 C.3   353  THR353      0.1770
     55  OG1      -49.5980   52.7500   20.8040 O.3   353  THR353     -0.2211
     56  CG2      -47.3780   52.1150   20.1450 C.3   353  THR353      0.0375
     57  N        -45.2270   51.9660   25.9730 N.3   356  ARG356     -0.1231
     58  CA       -44.9170   50.5540   25.7800 C.3   356  ARG356      0.1694
     59  C        -43.5440   50.3690   25.1370 C.2   356  ARG356      0.2592
     60  O        -42.8150   49.4320   25.4720 O.2   356  ARG356     -0.2718
     61  CB       -46.0200   49.8930   24.9510 C.3   356  ARG356      0.0321
     62  CG       -47.3070   49.7170   25.7390 C.3   356  ARG356      0.0489
     63  CD       -48.4590   49.2150   24.8980 C.3   356  ARG356      0.2205
     64  NE       -49.5120   48.6710   25.7530 N.pl3 356  ARG356     -0.0865
     65  CZ       -50.7210   48.3020   25.3400 C.cat 356  ARG356      0.5346
     66  NH1      -51.0690   48.4210   24.0650 N.pl3 356  ARG356      0.1354
     67  NH2      -51.5910   47.8160   26.2150 N.pl3 356  ARG356      0.1354
     68  N        -43.2060   51.2810   24.2270 N.am  357  THR357     -0.1953
     69  CA       -41.8890   51.3370   23.5960 C.3   357  THR357      0.1897
     70  C        -40.8000   51.6520   24.6280 C.2   357  THR357      0.2313
     71  O        -39.7550   50.9960   24.6450 O.2   357  THR357     -0.2863
     72  CB       -41.8680   52.3770   22.4520 C.3   357  THR357      0.1794
     73  OG1      -42.8480   52.0200   21.4690 O.3   357  THR357     -0.2208
     74  CG2      -40.5020   52.4430   21.7880 C.3   357  THR357      0.0378
     75  N        -40.0540   48.6540   26.8130 N.3   360  ILE360     -0.1231
     76  CA       -39.2690   47.6560   26.0940 C.3   360  ILE360      0.1692
     77  C        -37.8100   48.0980   25.9290 C.2   360  ILE360      0.2591
     78  O        -36.9060   47.2630   25.9540 O.2   360  ILE360     -0.2718
     79  CB       -39.9300   47.3030   24.7330 C.3   360  ILE360      0.0266
     80  CG1      -41.1150   46.3600   24.9620 C.3   360  ILE360      0.0019
     81  CG2      -38.9360   46.6540   23.7830 C.3   360  ILE360      0.0020
     82  CD1      -42.1830   46.4250   23.8930 C.3   360  ILE360      0.0001
     83  N        -37.5880   49.4030   25.7760 N.am  361  ILE361     -0.1980
     84  CA       -36.2320   49.9540   25.6760 C.3   361  ILE361      0.1595
     85  C        -35.4670   49.7490   26.9820 C.2   361  ILE361      0.2287
     86  O        -34.3380   49.2510   26.9780 O.2   361  ILE361     -0.2864
     87  CB       -36.2340   51.4530   25.2830 C.3   361  ILE361      0.0276
     88  CG1      -36.6690   51.6210   23.8210 C.3   361  ILE361      0.0022
     89  CG2      -34.8480   52.0700   25.4880 C.3   361  ILE361      0.0022
     90  CD1      -37.1180   53.0340   23.4530 C.3   361  ILE361      0.0001
@<TRIPOS>BOND
     1    49    47    1
     2    56    54    1
     3    55    54    1
     4    47    48    1
     5    47    46    1
     6    41    39    1
     7    54    51    1
     8    39    38    1
     9    73    72    1
    10    43    42    1
    11    43    46    1
    12    43    44    1
    13    74    72    1
    14    40    38    1
    15    33    31    1
    16    45    44    2
    17    38    35    1
    18    32    31    1
    19    35    34    1
    20    35    36    1
    21    72    69    1
    22    51    52    1
    23    51    50    1
    24    37    36    2
    25    52    53    2
    26    11    10    1
    27    31    28    1
    28    90    88    1
    29    69    68    1
    30    69    70    1
    31    28    29    1
    32    28    27    1
    33    30    29    2
    34    81    79    1
    35    88    87    1
    36    82    80    1
    37    12    10    1
    38    66    65    1
    39    68    59   am
    40    10     7    1
    41    70    71    2
    42    79    80    1
    43    79    76    1
    44     9     8    2
    45    63    62    1
    46    63    64    1
    47    61    62    1
    48    61    58    1
    49    59    60    2
    50    59    58    1
    51    87    89    1
    52    87    84    1
    53     7     8    1
    54     7     6    1
    55    65    64    2
    56    65    67    1
    57    25    23   ar
    58    25    26   ar
    59     8    13   am
    60    23    20   ar
    61    84    83    1
    62    84    85    1
    63    83    77   am
    64    58    57    1
    65    77    78    2
    66    77    76    1
    67    76    75    1
    68    13    14    1
    69    14    17    1
    70    14    15    1
    71    26    24   ar
    72    16    15    2
    73     2     5    1
    74     2     1    1
    75     2     3    1
    76     4     3    2
    77    17    18    1
    78    20    18   ar
    79    20    22   ar
    80    86    85    2
    81    18    19   ar
    82    24    22   ar
    83    22    21   ar
    84    19    21   ar
