@<TRIPOS>MOLECULE
tmp/3puvD01.pdb
 74 72 0 0 0
SMALL
GASTEIGER

@<TRIPOS>ATOM
      1  N          9.6710   13.2950   19.9390 N.3   124  HIS124     -0.1226
      2  CA         9.8600   14.7380   19.8000 C.3   124  HIS124      0.1752
      3  C          8.5530   15.5300   19.9370 C.2   124  HIS124      0.2595
      4  O          8.5600   16.7600   19.8750 O.2   124  HIS124     -0.2718
      5  CB        10.5450   15.0550   18.4640 C.3   124  HIS124      0.0759
      6  CG         9.7130   14.7290   17.2600 C.ar  124  HIS124      0.0818
      7  ND1        9.4370   13.4350   16.8730 N.ar  124  HIS124     -0.2268
      8  CD2        9.1090   15.5300   16.3520 C.ar  124  HIS124      0.1154
      9  CE1        8.6910   13.4530   15.7820 C.ar  124  HIS124      0.1986
     10  NE2        8.4790   14.7120   15.4450 N.ar  124  HIS124     -0.2212
     11  N          7.4420   14.8220   20.1300 N.am  125  LEU125     -0.1980
     12  CA         6.1170   15.4440   20.1730 C.3   125  LEU125      0.1596
     13  C          5.4290   15.2450   21.5250 C.2   125  LEU125      0.2287
     14  O          4.2260   15.4750   21.6650 O.2   125  LEU125     -0.2864
     15  CB         5.2350   14.8840   19.0510 C.3   125  LEU125      0.0297
     16  CG         5.7400   14.9780   17.6070 C.3   125  LEU125      0.0022
     17  CD1        5.0130   13.9770   16.7280 C.3   125  LEU125      0.0001
     18  CD2        5.6070   16.3930   17.0470 C.3   125  LEU125      0.0001
     19  N          3.4340   18.1450   23.0580 N.3   128  ARG128     -0.1245
     20  CA         2.4030   18.7050   22.1770 C.3   128  ARG128      0.1563
     21  C          0.9820   18.3050   22.5620 C.2   128  ARG128      0.2260
     22  O          0.7300   17.1680   22.9650 O.2   128  ARG128     -0.2867
     23  CB         2.6580   18.2830   20.7260 C.3   128  ARG128      0.0307
     24  CG         3.9080   18.8680   20.0960 C.3   128  ARG128      0.0489
     25  CD         3.6340   20.1960   19.4100 C.3   128  ARG128      0.2205
     26  NE         4.7480   20.5820   18.5460 N.pl3 128  ARG128     -0.0865
     27  CZ         4.8920   20.1920   17.2810 C.cat 128  ARG128      0.5346
     28  NH1        3.9870   19.4040   16.7160 N.pl3 128  ARG128      0.1354
     29  NH2        5.9420   20.5930   16.5760 N.pl3 128  ARG128      0.1354
     30  N         -4.2110   19.3110   19.2470 N.3   131  LYS131     -0.1231
     31  CA        -4.4710   20.3530   18.2500 C.3   131  LYS131      0.1693
     32  C         -3.2110   20.7040   17.4500 C.2   131  LYS131      0.2592
     33  O         -3.2930   21.0240   16.2630 O.2   131  LYS131     -0.2718
     34  CB        -5.0870   21.6010   18.9060 C.3   131  LYS131      0.0285
     35  CG        -4.3120   22.1600   20.1070 C.3   131  LYS131      0.0035
     36  CD        -5.2250   22.8670   21.1200 C.3   131  LYS131      0.0206
     37  CE        -5.7180   24.2200   20.6210 C.3   131  LYS131      0.1093
     38  NZ        -6.8070   24.7500   21.4800 N.3   131  LYS131     -0.1314
     39  N         -2.0530   20.6170   18.1030 N.am  132  ALA132     -0.1966
     40  CA        -0.7650   20.9210   17.4780 C.3   132  ALA132      0.1728
     41  C         -0.1010   19.6840   16.8580 C.2   132  ALA132      0.2616
     42  O          1.1310   19.5620   16.8490 O.2   132  ALA132     -0.2715
     43  CB         0.1620   21.5850   18.4890 C.3   132  ALA132      0.0334
     44  N         -0.9260   18.7760   16.3350 N.am  133  LEU133     -0.1963
     45  CA        -0.4460   17.5610   15.6810 C.3   133  LEU133      0.1728
     46  C         -1.1220   17.3440   14.3280 C.2   133  LEU133      0.2617
     47  O         -2.2180   17.8510   14.0810 O.2   133  LEU133     -0.2715
     48  CB        -0.6870   16.3350   16.5690 C.3   133  LEU133      0.0311
     49  CG        -0.0120   16.2010   17.9380 C.3   133  LEU133      0.0022
     50  CD1       -0.6310   15.0390   18.6900 C.3   133  LEU133      0.0001
     51  CD2        1.4990   16.0270   17.8270 C.3   133  LEU133      0.0001
     52  N         -0.4570   16.5850   13.4580 N.am  134  SER134     -0.1936
     53  CA        -1.0410   16.1530   12.1910 C.3   134  SER134      0.2055
     54  C         -1.9550   14.9450   12.4090 C.2   134  SER134      0.2644
     55  O         -1.9340   14.3300   13.4780 O.2   134  SER134     -0.2714
     56  CB         0.0590   15.8100   11.1850 C.3   134  SER134      0.2130
     57  OG         0.7100   14.6000   11.5290 O.3   134  SER134     -0.2179
     58  N         -2.7500   14.6090   11.3930 N.am  135  GLY135     -0.1939
     59  CA        -3.7250   13.5180   11.4830 C.3   135  GLY135      0.2014
     60  C         -3.0930   12.1550   11.6900 C.2   135  GLY135      0.2639
     61  O         -3.6550   11.2980   12.3790 O.2   135  GLY135     -0.2714
     62  N         -1.9230   11.9570   11.0880 N.am  136  GLY136     -0.1939
     63  CA        -1.1590   10.7250   11.2570 C.3   136  GLY136      0.2014
     64  C         -0.4560   10.6600   12.6010 C.2   136  GLY136      0.2638
     65  O         -0.1700    9.5690   13.1040 O.2   136  GLY136     -0.2714
     66  N         -0.1730   11.8280   13.1770 N.am  137  GLN137     -0.1977
     67  CA         0.4700   11.9150   14.4860 C.3   137  GLN137      0.1601
     68  C         -0.5300   11.6500   15.5990 C.2   137  GLN137      0.2287
     69  O         -0.2230   10.9420   16.5590 O.2   137  GLN137     -0.2864
     70  CB         1.1350   13.2770   14.6780 C.3   137  GLN137      0.0394
     71  CG         2.4980   13.3960   14.0140 C.3   137  GLN137      0.0908
     72  CD         2.9420   14.8340   13.8180 C.2   137  GLN137      0.2608
     73  OE1        2.1540   15.7720   13.9650 O.2   137  GLN137     -0.2717
     74  NE2        4.2130   15.0140   13.4790 N.am  137  GLN137     -0.0878
@<TRIPOS>BOND
     1    62    63    1
     2    62    60   am
     3    56    57    1
     4    56    53    1
     5    63    64    1
     6    58    59    1
     7    58    54   am
     8    59    60    1
     9    60    61    2
    10    53    54    1
    11    53    52    1
    12    54    55    2
    13    64    65    2
    14    64    66   am
    15    66    67    1
    16    52    46   am
    17    74    72   am
    18    72    73    2
    19    72    71    1
    20    71    70    1
    21    47    46    2
    22    46    45    1
    23    67    70    1
    24    67    68    1
    25    10     9   ar
    26    10     8   ar
    27    68    69    2
    28    45    44    1
    29    45    48    1
    30     9     7   ar
    31    33    32    2
    32    44    41   am
    33     8     6   ar
    34    48    49    1
    35    29    27    1
    36    28    27    1
    37    17    16    1
    38    42    41    2
    39    41    40    1
    40     7     6   ar
    41    18    16    1
    42     6     5    1
    43    27    26    2
    44    32    39   am
    45    32    31    1
    46    40    39    1
    47    40    43    1
    48    16    15    1
    49    51    49    1
    50    49    50    1
    51    31    34    1
    52    31    30    1
    53     5     2    1
    54    26    25    1
    55    34    35    1
    56    15    12    1
    57    25    24    1
    58     2     3    1
    59     2     1    1
    60     4     3    2
    61     3    11   am
    62    24    23    1
    63    35    36    1
    64    11    12    1
    65    12    13    1
    66    37    36    1
    67    37    38    1
    68    23    20    1
    69    13    14    2
    70    20    21    1
    71    20    19    1
    72    21    22    2
