@<TRIPOS>MOLECULE
tmp/3puwA00.pdb
 87 80 0 0 0
SMALL
GASTEIGER

@<TRIPOS>ATOM
      1  N          0.3120  149.2820   74.2300 N.3    22  GLU22      -0.1231
      2  CA         0.7450  149.9890   75.4350 C.3    22  GLU22       0.1699
      3  C         -0.3890  150.1300   76.4510 C.2    22  GLU22       0.2592
      4  O         -0.1650  149.9810   77.6510 O.2    22  GLU22      -0.2718
      5  CB         1.3490  151.3450   75.0810 C.3    22  GLU22       0.0402
      6  CG         2.7430  151.2340   74.4950 C.3    22  GLU22       0.1161
      7  CD         3.2090  152.5200   73.8620 C.2    22  GLU22       0.3649
      8  OE1        2.4930  153.5340   73.9830 O.co2  22  GLU22      -0.2457
      9  OE2        4.2930  152.5150   73.2400 O.co2  22  GLU22      -0.2457
     10  N         -1.6000  150.4020   75.9640 N.am   23  VAL23      -0.1980
     11  CA        -2.8100  150.3860   76.7940 C.3    23  VAL23       0.1595
     12  C         -2.9780  148.9940   77.4120 C.2    23  VAL23       0.2287
     13  O         -3.3400  148.8660   78.5720 O.2    23  VAL23      -0.2864
     14  CB        -4.0800  150.7750   75.9800 C.3    23  VAL23       0.0276
     15  CG1       -5.3030  150.8620   76.8690 C.3    23  VAL23       0.0022
     16  CG2       -3.8800  152.1010   75.2610 C.3    23  VAL23       0.0022
     17  N         -0.3960  148.4310   80.2530 N.3    26  LYS26      -0.1245
     18  CA        -0.8500  149.0950   81.4800 C.3    26  LYS26       0.1561
     19  C         -1.8850  148.2060   82.1730 C.2    26  LYS26       0.2260
     20  O         -1.8220  147.9910   83.3820 O.2    26  LYS26      -0.2867
     21  CB        -1.4640  150.4630   81.1570 C.3    26  LYS26       0.0271
     22  CG        -1.2410  151.5480   82.2140 C.3    26  LYS26       0.0035
     23  CD        -1.9620  151.2810   83.5280 C.3    26  LYS26       0.0206
     24  CE        -1.6310  152.3540   84.5590 C.3    26  LYS26       0.1093
     25  NZ        -1.8280  151.8800   85.9580 N.3    26  LYS26      -0.1314
     26  N         -1.7610  146.4150   86.0260 N.3    30  ASP30      -0.1239
     27  CA        -2.8020  146.5510   87.0440 C.3    30  ASP30       0.1674
     28  C         -3.5750  145.2700   87.3420 C.2    30  ASP30       0.2266
     29  O         -4.1920  145.1640   88.3990 O.2    30  ASP30      -0.2867
     30  CB        -3.7920  147.6580   86.6640 C.3    30  ASP30       0.1410
     31  CG        -3.1770  149.0440   86.7070 C.2    30  ASP30       0.3668
     32  OD1       -2.0670  149.2070   87.2600 O.co2  30  ASP30      -0.2456
     33  OD2       -3.8150  149.9800   86.1820 O.co2  30  ASP30      -0.2456
     34  N        -13.7750  145.5460   81.3150 N.3   278  GLU278     -0.1245
     35  CA       -12.9020  146.3950   82.1210 C.3   278  GLU278      0.1567
     36  C        -11.8680  147.1060   81.2540 C.2   278  GLU278      0.2260
     37  O        -11.7020  148.3240   81.3510 O.2   278  GLU278     -0.2867
     38  CB       -12.2110  145.5720   83.2100 C.3   278  GLU278      0.0388
     39  CG       -11.2300  146.3470   84.0830 C.3   278  GLU278      0.1160
     40  CD       -11.9030  147.3690   84.9960 C.2   278  GLU278      0.3649
     41  OE1      -13.0270  147.1100   85.4770 O.co2 278  GLU278     -0.2457
     42  OE2      -11.2970  148.4320   85.2400 O.co2 278  GLU278     -0.2457
     43  N        -12.7200  151.0840   81.1720 N.3   282  ASN282     -0.1225
     44  CA       -11.9080  151.8590   82.1050 C.3   282  ASN282      0.1785
     45  C        -10.4420  152.0470   81.7100 C.2   282  ASN282      0.2597
     46  O         -9.7060  152.7550   82.3920 O.2   282  ASN282     -0.2718
     47  CB       -11.9990  151.2520   83.5090 C.3   282  ASN282      0.1169
     48  CG       -13.4300  151.0960   83.9880 C.2   282  ASN282      0.2627
     49  OD1      -14.2780  151.9490   83.7370 O.2   282  ASN282     -0.2716
     50  ND2      -13.7030  150.0000   84.6850 N.am  282  ASN282     -0.0877
     51  N        -10.0100  151.4160   80.6210 N.am  283  TYR283     -0.1976
     52  CA        -8.6130  151.5470   80.1910 C.3   283  TYR283      0.1639
     53  C         -8.4600  152.2150   78.8260 C.2   283  TYR283      0.2290
     54  O         -7.7670  153.2330   78.7060 O.2   283  TYR283     -0.2864
     55  CB        -7.8650  150.2030   80.2840 C.3   283  TYR283      0.0560
     56  CG        -7.4180  149.9000   81.6990 C.ar  283  TYR283     -0.0198
     57  CD1       -8.3300  149.4550   82.6590 C.ar  283  TYR283     -0.0009
     58  CD2       -6.0930  150.0950   82.0920 C.ar  283  TYR283     -0.0009
     59  CE1       -7.9330  149.1990   83.9640 C.ar  283  TYR283      0.0417
     60  CE2       -5.6860  149.8390   83.4020 C.ar  283  TYR283      0.0417
     61  CZ        -6.6130  149.3920   84.3290 C.ar  283  TYR283      0.1957
     62  OH        -6.2320  149.1330   85.6230 O.3   283  TYR283     -0.2866
     63  N        -10.6250  156.1280   77.7590 N.3   286  THR286     -0.1218
     64  CA       -10.2680  157.2750   78.5830 C.3   286  THR286      0.1862
     65  C         -9.3900  158.1870   77.7360 C.2   286  THR286      0.2287
     66  O         -8.8520  157.7510   76.7190 O.2   286  THR286     -0.2866
     67  CB        -9.4750  156.8510   79.8430 C.3   286  THR286      0.1770
     68  OG1       -8.3280  156.0820   79.4530 O.3   286  THR286     -0.2211
     69  CG2      -10.3460  156.0200   80.7810 C.3   286  THR286      0.0375
     70  N         -6.4130  159.1600   78.3460 N.3   288  GLU288     -0.1231
     71  CA        -5.0570  158.6130   78.3390 C.3   288  GLU288      0.1699
     72  C         -4.9420  157.4150   77.4030 C.2   288  GLU288      0.2592
     73  O         -3.9560  157.2840   76.6710 O.2   288  GLU288     -0.2718
     74  CB        -4.6210  158.2260   79.7620 C.3   288  GLU288      0.0402
     75  CG        -3.1010  158.1560   79.9680 C.3   288  GLU288      0.1161
     76  CD        -2.6930  157.7610   81.3880 C.2   288  GLU288      0.3649
     77  OE1       -3.2660  158.3020   82.3610 O.co2 288  GLU288     -0.2457
     78  OE2       -1.7830  156.9130   81.5330 O.co2 288  GLU288     -0.2457
     79  N         -5.9570  156.5520   77.4300 N.am  289  GLY289     -0.1957
     80  CA        -5.9950  155.3520   76.6020 C.3   289  GLY289      0.1869
     81  C         -6.0360  155.6670   75.1220 C.2   289  GLY289      0.2309
     82  O         -5.1990  155.1860   74.3510 O.2   289  GLY289     -0.2863
     83  N         -2.8530  157.1600   73.7020 N.3   292  ALA292     -0.1245
     84  CA        -1.7930  156.1940   73.4340 C.3   292  ALA292      0.1562
     85  C         -1.8810  155.6460   72.0060 C.2   292  ALA292      0.2260
     86  O         -0.8630  155.5720   71.3090 O.2   292  ALA292     -0.2867
     87  CB        -1.8290  155.0690   74.4440 C.3   292  ALA292      0.0290
@<TRIPOS>BOND
     1    86    85    2
     2    85    84    1
     3     9     7   ar
     4    84    83    1
     5    84    87    1
     6     7     8   ar
     7     7     6    1
     8     1     2    1
     9    82    81    2
    10     6     5    1
    11     5     2    1
    12    81    80    1
    13    16    14    1
    14     2     3    1
    15    10     3   am
    16    10    11    1
    17    14    11    1
    18    14    15    1
    19     3     4    2
    20    80    79    1
    21    73    72    2
    22    66    65    2
    23    11    12    1
    24    72    79   am
    25    72    71    1
    26    12    13    2
    27    65    64    1
    28    63    64    1
    29    71    70    1
    30    71    74    1
    31    64    67    1
    32    54    53    2
    33    53    52    1
    34    68    67    1
    35    74    75    1
    36    67    69    1
    37    75    76    1
    38    52    55    1
    39    52    51    1
    40    17    18    1
    41    55    56    1
    42    51    45   am
    43    21    18    1
    44    21    22    1
    45    43    44    1
    46    36    37    2
    47    36    35    1
    48    34    35    1
    49    76    78   ar
    50    76    77   ar
    51    18    19    1
    52    56    58   ar
    53    56    57   ar
    54    45    44    1
    55    45    46    2
    56    58    60   ar
    57    44    47    1
    58    35    38    1
    59    19    20    2
    60    22    23    1
    61    57    59   ar
    62    38    39    1
    63    60    61   ar
    64    47    48    1
    65    23    24    1
    66    49    48    2
    67    59    61   ar
    68    48    50   am
    69    39    40    1
    70    61    62    1
    71    24    25    1
    72    40    42   ar
    73    40    41   ar
    74    26    27    1
    75    33    31   ar
    76    30    31    1
    77    30    27    1
    78    31    32   ar
    79    27    28    1
    80    28    29    2
