@<TRIPOS>MOLECULE
tmp/3puwC05.pdb
 117 115 0 0 0
SMALL
GASTEIGER

@<TRIPOS>ATOM
      1  N          7.9130  119.0230   41.8650 N.3    92  VAL92      -0.1231
      2  CA         8.7200  118.3690   40.8340 C.3    92  VAL92       0.1692
      3  C          8.8180  116.8700   41.1080 C.2    92  VAL92       0.2591
      4  O          8.4810  116.0580   40.2470 O.2    92  VAL92      -0.2718
      5  CB        10.1420  119.0030   40.7130 C.3    92  VAL92       0.0266
      6  CG1       11.0910  118.1110   39.8830 C.3    92  VAL92       0.0020
      7  CG2       10.0550  120.3900   40.1090 C.3    92  VAL92       0.0020
      8  N          9.2570  116.5160   42.3130 N.am   93  ALA93      -0.1980
      9  CA         9.4560  115.1220   42.6990 C.3    93  ALA93       0.1597
     10  C          8.1690  114.2940   42.6640 C.2    93  ALA93       0.2287
     11  O          8.1860  113.1300   42.2590 O.2    93  ALA93      -0.2864
     12  CB        10.1000  115.0430   44.0700 C.3    93  ALA93       0.0319
     13  N          6.8720  114.1570   38.5710 N.3    96  THR96      -0.1203
     14  CA         7.7060  113.3400   37.6780 C.3    96  THR96       0.1994
     15  C          7.5310  111.8510   37.9640 C.2    96  THR96       0.2618
     16  O          7.3490  111.0620   37.0330 O.2    96  THR96      -0.2717
     17  CB         9.2170  113.7000   37.7200 C.3    96  THR96       0.1784
     18  OG1        9.7840  113.2910   38.9690 O.3    96  THR96      -0.2211
     19  CG2        9.4280  115.1880   37.5390 C.3    96  THR96       0.0376
     20  N          7.5780  111.4630   39.2390 N.am   97  THR97      -0.1952
     21  CA         7.4080  110.0510   39.6000 C.3    97  THR97       0.1897
     22  C          6.0270  109.5580   39.1860 C.2    97  THR97       0.2313
     23  O          5.8780  108.4340   38.7210 O.2    97  THR97      -0.2863
     24  CB         7.6380  109.7540   41.1100 C.3    97  THR97       0.1794
     25  OG1        6.8070  110.6000   41.9130 O.3    97  THR97      -0.2208
     26  CG2        9.1020  109.9470   41.4920 C.3    97  THR97       0.0378
     27  N         13.3150  101.8610   38.3620 N.3   192  TRP192     -0.1241
     28  CA        13.8110  103.0570   39.0500 C.3   192  TRP192      0.1605
     29  C         15.1320  103.5580   38.4540 C.2   192  TRP192      0.2264
     30  O         15.2970  104.7570   38.2210 O.2   192  TRP192     -0.2867
     31  CB        13.9670  102.8210   40.5590 C.3   192  TRP192      0.0550
     32  CG        14.6040  103.9910   41.2660 C.ar  192  TRP192      0.0003
     33  CD1       15.9070  104.0990   41.6670 C.ar  192  TRP192      0.0946
     34  CD2       13.9710  105.2280   41.6270 C.ar  192  TRP192      0.0152
     35  NE1       16.1220  105.3220   42.2640 N.ar  192  TRP192     -0.2442
     36  CE2       14.9530  106.0340   42.2510 C.ar  192  TRP192      0.0810
     37  CE3       12.6700  105.7320   41.4860 C.ar  192  TRP192      0.0012
     38  CZ2       14.6740  107.3180   42.7340 C.ar  192  TRP192      0.0191
     39  CZ3       12.3930  107.0120   41.9700 C.ar  192  TRP192      0.0001
     40  CH2       13.3920  107.7870   42.5860 C.ar  192  TRP192      0.0015
     41  N         14.5860  105.1090   35.0820 N.3   195  PHE195     -0.1227
     42  CA        13.9590  106.4090   35.3540 C.3   195  PHE195      0.1736
     43  C         14.9920  107.4730   35.7270 C.2   195  PHE195      0.2595
     44  O         15.0280  108.5420   35.1260 O.2   195  PHE195     -0.2718
     45  CB        12.9180  106.2310   36.4690 C.3   195  PHE195      0.0547
     46  CG        12.3460  107.5170   37.0150 C.ar  195  PHE195     -0.0202
     47  CD1       12.6350  107.9160   38.3150 C.ar  195  PHE195     -0.0042
     48  CD2       11.4860  108.3030   36.2500 C.ar  195  PHE195     -0.0042
     49  CE1       12.0950  109.0910   38.8430 C.ar  195  PHE195     -0.0003
     50  CE2       10.9360  109.4780   36.7680 C.ar  195  PHE195     -0.0003
     51  CZ        11.2440  109.8740   38.0650 C.ar  195  PHE195     -0.0000
     52  N         15.8400  107.1590   36.7010 N.am  196  ARG196     -0.1980
     53  CA        16.8150  108.1120   37.2270 C.3   196  ARG196      0.1597
     54  C         18.0100  108.3320   36.3000 C.2   196  ARG196      0.2287
     55  O         18.4260  109.4690   36.0890 O.2   196  ARG196     -0.2864
     56  CB        17.3130  107.6570   38.6060 C.3   196  ARG196      0.0334
     57  CG        18.0550  108.7280   39.4130 C.3   196  ARG196      0.0492
     58  CD        19.1940  108.0980   40.2040 C.3   196  ARG196      0.2205
     59  NE        19.7980  109.0090   41.1800 N.pl3 196  ARG196     -0.0865
     60  CZ        20.9360  108.7640   41.8350 C.cat 196  ARG196      0.5346
     61  NH1       21.6150  107.6390   41.6140 N.pl3 196  ARG196      0.1354
     62  NH2       21.4080  109.6490   42.7070 N.pl3 196  ARG196      0.1354
     63  N         15.3300  110.7780   33.1200 N.3   200  LEU200     -0.1231
     64  CA        15.3910  112.1080   33.7370 C.3   200  LEU200      0.1678
     65  C         16.4060  113.0840   33.1140 C.2   200  LEU200      0.2434
     66  O         16.0460  114.2360   32.8430 O.2   200  LEU200     -0.2733
     67  CB        15.5520  112.0270   35.2650 C.3   200  LEU200      0.0284
     68  CG        14.2730  111.7070   36.0560 C.3   200  LEU200      0.0019
     69  CD1       14.5670  111.5310   37.5370 C.3   200  LEU200      0.0001
     70  CD2       13.1970  112.7690   35.8530 C.3   200  LEU200      0.0001
     71  N         17.6610  112.6380   32.8720 N.am  201  PRO201     -0.2729
     72  CA        18.6290  113.5590   32.2580 C.3   201  PRO201      0.1401
     73  C         18.2180  114.0800   30.8760 C.2   201  PRO201      0.2269
     74  O         18.6420  115.1700   30.4750 O.2   201  PRO201     -0.2865
     75  CB        19.8970  112.7040   32.1450 C.3   201  PRO201      0.0296
     76  CG        19.7740  111.7450   33.2550 C.3   201  PRO201      0.0237
     77  CD        18.3180  111.3820   33.2850 C.3   201  PRO201      0.0939
     78  N         15.2740  116.8140   31.3550 N.3   204  VAL204     -0.1245
     79  CA        15.7140  117.9710   32.1330 C.3   204  VAL204      0.1561
     80  C         15.0990  119.3390   31.7680 C.2   204  VAL204      0.2260
     81  O         14.8780  120.1580   32.6670 O.2   204  VAL204     -0.2867
     82  CB        17.2800  117.9670   32.2370 C.3   204  VAL204      0.0252
     83  CG1       17.9290  119.1860   31.6160 C.3   204  VAL204      0.0019
     84  CG2       17.7210  117.7390   33.6790 C.3   204  VAL204      0.0019
     85  N         11.5920  119.4560   33.4900 N.3   207  LEU207     -0.1245
     86  CA        11.7780  119.5690   34.9250 C.3   207  LEU207      0.1561
     87  C         11.9860  121.0360   35.3060 C.2   207  LEU207      0.2260
     88  O         11.4040  121.5170   36.2800 O.2   207  LEU207     -0.2867
     89  CB        12.9590  118.7090   35.3920 C.3   207  LEU207      0.0270
     90  CG        12.9040  117.2060   35.0850 C.3   207  LEU207      0.0019
     91  CD1       14.0740  116.4550   35.7270 C.3   207  LEU207      0.0001
     92  CD2       11.5830  116.6150   35.5250 C.3   207  LEU207      0.0001
     93  N         20.1730  126.6980   32.2060 N.3   275  ARG275     -0.1231
     94  CA        21.2180  125.6970   31.9500 C.3   275  ARG275      0.1694
     95  C         20.6520  124.2930   31.7250 C.2   275  ARG275      0.2592
     96  O         21.3290  123.4280   31.1820 O.2   275  ARG275     -0.2718
     97  CB        22.2780  125.6920   33.0610 C.3   275  ARG275      0.0321
     98  CG        21.7730  125.2860   34.4420 C.3   275  ARG275      0.0489
     99  CD        22.9140  124.7710   35.3190 C.3   275  ARG275      0.2205
    100  NE        23.2880  123.3950   34.9810 N.pl3 275  ARG275     -0.0865
    101  CZ        24.3710  122.7660   35.4380 C.cat 275  ARG275      0.5346
    102  NH1       25.2170  123.3840   36.2590 N.pl3 275  ARG275      0.1354
    103  NH2       24.6120  121.5130   35.0690 N.pl3 275  ARG275      0.1354
    104  N         19.4080  124.0830   32.1440 N.am  276  TRP276     -0.1976
    105  CA        18.7000  122.8270   31.9100 C.3   276  TRP276      0.1640
    106  C         17.7410  122.9240   30.7140 C.2   276  TRP276      0.2290
    107  O         17.0930  121.9450   30.3440 O.2   276  TRP276     -0.2864
    108  CB        17.9590  122.3890   33.1820 C.3   276  TRP276      0.0576
    109  CG        18.8200  121.6320   34.1780 C.ar  276  TRP276      0.0006
    110  CD1       20.1880  121.6080   34.2380 C.ar  276  TRP276      0.0946
    111  CD2       18.3600  120.8170   35.2690 C.ar  276  TRP276      0.0152
    112  NE1       20.6080  120.8170   35.2840 N.ar  276  TRP276     -0.2442
    113  CE2       19.5090  120.3210   35.9350 C.ar  276  TRP276      0.0810
    114  CE3       17.0880  120.4550   35.7490 C.ar  276  TRP276      0.0012
    115  CZ2       19.4260  119.4800   37.0540 C.ar  276  TRP276      0.0191
    116  CZ3       17.0050  119.6180   36.8610 C.ar  276  TRP276      0.0001
    117  CH2       18.1710  119.1410   37.5000 C.ar  276  TRP276      0.0015
@<TRIPOS>BOND
     1   107   106    2
     2    74    73    2
     3   106   105    1
     4    73    72    1
     5    96    95    2
     6    78    79    1
     7    83    82    1
     8    95    94    1
     9    95   104   am
    10    80    79    1
    11    80    81    2
    12   105   104    1
    13   105   108    1
    14    94    93    1
    15    94    97    1
    16    79    82    1
    17    75    72    1
    18    75    76    1
    19    82    84    1
    20    72    71    1
    21    66    65    2
    22    71    65   am
    23    71    77    1
    24    97    98    1
    25    65    64    1
    26    63    64    1
    27   108   109    1
    28    76    77    1
    29    85    86    1
    30    64    67    1
    31   109   110   ar
    32   109   111   ar
    33   110   112   ar
    34    98    99    1
    35    86    87    1
    36    86    89    1
    37   100    99    1
    38   100   101    2
    39   103   101    1
    40    41    42    1
    41    90    89    1
    42    90    92    1
    43    90    91    1
    44    44    43    2
    45    67    68    1
    46   111   114   ar
    47   111   113   ar
    48   112   113   ar
    49    87    88    2
    50    42    43    1
    51    42    45    1
    52   101   102    1
    53    43    52   am
    54   114   116   ar
    55    70    68    1
    56   113   115   ar
    57    68    69    1
    58    55    54    2
    59    48    50   ar
    60    48    46   ar
    61    54    53    1
    62    45    46    1
    63    52    53    1
    64    50    51   ar
    65   116   117   ar
    66    46    47   ar
    67    16    15    2
    68   115   117   ar
    69    53    56    1
    70    19    17    1
    71    14    17    1
    72    14    15    1
    73    14    13    1
    74    17    18    1
    75    15    20   am
    76    51    49   ar
    77    30    29    2
    78    47    49   ar
    79    27    28    1
    80    29    28    1
    81    56    57    1
    82    23    22    2
    83    28    31    1
    84    22    21    1
    85    20    21    1
    86    57    58    1
    87    21    24    1
    88     6     5    1
    89     7     5    1
    90    58    59    1
    91     4     3    2
    92    31    32    1
    93     5     2    1
    94     2     3    1
    95     2     1    1
    96     3     8   am
    97    24    26    1
    98    24    25    1
    99    59    60    2
   100    32    34   ar
   101    32    33   ar
   102    37    34   ar
   103    37    39   ar
   104    61    60    1
   105    34    36   ar
   106    33    35   ar
   107    60    62    1
   108    39    40   ar
   109    36    35   ar
   110    36    38   ar
   111    11    10    2
   112     8     9    1
   113    40    38   ar
   114    10     9    1
   115     9    12    1
