@<TRIPOS>MOLECULE
tmp/3puwB04.pdb
 113 108 0 0 0
SMALL
GASTEIGER

@<TRIPOS>ATOM
      1  N        -22.1820  132.9780   26.6380 N.3   269  VAL269     -0.1231
      2  CA       -21.5520  133.1140   25.3220 C.3   269  VAL269      0.1692
      3  C        -20.2700  133.9400   25.4270 C.2   269  VAL269      0.2592
      4  O        -19.2220  133.5400   24.8990 O.2   269  VAL269     -0.2718
      5  CB       -22.5230  133.7210   24.2610 C.3   269  VAL269      0.0266
      6  CG1      -21.7960  134.0180   22.9510 C.3   269  VAL269      0.0020
      7  CG2      -23.6900  132.7800   23.9990 C.3   269  VAL269      0.0020
      8  N        -20.3540  135.0720   26.1280 N.am  270  TRP270     -0.1976
      9  CA       -19.1990  135.9440   26.3020 C.3   270  TRP270      0.1640
     10  C        -18.0870  135.2640   27.0970 C.2   270  TRP270      0.2290
     11  O        -16.9130  135.4100   26.7610 O.2   270  TRP270     -0.2864
     12  CB       -19.5890  137.2910   26.9250 C.3   270  TRP270      0.0576
     13  CG       -18.4540  137.9680   27.6460 C.ar  270  TRP270      0.0006
     14  CD1      -18.3710  138.2100   28.9830 C.ar  270  TRP270      0.0946
     15  CD2      -17.2300  138.4530   27.0720 C.ar  270  TRP270      0.0152
     16  NE1      -17.1810  138.8290   29.2810 N.ar  270  TRP270     -0.2442
     17  CE2      -16.4590  138.9870   28.1260 C.ar  270  TRP270      0.0810
     18  CE3      -16.7090  138.4870   25.7710 C.ar  270  TRP270      0.0012
     19  CZ2      -15.1970  139.5560   27.9200 C.ar  270  TRP270      0.0191
     20  CZ3      -15.4540  139.0490   25.5690 C.ar  270  TRP270      0.0001
     21  CH2      -14.7130  139.5750   26.6380 C.ar  270  TRP270      0.0015
     22  N        -16.3940  132.7840   24.7240 N.3   273  VAL273     -0.1245
     23  CA       -15.6090  133.5630   23.7640 C.3   273  VAL273      0.1561
     24  C        -14.3620  134.2030   24.4000 C.2   273  VAL273      0.2260
     25  O        -13.2700  134.1510   23.8230 O.2   273  VAL273     -0.2867
     26  CB       -16.4980  134.6100   23.0390 C.3   273  VAL273      0.0252
     27  CG1      -15.6650  135.7210   22.4160 C.3   273  VAL273      0.0019
     28  CG2      -17.3610  133.9260   21.9780 C.3   273  VAL273      0.0019
     29  N        -10.5530  133.0600   23.0730 N.3   277  ILE277     -0.1245
     30  CA        -9.6510  134.0860   22.5480 C.3   277  ILE277      0.1561
     31  C         -8.4070  134.2330   23.4270 C.2   277  ILE277      0.2260
     32  O         -7.2990  134.3740   22.9120 O.2   277  ILE277     -0.2867
     33  CB       -10.3600  135.4510   22.3520 C.3   277  ILE277      0.0252
     34  CG1      -11.4890  135.3200   21.3230 C.3   277  ILE277      0.0019
     35  CG2       -9.3650  136.5240   21.9110 C.3   277  ILE277      0.0019
     36  CD1      -12.3570  136.5610   21.1680 C.3   277  ILE277      0.0001
     37  N         -4.8470  133.4450   21.8690 N.3   281  LEU281     -0.1245
     38  CA        -3.8700  134.5340   21.8250 C.3   281  LEU281      0.1561
     39  C         -2.6290  134.2710   22.6810 C.2   281  LEU281      0.2260
     40  O         -1.5110  134.5470   22.2450 O.2   281  LEU281     -0.2867
     41  CB        -4.5050  135.8870   22.1680 C.3   281  LEU281      0.0270
     42  CG        -5.4300  136.5270   21.1230 C.3   281  LEU281      0.0019
     43  CD1       -5.9460  137.8510   21.6270 C.3   281  LEU281      0.0001
     44  CD2       -4.7430  136.7190   19.7750 C.3   281  LEU281      0.0001
     45  N          1.0170  133.8600   20.9260 N.3   285  VAL285     -0.1245
     46  CA         2.0330  134.8290   21.3410 C.3   285  VAL285      0.1561
     47  C          3.1890  134.1370   22.0670 C.2   285  VAL285      0.2260
     48  O          4.3540  134.3590   21.7390 O.2   285  VAL285     -0.2867
     49  CB         1.4260  135.9500   22.2260 C.3   285  VAL285      0.0252
     50  CG1        2.5240  136.7930   22.8840 C.3   285  VAL285      0.0019
     51  CG2        0.4850  136.8240   21.4060 C.3   285  VAL285      0.0019
     52  N        -18.0930  146.4110   23.5260 N.3   353  THR353     -0.1218
     53  CA       -17.1320  145.7180   22.6780 C.3   353  THR353      0.1862
     54  C        -15.6860  146.1550   22.9390 C.2   353  THR353      0.2287
     55  O        -14.7840  145.3110   22.9780 O.2   353  THR353     -0.2866
     56  CB       -17.4970  145.8450   21.1810 C.3   353  THR353      0.1770
     57  OG1      -18.8570  145.4380   20.9970 O.3   353  THR353     -0.2211
     58  CG2      -16.5970  144.9630   20.3160 C.3   353  THR353      0.0375
     59  N        -14.4790  144.6930   26.1360 N.3   356  ARG356     -0.1231
     60  CA       -14.1390  143.2930   25.9100 C.3   356  ARG356      0.1694
     61  C        -12.7590  143.1510   25.2670 C.2   356  ARG356      0.2592
     62  O        -12.0010  142.2300   25.5950 O.2   356  ARG356     -0.2718
     63  CB       -15.2300  142.6300   25.0660 C.3   356  ARG356      0.0321
     64  CG       -16.5350  142.4790   25.8380 C.3   356  ARG356      0.0489
     65  CD       -17.6590  141.9160   25.0030 C.3   356  ARG356      0.2205
     66  NE       -18.7810  141.5180   25.8510 N.pl3 356  ARG356     -0.0865
     67  CZ       -19.9790  141.1420   25.4070 C.cat 356  ARG356      0.5346
     68  NH1      -20.2410  141.1110   24.1080 N.pl3 356  ARG356      0.1354
     69  NH2      -20.9250  140.8020   26.2720 N.pl3 356  ARG356      0.1354
     70  N        -12.4400  144.0820   24.3700 N.am  357  THR357     -0.1953
     71  CA       -11.1170  144.1820   23.7560 C.3   357  THR357      0.1897
     72  C        -10.0520  144.5060   24.8080 C.2   357  THR357      0.2313
     73  O         -8.9880  143.8720   24.8380 O.2   357  THR357     -0.2863
     74  CB       -11.1080  145.2470   22.6410 C.3   357  THR357      0.1794
     75  OG1      -12.1260  144.9360   21.6820 O.3   357  THR357     -0.2208
     76  CG2       -9.7560  145.3010   21.9350 C.3   357  THR357      0.0378
     77  N         -9.4150  141.4680   27.0140 N.3   360  ILE360     -0.1231
     78  CA        -8.6210  140.4710   26.3030 C.3   360  ILE360      0.1692
     79  C         -7.1610  140.9020   26.1680 C.2   360  ILE360      0.2591
     80  O         -6.2590  140.0760   26.3110 O.2   360  ILE360     -0.2718
     81  CB        -9.2410  140.1220   24.9380 C.3   360  ILE360      0.0266
     82  CG1      -10.4360  139.1880   25.1410 C.3   360  ILE360      0.0019
     83  CG2       -8.2160  139.4650   24.0280 C.3   360  ILE360      0.0020
     84  CD1      -11.3800  139.1190   23.9630 C.3   360  ILE360      0.0001
     85  N         -6.9300  142.1900   25.9110 N.am  361  ILE361     -0.1980
     86  CA        -5.5650  142.7240   25.8260 C.3   361  ILE361      0.1595
     87  C         -4.8170  142.5020   27.1390 C.2   361  ILE361      0.2287
     88  O         -3.6760  142.0380   27.1400 O.2   361  ILE361     -0.2864
     89  CB        -5.5420  144.2210   25.4250 C.3   361  ILE361      0.0276
     90  CG1       -5.8290  144.3710   23.9260 C.3   361  ILE361      0.0022
     91  CG2       -4.1950  144.8640   25.7700 C.3   361  ILE361      0.0022
     92  CD1       -6.2920  145.7650   23.5060 C.3   361  ILE361      0.0001
     93  N         -4.1870  138.6610   27.8980 N.3   364  THR364     -0.1203
     94  CA        -3.1120  138.1540   27.0510 C.3   364  THR364      0.1994
     95  C         -1.7470  138.5840   27.5980 C.2   364  THR364      0.2617
     96  O         -0.7850  137.8150   27.5560 O.2   364  THR364     -0.2717
     97  CB        -3.2740  138.6370   25.5900 C.3   364  THR364      0.1784
     98  OG1       -4.5590  138.2450   25.0920 O.3   364  THR364     -0.2211
     99  CG2       -2.1950  138.0490   24.6940 C.3   364  THR364      0.0376
    100  N         -1.6780  139.8190   28.1000 N.am  365  TRP365     -0.1975
    101  CA        -0.4780  140.3480   28.7470 C.3   365  TRP365      0.1640
    102  C         -0.1780  139.5330   30.0030 C.2   365  TRP365      0.2290
    103  O          0.9740  139.1930   30.2730 O.2   365  TRP365     -0.2864
    104  CB        -0.6830  141.8250   29.0990 C.3   365  TRP365      0.0576
    105  CG         0.5170  142.5160   29.6850 C.ar  365  TRP365      0.0006
    106  CD1        1.4710  143.2200   29.0040 C.ar  365  TRP365      0.0946
    107  CD2        0.8810  142.5890   31.0720 C.ar  365  TRP365      0.0152
    108  NE1        2.4040  143.7250   29.8780 N.ar  365  TRP365     -0.2442
    109  CE2        2.0710  143.3490   31.1530 C.ar  365  TRP365      0.0810
    110  CE3        0.3130  142.0900   32.2590 C.ar  365  TRP365      0.0012
    111  CZ2        2.7070  143.6200   32.3710 C.ar  365  TRP365      0.0191
    112  CZ3        0.9440  142.3600   33.4660 C.ar  365  TRP365      0.0001
    113  CH2        2.1290  143.1210   33.5120 C.ar  365  TRP365      0.0015
@<TRIPOS>BOND
     1    44    42    1
     2    58    56    1
     3    45    46    1
     4    57    56    1
     5    42    43    1
     6    42    41    1
     7    36    34    1
     8    56    53    1
     9    34    33    1
    10    46    47    1
    11    46    49    1
    12    51    49    1
    13    75    74    1
    14    48    47    2
    15    38    37    1
    16    38    41    1
    17    38    39    1
    18    35    33    1
    19    76    74    1
    20    28    26    1
    21    49    50    1
    22    40    39    2
    23    33    30    1
    24    27    26    1
    25    30    29    1
    26    30    31    1
    27    74    71    1
    28    53    54    1
    29    53    52    1
    30    32    31    2
    31    54    55    2
    32     6     5    1
    33    26    23    1
    34    92    90    1
    35    71    70    1
    36    71    72    1
    37    23    24    1
    38    23    22    1
    39    25    24    2
    40    90    89    1
    41    84    82    1
    42     7     5    1
    43    83    81    1
    44    68    67    1
    45     5     2    1
    46    70    61   am
    47    99    97    1
    48    72    73    2
    49     4     3    2
    50    81    82    1
    51    81    78    1
    52    65    64    1
    53    65    66    1
    54    63    64    1
    55    63    60    1
    56    98    97    1
    57    61    62    2
    58    61    60    1
    59     2     3    1
    60     2     1    1
    61    67    66    2
    62    67    69    1
    63    89    91    1
    64    89    86    1
    65     3     8   am
    66    20    18   ar
    67    20    21   ar
    68    97    94    1
    69    18    15   ar
    70    86    85    1
    71    86    87    1
    72    60    59    1
    73    85    79   am
    74     8     9    1
    75    79    78    1
    76    79    80    2
    77     9    12    1
    78     9    10    1
    79    78    77    1
    80    21    19   ar
    81    11    10    2
    82    12    13    1
    83    94    95    1
    84    94    93    1
    85    15    13   ar
    86    15    17   ar
    87    87    88    2
    88    96    95    2
    89    95   100   am
    90    13    14   ar
    91    19    17   ar
    92   100   101    1
    93    17    16   ar
    94   101   104    1
    95   101   102    1
    96    14    16   ar
    97   106   105   ar
    98   106   108   ar
    99   104   105    1
   100   105   107   ar
   101   108   109   ar
   102   102   103    2
   103   107   109   ar
   104   107   110   ar
   105   109   111   ar
   106   110   112   ar
   107   111   113   ar
   108   112   113   ar
