@<TRIPOS>MOLECULE
tmp/3puxC04.pdb
 117 115 0 0 0
SMALL
GASTEIGER

@<TRIPOS>ATOM
      1  N        -22.5240   24.5960   42.9490 N.3    97  VAL97      -0.1231
      2  CA       -21.7260   23.8880   41.9270 C.3    97  VAL97       0.1692
      3  C        -21.6250   22.3840   42.2560 C.2    97  VAL97       0.2591
      4  O        -21.9670   21.5290   41.4330 O.2    97  VAL97      -0.2718
      5  CB       -20.3060   24.4710   41.8200 C.3    97  VAL97       0.0266
      6  CG1      -19.3810   23.5260   41.0100 C.3    97  VAL97       0.0020
      7  CG2      -20.3390   25.8880   41.2090 C.3    97  VAL97       0.0020
      8  N        -21.1560   22.0830   43.4620 N.am   98  ALA98      -0.1980
      9  CA       -20.9300   20.7190   43.8990 C.3    98  ALA98       0.1597
     10  C        -22.2160   19.8820   43.8320 C.2    98  ALA98       0.2287
     11  O        -22.2050   18.7360   43.3830 O.2    98  ALA98      -0.2864
     12  CB       -20.3440   20.7200   45.3000 C.3    98  ALA98       0.0319
     13  N        -23.5880   19.7840   39.8100 N.3   101  THR101     -0.1203
     14  CA       -22.6630   18.9780   38.9880 C.3   101  THR101      0.1994
     15  C        -22.8500   17.4910   39.1920 C.2   101  THR101      0.2618
     16  O        -23.0350   16.7330   38.2280 O.2   101  THR101     -0.2717
     17  CB       -21.1980   19.3450   39.2860 C.3   101  THR101      0.1784
     18  OG1      -21.0230   20.7360   39.0190 O.3   101  THR101     -0.2211
     19  CG2      -20.2780   18.6030   38.4180 C.3   101  THR101      0.0376
     20  N        -22.7940   17.0620   40.4410 N.am  102  THR102     -0.1952
     21  CA       -22.9940   15.6450   40.7390 C.3   102  THR102      0.1897
     22  C        -24.3660   15.2100   40.2450 C.2   102  THR102      0.2313
     23  O        -24.5080   14.1590   39.6270 O.2   102  THR102     -0.2863
     24  CB       -22.8120   15.3100   42.2390 C.3   102  THR102      0.1794
     25  OG1      -23.7370   16.0750   43.0180 O.3   102  THR102     -0.2208
     26  CG2      -21.3830   15.6470   42.6960 C.3   102  THR102      0.0378
     27  N        -17.1760    7.4250   39.4790 N.3   197  TRP197     -0.1241
     28  CA       -16.6820    8.6190   40.1740 C.3   197  TRP197      0.1605
     29  C        -15.3890    9.1720   39.5430 C.2   197  TRP197      0.2264
     30  O        -15.2650   10.3730   39.3340 O.2   197  TRP197     -0.2867
     31  CB       -16.4910    8.4030   41.6970 C.3   197  TRP197      0.0550
     32  CG       -15.8030    9.6050   42.3360 C.ar  197  TRP197      0.0003
     33  CD1      -14.4560    9.7610   42.5640 C.ar  197  TRP197      0.0946
     34  CD2      -16.4190   10.8400   42.7430 C.ar  197  TRP197      0.0152
     35  NE1      -14.2010   11.0030   43.1110 N.ar  197  TRP197     -0.2442
     36  CE2      -15.3830   11.6870   43.2310 C.ar  197  TRP197      0.0810
     37  CE3      -17.7410   11.3060   42.7590 C.ar  197  TRP197      0.0012
     38  CZ2      -15.6260   12.9740   43.7190 C.ar  197  TRP197      0.0191
     39  CZ3      -17.9910   12.5970   43.2600 C.ar  197  TRP197      0.0001
     40  CH2      -16.9310   13.4130   43.7320 C.ar  197  TRP197      0.0015
     41  N        -15.9830   10.7360   36.1560 N.3   200  PHE200     -0.1227
     42  CA       -16.5400   12.0340   36.5060 C.3   200  PHE200      0.1736
     43  C        -15.4490   13.0400   36.8640 C.2   200  PHE200      0.2595
     44  O        -15.3100   14.0420   36.2030 O.2   200  PHE200     -0.2718
     45  CB       -17.5500   11.8550   37.6270 C.3   200  PHE200      0.0547
     46  CG       -18.1120   13.1300   38.1740 C.ar  200  PHE200     -0.0202
     47  CD1      -17.8430   13.5040   39.4800 C.ar  200  PHE200     -0.0042
     48  CD2      -18.9540   13.9400   37.4040 C.ar  200  PHE200     -0.0042
     49  CE1      -18.3810   14.6890   40.0220 C.ar  200  PHE200     -0.0003
     50  CE2      -19.5040   15.1160   37.9320 C.ar  200  PHE200     -0.0003
     51  CZ       -19.2130   15.4940   39.2360 C.ar  200  PHE200     -0.0000
     52  N        -14.6470   12.7370   37.8720 N.am  201  ARG201     -0.1980
     53  CA       -13.6210   13.6730   38.3580 C.3   201  ARG201      0.1597
     54  C        -12.4560   13.8830   37.4020 C.2   201  ARG201      0.2287
     55  O        -12.0140   15.0070   37.2030 O.2   201  ARG201     -0.2864
     56  CB       -13.0770   13.2050   39.7190 C.3   201  ARG201      0.0334
     57  CG       -12.4730   14.3150   40.5970 C.3   201  ARG201      0.0492
     58  CD       -11.3100   13.7440   41.3930 C.3   201  ARG201      0.2205
     59  NE       -10.7430   14.6450   42.4060 N.pl3 201  ARG201     -0.0865
     60  CZ        -9.6990   14.3250   43.1820 C.cat 201  ARG201      0.5346
     61  NH1       -9.0960   13.1410   43.0500 N.pl3 201  ARG201      0.1354
     62  NH2       -9.2370   15.1870   44.0840 N.pl3 201  ARG201      0.1354
     63  N        -15.1900   16.2900   34.3210 N.3   205  LEU205     -0.1231
     64  CA       -15.0730   17.6080   34.9550 C.3   205  LEU205      0.1678
     65  C        -14.0790   18.5970   34.3070 C.2   205  LEU205      0.2434
     66  O        -14.4620   19.7290   34.0450 O.2   205  LEU205     -0.2733
     67  CB       -14.8460   17.5090   36.4790 C.3   205  LEU205      0.0284
     68  CG       -16.1220   17.2590   37.2740 C.3   205  LEU205      0.0019
     69  CD1      -15.8500   17.0480   38.7880 C.3   205  LEU205      0.0001
     70  CD2      -17.0750   18.4270   37.0520 C.3   205  LEU205      0.0001
     71  N        -12.8200   18.1800   34.0460 N.am  206  PRO206     -0.2729
     72  CA       -11.8550   19.1040   33.4360 C.3   206  PRO206      0.1401
     73  C        -12.2770   19.6030   32.0600 C.2   206  PRO206      0.2269
     74  O        -11.8370   20.6770   31.6070 O.2   206  PRO206     -0.2865
     75  CB       -10.6000   18.2500   33.3080 C.3   206  PRO206      0.0296
     76  CG       -10.7300   17.2940   34.4340 C.3   206  PRO206      0.0237
     77  CD       -12.1610   16.9340   34.4710 C.3   206  PRO206      0.0939
     78  N        -15.2010   22.4130   32.5390 N.3   209  VAL209     -0.1245
     79  CA       -14.7220   23.5860   33.2900 C.3   209  VAL209      0.1561
     80  C        -15.3610   24.9470   32.9920 C.2   209  VAL209      0.2260
     81  O        -15.5380   25.7420   33.9220 O.2   209  VAL209     -0.2867
     82  CB       -13.1700   23.5770   33.3100 C.3   209  VAL209      0.0252
     83  CG1      -12.5410   24.7390   32.6370 C.3   209  VAL209      0.0019
     84  CG2      -12.6940   23.4150   34.7210 C.3   209  VAL209      0.0019
     85  N        -18.8880   24.9950   34.6380 N.3   212  LEU212     -0.1245
     86  CA       -18.6010   25.1670   36.0490 C.3   212  LEU212      0.1561
     87  C        -18.3550   26.6260   36.4310 C.2   212  LEU212      0.2260
     88  O        -18.6940   27.0440   37.5310 O.2   212  LEU212     -0.2867
     89  CB       -17.3860   24.3310   36.4350 C.3   212  LEU212      0.0270
     90  CG       -17.5600   22.8080   36.3190 C.3   212  LEU212      0.0019
     91  CD1      -16.4650   22.1060   37.1000 C.3   212  LEU212      0.0001
     92  CD2      -18.9610   22.3730   36.7690 C.3   212  LEU212      0.0001
     93  N        -10.3870   32.2680   33.4590 N.3   280  ARG280     -0.1231
     94  CA        -9.3260   31.2690   33.2330 C.3   280  ARG280      0.1694
     95  C         -9.9170   29.8820   32.9790 C.2   280  ARG280      0.2592
     96  O         -9.2740   29.0440   32.3710 O.2   280  ARG280     -0.2718
     97  CB        -8.2890   31.2380   34.3700 C.3   280  ARG280      0.0321
     98  CG        -8.7950   30.6260   35.6870 C.3   280  ARG280      0.0489
     99  CD        -7.6530   30.2140   36.6280 C.3   280  ARG280      0.2205
    100  NE        -7.0990   28.8880   36.3000 N.pl3 280  ARG280     -0.0865
    101  CZ        -5.8910   28.4510   36.6770 C.cat 280  ARG280      0.5346
    102  NH1       -5.0850   29.2260   37.3990 N.pl3 280  ARG280      0.1354
    103  NH2       -5.4800   27.2370   36.3220 N.pl3 280  ARG280      0.1354
    104  N        -11.1540   29.6530   33.4120 N.am  281  TRP281     -0.1976
    105  CA       -11.8320   28.3870   33.0980 C.3   281  TRP281      0.1640
    106  C        -12.7390   28.5040   31.8820 C.2   281  TRP281      0.2290
    107  O        -13.4080   27.5360   31.5120 O.2   281  TRP281     -0.2864
    108  CB       -12.6220   27.8540   34.2980 C.3   281  TRP281      0.0576
    109  CG       -11.8040   27.1770   35.3700 C.ar  281  TRP281      0.0006
    110  CD1      -10.4480   27.2520   35.5590 C.ar  281  TRP281      0.0946
    111  CD2      -12.3130   26.3690   36.4460 C.ar  281  TRP281      0.0152
    112  NE1      -10.0760   26.5150   36.6690 N.ar  281  TRP281     -0.2442
    113  CE2      -11.1960   25.9620   37.2330 C.ar  281  TRP281      0.0810
    114  CE3      -13.6100   25.9460   36.8260 C.ar  281  TRP281      0.0012
    115  CZ2      -11.3290   25.1440   38.3670 C.ar  281  TRP281      0.0191
    116  CZ3      -13.7450   25.1190   37.9640 C.ar  281  TRP281      0.0001
    117  CH2      -12.6030   24.7290   38.7130 C.ar  281  TRP281      0.0015
@<TRIPOS>BOND
     1   107   106    2
     2    74    73    2
     3   106   105    1
     4    73    72    1
     5    96    95    2
     6    78    79    1
     7    83    82    1
     8    95    94    1
     9    95   104   am
    10    80    79    1
    11    80    81    2
    12   105   104    1
    13   105   108    1
    14    94    93    1
    15    94    97    1
    16    79    82    1
    17    75    72    1
    18    75    76    1
    19    82    84    1
    20    72    71    1
    21    66    65    2
    22    71    65   am
    23    71    77    1
    24   108   109    1
    25    65    64    1
    26    63    64    1
    27    97    98    1
    28    76    77    1
    29    85    86    1
    30    64    67    1
    31   109   110   ar
    32   109   111   ar
    33   110   112   ar
    34    98    99    1
    35    86    87    1
    36    86    89    1
    37    41    42    1
    38    44    43    2
    39   100    99    1
    40   100   101    2
    41    90    89    1
    42    90    92    1
    43    90    91    1
    44   103   101    1
    45    87    88    2
    46   111   114   ar
    47   111   113   ar
    48    67    68    1
    49    42    43    1
    50    42    45    1
    51   112   113   ar
    52   101   102    1
    53   114   116   ar
    54    43    52   am
    55    70    68    1
    56    55    54    2
    57   113   115   ar
    58    68    69    1
    59    54    53    1
    60    48    50   ar
    61    48    46   ar
    62    45    46    1
    63    52    53    1
    64    50    51   ar
    65   116   117   ar
    66    46    47   ar
    67    16    15    2
    68    53    56    1
    69   115   117   ar
    70    19    17    1
    71    14    15    1
    72    14    17    1
    73    14    13    1
    74    18    17    1
    75    15    20   am
    76    51    49   ar
    77    30    29    2
    78    27    28    1
    79    47    49   ar
    80    29    28    1
    81    23    22    2
    82    56    57    1
    83    28    31    1
    84    22    21    1
    85    20    21    1
    86    57    58    1
    87    21    24    1
    88     6     5    1
    89     7     5    1
    90    58    59    1
    91     4     3    2
    92    31    32    1
    93     5     2    1
    94     2     3    1
    95     2     1    1
    96    24    26    1
    97    24    25    1
    98     3     8   am
    99    32    33   ar
   100    32    34   ar
   101    59    60    2
   102    33    35   ar
   103    34    37   ar
   104    34    36   ar
   105    37    39   ar
   106    61    60    1
   107    35    36   ar
   108    60    62    1
   109    36    38   ar
   110    39    40   ar
   111    11    10    2
   112     8     9    1
   113    38    40   ar
   114    10     9    1
   115     9    12    1
