@<TRIPOS>MOLECULE
tmp/3puyB01.pdb
 194 190 0 0 0
SMALL
GASTEIGER

@<TRIPOS>ATOM
      1  N         40.3310   38.7290   22.3320 N.3   280  PHE280     -0.1227
      2  CA        40.8650   38.8640   20.9740 C.3   280  PHE280      0.1736
      3  C         41.9710   39.9220   20.8820 C.2   280  PHE280      0.2595
      4  O         43.0390   39.6550   20.3270 O.2   280  PHE280     -0.2718
      5  CB        39.7480   39.1620   19.9640 C.3   280  PHE280      0.0547
      6  CG        40.2440   39.4090   18.5600 C.ar  280  PHE280     -0.0202
      7  CD1       40.6060   38.3430   17.7330 C.ar  280  PHE280     -0.0042
      8  CD2       40.3430   40.7120   18.0610 C.ar  280  PHE280     -0.0042
      9  CE1       41.0600   38.5700   16.4320 C.ar  280  PHE280     -0.0003
     10  CE2       40.7980   40.9540   16.7580 C.ar  280  PHE280     -0.0003
     11  CZ        41.1560   39.8810   15.9430 C.ar  280  PHE280     -0.0000
     12  N         41.7100   41.1100   21.4290 N.am  281  LEU281     -0.1980
     13  CA        42.6580   42.2160   21.3540 C.3   281  LEU281      0.1596
     14  C         43.9290   41.9710   22.1620 C.2   281  LEU281      0.2287
     15  O         45.0290   42.0940   21.6210 O.2   281  LEU281     -0.2864
     16  CB        42.0050   43.5450   21.7420 C.3   281  LEU281      0.0297
     17  CG        41.1330   44.2050   20.6700 C.3   281  LEU281      0.0022
     18  CD1       40.3480   45.3530   21.2690 C.3   281  LEU281      0.0001
     19  CD2       41.9670   44.6890   19.4880 C.3   281  LEU281      0.0001
     20  N         45.3700   39.2170   23.3060 N.3   283  VAL283     -0.1231
     21  CA        46.1580   38.1440   22.6850 C.3   283  VAL283      0.1692
     22  C         46.8670   38.6220   21.4160 C.2   283  VAL283      0.2592
     23  O         48.0570   38.3670   21.2370 O.2   283  VAL283     -0.2718
     24  CB        45.3000   36.8780   22.3850 C.3   283  VAL283      0.0266
     25  CG1       46.1380   35.8040   21.7160 C.3   283  VAL283      0.0020
     26  CG2       44.6790   36.3290   23.6640 C.3   283  VAL283      0.0020
     27  N         46.1380   39.3230   20.5500 N.am  284  ALA284     -0.1966
     28  CA        46.7030   39.8200   19.2930 C.3   284  ALA284      0.1728
     29  C         47.8160   40.8360   19.5340 C.2   284  ALA284      0.2616
     30  O         48.9110   40.7030   18.9830 O.2   284  ALA284     -0.2715
     31  CB        45.6140   40.4050   18.3950 C.3   284  ALA284      0.0334
     32  N         47.5340   41.8350   20.3700 N.am  285  VAL285     -0.1977
     33  CA        48.5240   42.8510   20.7220 C.3   285  VAL285      0.1596
     34  C         49.7270   42.2040   21.4090 C.2   285  VAL285      0.2287
     35  O         50.8770   42.5110   21.0890 O.2   285  VAL285     -0.2864
     36  CB        47.9340   43.9520   21.6330 C.3   285  VAL285      0.0276
     37  CG1       48.9510   45.0740   21.8420 C.3   285  VAL285      0.0022
     38  CG2       46.6530   44.5140   21.0410 C.3   285  VAL285      0.0022
     39  N         50.7500   39.0710   21.2160 N.3   287  MET287     -0.1230
     40  CA        51.4720   38.1080   20.3850 C.3   287  MET287      0.1702
     41  C         52.4370   38.7940   19.4270 C.2   287  MET287      0.2592
     42  O         53.5950   38.3890   19.3190 O.2   287  MET287     -0.2718
     43  CB        50.5180   37.1950   19.6120 C.3   287  MET287      0.0401
     44  CG        51.2180   35.9660   19.0490 C.3   287  MET287      0.0596
     45  SD        50.2120   34.9420   17.9660 S.3   287  MET287     -0.1393
     46  CE        49.0510   34.2380   19.1410 C.3   287  MET287      0.0692
     47  N         51.9550   39.8280   18.7390 N.am  288  VAL288     -0.1966
     48  CA        52.7860   40.6130   17.8240 C.3   288  VAL288      0.1727
     49  C         54.0170   41.1640   18.5540 C.2   288  VAL288      0.2616
     50  O         55.1460   40.9770   18.0960 O.2   288  VAL288     -0.2715
     51  CB        51.9740   41.7530   17.1430 C.3   288  VAL288      0.0290
     52  CG1       52.8890   42.7370   16.4330 C.3   288  VAL288      0.0023
     53  CG2       50.9600   41.1750   16.1700 C.3   288  VAL288      0.0023
     54  N         53.7900   41.8120   19.6980 N.am  289  LEU289     -0.1977
     55  CA        54.8700   42.3770   20.5060 C.3   289  LEU289      0.1596
     56  C         55.9020   41.3210   20.8580 C.2   289  LEU289      0.2287
     57  O         57.1000   41.5530   20.7210 O.2   289  LEU289     -0.2864
     58  CB        54.3300   43.0220   21.7870 C.3   289  LEU289      0.0297
     59  CG        53.5230   44.3160   21.6640 C.3   289  LEU289      0.0022
     60  CD1       52.8420   44.6160   22.9730 C.3   289  LEU289      0.0001
     61  CD2       54.3870   45.4920   21.2340 C.3   289  LEU289      0.0001
     62  N         56.5510   38.5810   19.2850 N.3   291  CYS291     -0.1221
     63  CA        57.2770   38.2630   18.0670 C.3   291  CYS291      0.1808
     64  C         58.2840   39.3570   17.7200 C.2   291  CYS291      0.2601
     65  O         59.4230   39.0620   17.3550 O.2   291  CYS291     -0.2717
     66  CB        56.3050   38.0610   16.9050 C.3   291  CYS291      0.0970
     67  SG        55.1050   36.7310   17.1330 S.3   291  CYS291     -0.0800
     68  N         57.8600   40.6140   17.8420 N.am  292  LEU292     -0.1979
     69  CA        58.7110   41.7630   17.5310 C.3   292  LEU292      0.1596
     70  C         59.9340   41.8490   18.4270 C.2   292  LEU292      0.2287
     71  O         61.0160   42.2230   17.9750 O.2   292  LEU292     -0.2864
     72  CB        57.9320   43.0670   17.6650 C.3   292  LEU292      0.0297
     73  CG        56.8430   43.4080   16.6610 C.3   292  LEU292      0.0022
     74  CD1       56.3630   44.8020   16.9740 C.3   292  LEU292      0.0001
     75  CD2       57.3560   43.3290   15.2390 C.3   292  LEU292      0.0001
     76  N         61.4510   39.3130   20.3140 N.3   294  GLN294     -0.1231
     77  CA        62.4230   38.2300   20.1530 C.3   294  GLN294      0.1698
     78  C         63.1370   38.2430   18.8010 C.2   294  GLN294      0.2592
     79  O         64.1130   37.5170   18.6180 O.2   294  GLN294     -0.2718
     80  CB        61.8050   36.8620   20.4560 C.3   294  GLN294      0.0381
     81  CG        61.1140   36.1570   19.3060 C.3   294  GLN294      0.0905
     82  CD        60.7550   34.7220   19.6640 C.2   294  GLN294      0.2608
     83  OE1       60.4040   34.4170   20.8130 O.2   294  GLN294     -0.2717
     84  NE2       60.8450   33.8300   18.6830 N.am  294  GLN294     -0.0878
     85  N         62.6470   39.0680   17.8720 N.am  295  TRP295     -0.1976
     86  CA        63.2870   39.2900   16.5690 C.3   295  TRP295      0.1640
     87  C         64.6830   39.8710   16.7830 C.2   295  TRP295      0.2290
     88  O         64.8270   40.9470   17.3710 O.2   295  TRP295     -0.2864
     89  CB        62.4230   40.2280   15.7120 C.3   295  TRP295      0.0576
     90  CG        62.9200   40.5010   14.2950 C.ar  295  TRP295      0.0006
     91  CD1       63.5690   39.6310   13.4620 C.ar  295  TRP295      0.0946
     92  CD2       62.7520   41.7140   13.5460 C.ar  295  TRP295      0.0152
     93  NE1       63.8370   40.2340   12.2540 N.ar  295  TRP295     -0.2442
     94  CE2       63.3440   41.5110   12.2780 C.ar  295  TRP295      0.0810
     95  CE3       62.1670   42.9590   13.8280 C.ar  295  TRP295      0.0012
     96  CZ2       63.3710   42.5040   11.2940 C.ar  295  TRP295      0.0191
     97  CZ3       62.1960   43.9500   12.8440 C.ar  295  TRP295      0.0001
     98  CH2       62.7940   43.7130   11.5940 C.ar  295  TRP295      0.0015
     99  N         63.7990   26.6260   15.4310 N.3   384  ASP384     -0.1239
    100  CA        64.2910   27.5870   14.4370 C.3   384  ASP384      0.1674
    101  C         64.2100   27.1010   12.9900 C.2   384  ASP384      0.2266
    102  O         63.9320   27.8870   12.0830 O.2   384  ASP384     -0.2867
    103  CB        65.7420   27.9730   14.7380 C.3   384  ASP384      0.1410
    104  CG        65.9280   28.5120   16.1400 C.2   384  ASP384      0.3668
    105  OD1       66.5870   27.8170   16.9430 O.co2 384  ASP384     -0.2456
    106  OD2       65.4240   29.6190   16.4360 O.co2 384  ASP384     -0.2456
    107  N         61.4120   27.9360   10.4410 N.3   387  TYR387     -0.1241
    108  CA        61.5140   29.1940    9.7100 C.3   387  TYR387      0.1605
    109  C         62.6410   29.1670    8.6710 C.2   387  TYR387      0.2264
    110  O         62.6590   29.9890    7.7500 O.2   387  TYR387     -0.2867
    111  CB        61.6830   30.3810   10.6680 C.3   387  TYR387      0.0534
    112  CG        60.5610   30.5500   11.6730 C.ar  387  TYR387     -0.0201
    113  CD1       60.8320   30.5940   13.0360 C.ar  387  TYR387     -0.0009
    114  CD2       59.2340   30.6650   11.2630 C.ar  387  TYR387     -0.0009
    115  CE1       59.8160   30.7510   13.9640 C.ar  387  TYR387      0.0417
    116  CE2       58.2110   30.8190   12.1860 C.ar  387  TYR387      0.0417
    117  CZ        58.5110   30.8600   13.5330 C.ar  387  TYR387      0.1957
    118  OH        57.5090   31.0090   14.4610 O.3   387  TYR387     -0.2866
    119  N         57.7220   35.2230    3.6810 N.3   396  GLY396     -0.1210
    120  CA        58.1740   36.4650    4.3070 C.3   396  GLY396      0.1940
    121  C         57.8120   36.5350    5.7830 C.2   396  GLY396      0.2454
    122  O         57.4110   35.5280    6.3730 O.2   396  GLY396     -0.2732
    123  N         57.9630   37.7240    6.3960 N.am  397  PRO397     -0.2717
    124  CA        57.5850   37.9110    7.7980 C.3   397  PRO397      0.1535
    125  C         56.0980   37.6690    8.0430 C.2   397  PRO397      0.2598
    126  O         55.7480   36.8940    8.9330 O.2   397  PRO397     -0.2715
    127  CB        57.9440   39.3750    8.0650 C.3   397  PRO397      0.0310
    128  CG        59.0390   39.6630    7.1000 C.3   397  PRO397      0.0237
    129  CD        58.6570   38.9080    5.8590 C.3   397  PRO397      0.0939
    130  N         55.2400   38.3060    7.2470 N.am  398  PHE398     -0.1974
    131  CA        53.7890   38.1780    7.4040 C.3   398  PHE398      0.1639
    132  C         53.2960   36.7490    7.1750 C.2   398  PHE398      0.2290
    133  O         52.4230   36.2640    7.8990 O.2   398  PHE398     -0.2864
    134  CB        53.0570   39.1580    6.4790 C.3   398  PHE398      0.0560
    135  CG        52.9950   40.5710    7.0120 C.ar  398  PHE398     -0.0200
    136  CD1       54.1400   41.3760    7.0470 C.ar  398  PHE398     -0.0042
    137  CD2       51.7860   41.1020    7.4690 C.ar  398  PHE398     -0.0042
    138  CE1       54.0830   42.6830    7.5390 C.ar  398  PHE398     -0.0003
    139  CE2       51.7150   42.4140    7.9620 C.ar  398  PHE398     -0.0003
    140  CZ        52.8670   43.2050    7.9970 C.ar  398  PHE398     -0.0000
    141  N         55.1950   33.9010    7.4350 N.3   400  ASN400     -0.1225
    142  CA        55.6890   33.1390    8.5770 C.3   400  ASN400      0.1785
    143  C         54.7120   33.1640    9.7450 C.2   400  ASN400      0.2597
    144  O         54.3920   32.1190   10.3100 O.2   400  ASN400     -0.2718
    145  CB        57.0440   33.6830    9.0370 C.3   400  ASN400      0.1169
    146  CG        58.2110   33.0010    8.3560 C.2   400  ASN400      0.2627
    147  OD1       58.0280   32.2010    7.4440 O.2   400  ASN400     -0.2716
    148  ND2       59.4230   33.3080    8.8050 N.am  400  ASN400     -0.0877
    149  N         54.2400   34.3640   10.0880 N.am  401  PHE401     -0.1962
    150  CA        53.3320   34.5700   11.2110 C.3   401  PHE401      0.1771
    151  C         52.0320   33.7890   11.0650 C.2   401  PHE401      0.2619
    152  O         51.6420   33.0630   11.9730 O.2   401  PHE401     -0.2715
    153  CB        53.0180   36.0610   11.4030 C.3   401  PHE401      0.0574
    154  CG        52.1920   36.3520   12.6310 C.ar  401  PHE401     -0.0200
    155  CD1       50.7990   36.2740   12.5910 C.ar  401  PHE401     -0.0042
    156  CD2       52.8060   36.6910   13.8330 C.ar  401  PHE401     -0.0042
    157  CE1       50.0300   36.5270   13.7340 C.ar  401  PHE401     -0.0003
    158  CE2       52.0460   36.9490   14.9790 C.ar  401  PHE401     -0.0003
    159  CZ        50.6550   36.8670   14.9270 C.ar  401  PHE401     -0.0000
    160  N         51.3630   33.9380    9.9270 N.am  402  PHE402     -0.1974
    161  CA        50.0290   33.3710    9.7670 C.3   402  PHE402      0.1639
    162  C         49.9920   31.8720    9.4590 C.2   402  PHE402      0.2290
    163  O         49.0090   31.2000    9.7770 O.2   402  PHE402     -0.2864
    164  CB        49.2240   34.1640    8.7360 C.3   402  PHE402      0.0560
    165  CG        48.6540   35.4450    9.2730 C.ar  402  PHE402     -0.0200
    166  CD1       49.1930   36.6710    8.8990 C.ar  402  PHE402     -0.0042
    167  CD2       47.5790   35.4280   10.1580 C.ar  402  PHE402     -0.0042
    168  CE1       48.6660   37.8660    9.3960 C.ar  402  PHE402     -0.0003
    169  CE2       47.0460   36.6130   10.6620 C.ar  402  PHE402     -0.0003
    170  CZ        47.5900   37.8360   10.2800 C.ar  402  PHE402     -0.0000
    171  N         51.4650   31.6860   14.3620 N.3   406  LEU406     -0.1245
    172  CA        50.1220   31.7740   14.9270 C.3   406  LEU406      0.1561
    173  C         49.4100   30.4230   15.1000 C.2   406  LEU406      0.2260
    174  O         48.8210   30.1910   16.1490 O.2   406  LEU406     -0.2867
    175  CB        49.2670   32.7740   14.1370 C.3   406  LEU406      0.0270
    176  CG        47.7780   32.9660   14.4380 C.3   406  LEU406      0.0019
    177  CD1       47.5200   33.3090   15.8970 C.3   406  LEU406      0.0001
    178  CD2       47.2240   34.0540   13.5360 C.3   406  LEU406      0.0001
    179  N         48.1790   29.0030   18.8610 N.3   410  ILE410     -0.1245
    180  CA        46.7660   28.9100   19.2540 C.3   410  ILE410      0.1561
    181  C         46.4580   27.6960   20.1200 C.2   410  ILE410      0.2260
    182  O         45.7150   27.8180   21.0920 O.2   410  ILE410     -0.2867
    183  CB        45.7470   28.9940   18.0750 C.3   410  ILE410      0.0252
    184  CG1       45.9690   27.8740   17.0500 C.3   410  ILE410      0.0019
    185  CG2       45.7620   30.3780   17.4400 C.3   410  ILE410      0.0019
    186  CD1       44.7030   27.4630   16.2860 C.3   410  ILE410      0.0001
    187  N         43.0010   31.4830   26.8340 N.3   417  MET417     -0.1245
    188  CA        42.0580   32.4310   26.2650 C.3   417  MET417      0.1570
    189  C         40.6460   32.1620   26.7860 C.2   417  MET417      0.2261
    190  O         39.8510   33.0900   26.9610 O.2   417  MET417     -0.2867
    191  CB        42.0930   32.3690   24.7420 C.3   417  MET417      0.0387
    192  CG        43.3860   32.8900   24.1440 C.3   417  MET417      0.0595
    193  SD        43.5620   32.5350   22.3830 S.3   417  MET417     -0.1393
    194  CE        42.3140   33.6140   21.6720 C.3   417  MET417      0.0692
@<TRIPOS>BOND
     1   119   120    1
     2   120   121    1
     3   121   122    2
     4   121   123   am
     5   129   123    1
     6   129   128    1
     7   123   124    1
     8   134   135    1
     9   134   131    1
    10   135   136   ar
    11   135   137   ar
    12   136   138   ar
    13   128   127    1
    14   132   131    1
    15   132   133    2
    16   130   131    1
    17   130   125   am
    18   141   142    1
    19   147   146    2
    20   137   139   ar
    21   138   140   ar
    22   110   109    2
    23   124   125    1
    24   124   127    1
    25   139   140   ar
    26   125   126    2
    27   146   148   am
    28   146   145    1
    29   142   145    1
    30   142   143    1
    31   109   108    1
    32   164   165    1
    33   164   161    1
    34   166   165   ar
    35   166   168   ar
    36   165   167   ar
    37   168   170   ar
    38   162   161    1
    39   162   163    2
    40   108   107    1
    41   108   111    1
    42   143   149   am
    43   143   144    2
    44   161   160    1
    45   160   151   am
    46   149   150    1
    47   167   169   ar
    48   170   169   ar
    49   111   112    1
    50   151   150    1
    51   151   152    2
    52   150   153    1
    53   114   112   ar
    54   114   116   ar
    55    96    98   ar
    56    96    94   ar
    57   153   154    1
    58    98    97   ar
    59   112   113   ar
    60   102   101    2
    61   116   117   ar
    62    93    94   ar
    63    93    91   ar
    64    94    92   ar
    65   155   154   ar
    66   155   157   ar
    67   154   156   ar
    68    97    95   ar
    69   101   100    1
    70   113   115   ar
    71    91    90   ar
    72   117   115   ar
    73   117   118    1
    74   178   176    1
    75    92    95   ar
    76    92    90   ar
    77   157   159   ar
    78   156   158   ar
    79   175   176    1
    80   175   172    1
    81    90    89    1
    82   171   172    1
    83   100   103    1
    84   100    99    1
    85   176   177    1
    86   103   104    1
    87   159   158   ar
    88   172   173    1
    89   173   174    2
    90    75    73    1
    91    89    86    1
    92    11     9   ar
    93    11    10   ar
    94   104   106   ar
    95   104   105   ar
    96    53    51    1
    97   186   184    1
    98     9     7   ar
    99    52    51    1
   100    86    87    1
   101    86    85    1
   102    73    74    1
   103    73    72    1
   104    10     8   ar
   105    87    88    2
   106    66    67    1
   107    66    63    1
   108   184   183    1
   109    51    48    1
   110    65    64    2
   111   185   183    1
   112    69    72    1
   113    69    68    1
   114    69    70    1
   115    64    68   am
   116    64    63    1
   117     7     6   ar
   118    48    49    1
   119    48    47    1
   120    85    78   am
   121    45    44    1
   122    45    46    1
   123    71    70    2
   124     8     6   ar
   125    63    62    1
   126   183   180    1
   127    50    49    2
   128    31    28    1
   129    49    54   am
   130     6     5    1
   131    79    78    2
   132    84    82   am
   133    47    41   am
   134    78    77    1
   135   179   180    1
   136    30    29    2
   137    44    43    1
   138   180   181    1
   139    28    29    1
   140    28    27    1
   141    81    82    1
   142    81    80    1
   143    42    41    2
   144    41    40    1
   145    19    17    1
   146    29    32   am
   147    43    40    1
   148    82    83    2
   149    54    55    1
   150     5     2    1
   151   181   182    2
   152    77    76    1
   153    77    80    1
   154     4     3    2
   155    32    33    1
   156    40    39    1
   157    55    56    1
   158    55    58    1
   159    27    22   am
   160    17    18    1
   161    17    16    1
   162    57    56    2
   163    33    34    1
   164    33    36    1
   165     3     2    1
   166     3    12   am
   167     2     1    1
   168    38    36    1
   169    35    34    2
   170    61    59    1
   171    23    22    2
   172    13    12    1
   173    13    16    1
   174    13    14    1
   175    22    21    1
   176    15    14    2
   177    36    37    1
   178    59    58    1
   179    59    60    1
   180   194   193    1
   181    25    24    1
   182   193   192    1
   183    24    21    1
   184    24    26    1
   185    21    20    1
   186   192   191    1
   187   191   188    1
   188   188   189    1
   189   188   187    1
   190   189   190    2
