@<TRIPOS>MOLECULE
tmp/3pv8B00.pdb
 168 163 0 0 0
SMALL
GASTEIGER

@<TRIPOS>ATOM
      1  N        127.6420  -25.5080   -8.4950 N.3   318  ARG318     -0.1245
      2  CA       126.6240  -25.8580   -9.4730 C.3   318  ARG318      0.1563
      3  C        127.0040  -27.1350  -10.2060 C.2   318  ARG318      0.2260
      4  O        128.1840  -27.5420  -10.2540 O.2   318  ARG318     -0.2867
      5  CB       126.4340  -24.7510  -10.5020 C.3   318  ARG318      0.0307
      6  CG       125.6370  -23.5830   -9.9560 C.3   318  ARG318      0.0489
      7  CD       125.2400  -22.6640  -11.0790 C.3   318  ARG318      0.2205
      8  NE       124.3240  -21.6320  -10.6480 N.pl3 318  ARG318     -0.0865
      9  CZ       123.7970  -20.7410  -11.4760 C.cat 318  ARG318      0.5346
     10  NH1      124.1180  -20.7610  -12.7520 N.pl3 318  ARG318      0.1354
     11  NH2      122.9640  -19.8220  -11.0250 N.pl3 318  ARG318      0.1354
     12  N        110.3190  -24.6840   -9.7060 N.3   356  ASP356     -0.1225
     13  CA       111.4840  -23.8240   -9.6710 C.3   356  ASP356      0.1805
     14  C        111.4230  -22.8440   -8.5310 C.2   356  ASP356      0.2598
     15  O        110.3480  -22.3650   -8.1330 O.2   356  ASP356     -0.2718
     16  CB       111.6520  -23.0630  -10.9670 C.3   356  ASP356      0.1424
     17  CG       110.5310  -22.0980  -11.2190 C.2   356  ASP356      0.3668
     18  OD1      109.3960  -22.5160  -11.5350 O.co2 356  ASP356     -0.2456
     19  OD2      110.7840  -20.8730  -11.1090 O.co2 356  ASP356     -0.2456
     20  N        112.5880  -22.5690   -7.9550 N.am  357  TYR357     -0.1962
     21  CA       112.6690  -21.5390   -6.9460 C.3   357  TYR357      0.1771
     22  C        112.5640  -20.1240   -7.4780 C.2   357  TYR357      0.2620
     23  O        113.1910  -19.7450   -8.4650 O.2   357  TYR357     -0.2715
     24  CB       113.9980  -21.6320   -6.1820 C.3   357  TYR357      0.0574
     25  CG       114.1700  -22.8260   -5.2700 C.ar  357  TYR357     -0.0198
     26  CD1      115.0520  -23.8330   -5.5940 C.ar  357  TYR357     -0.0009
     27  CD2      113.4750  -22.9420   -4.0720 C.ar  357  TYR357     -0.0009
     28  CE1      115.2400  -24.9120   -4.7740 C.ar  357  TYR357      0.0417
     29  CE2      113.6420  -24.0240   -3.2460 C.ar  357  TYR357      0.0417
     30  CZ       114.5350  -25.0110   -3.5860 C.ar  357  TYR357      0.1957
     31  OH       114.7270  -26.0950   -2.7710 O.3   357  TYR357     -0.2866
     32  N        111.7550  -19.3280   -6.7910 N.am  358  SER358     -0.1936
     33  CA       111.6070  -17.9190   -7.0800 C.3   358  SER358      0.2055
     34  C        112.6650  -17.0490   -6.3860 C.2   358  SER358      0.2643
     35  O        112.8870  -17.1860   -5.1890 O.2   358  SER358     -0.2714
     36  CB       110.2290  -17.4890   -6.5890 C.3   358  SER358      0.2130
     37  OG       110.1110  -16.0900   -6.6390 O.3   358  SER358     -0.2179
     38  N        113.2660  -16.1340   -7.1420 N.am  359  GLN359     -0.1963
     39  CA       114.2390  -15.1520   -6.6250 C.3   359  GLN359      0.1733
     40  C        115.2270  -15.8340   -5.6930 C.2   359  GLN359      0.2616
     41  O        115.6070  -15.3600   -4.6240 O.2   359  GLN359     -0.2715
     42  CB       113.5130  -13.9970   -5.9590 C.3   359  GLN359      0.0408
     43  CG       112.4830  -13.3180   -6.8710 C.3   359  GLN359      0.0908
     44  CD       111.7520  -12.2370   -6.1580 C.2   359  GLN359      0.2608
     45  OE1      112.2540  -11.1350   -6.0250 O.2   359  GLN359     -0.2717
     46  NE2      110.5650  -12.5490   -5.6560 N.am  359  GLN359     -0.0878
     47  N        115.6990  -16.9600   -6.1280 N.am  360  ILE360     -0.1963
     48  CA       116.4130  -17.8020   -5.2360 C.3   360  ILE360      0.1727
     49  C        117.6890  -17.2070   -4.5400 C.2   360  ILE360      0.2616
     50  O        117.9230  -17.2600   -3.3140 O.2   360  ILE360     -0.2715
     51  CB       116.8050  -19.0760   -6.0700 C.3   360  ILE360      0.0290
     52  CG1      117.3320  -20.1260   -5.1400 C.3   360  ILE360      0.0022
     53  CG2      117.8010  -18.7470   -7.2480 C.3   360  ILE360      0.0023
     54  CD1      116.6410  -20.1130   -3.8680 C.3   360  ILE360      0.0001
     55  N        118.5560  -16.6780   -5.3750 N.am  361  GLU361     -0.1977
     56  CA       119.8160  -16.2000   -4.8520 C.3   361  GLU361      0.1602
     57  C        119.6340  -14.8920   -4.0960 C.2   361  GLU361      0.2287
     58  O        120.3810  -14.6310   -3.1580 O.2   361  GLU361     -0.2864
     59  CB       120.8580  -16.0970   -5.9690 C.3   361  GLU361      0.0415
     60  CG       121.4920  -17.4650   -6.2700 C.3   361  GLU361      0.1163
     61  CD       122.4590  -17.4640   -7.4450 C.2   361  GLU361      0.3649
     62  OE1      122.4560  -18.5000   -8.1790 O.co2 361  GLU361     -0.2457
     63  OE2      123.2170  -16.4790   -7.5810 O.co2 361  GLU361     -0.2457
     64  N        112.1910   -8.5300   -8.7530 N.3   385  HIS385     -0.1241
     65  CA       112.4560   -8.2650  -10.1630 C.3   385  HIS385      0.1621
     66  C        111.4080   -7.3290  -10.7670 C.2   385  HIS385      0.2264
     67  O        111.7550   -6.4060  -11.4790 O.2   385  HIS385     -0.2867
     68  CB       112.5180   -9.5730  -10.9480 C.3   385  HIS385      0.0745
     69  CG       113.5800  -10.4970  -10.4580 C.ar  385  HIS385      0.0817
     70  ND1      114.8100  -10.0440  -10.0510 N.ar  385  HIS385     -0.2268
     71  CD2      113.6030  -11.8410  -10.3120 C.ar  385  HIS385      0.1154
     72  CE1      115.5540  -11.0670   -9.6660 C.ar  385  HIS385      0.1986
     73  NE2      114.8420  -12.1690   -9.8130 N.ar  385  HIS385     -0.2212
     74  N        110.7950   -7.4250  -16.9150 N.3   405  ARG405     -0.1231
     75  CA       111.1570   -8.1780  -15.7100 C.3   405  ARG405      0.1694
     76  C        112.4880   -8.8830  -15.9350 C.2   405  ARG405      0.2591
     77  O        113.3490   -8.9080  -15.0600 O.2   405  ARG405     -0.2718
     78  CB       110.0950   -9.2080  -15.3230 C.3   405  ARG405      0.0321
     79  CG       110.2840   -9.7800  -13.9250 C.3   405  ARG405      0.0489
     80  CD       109.3160  -10.9220  -13.5980 C.3   405  ARG405      0.2205
     81  NE       109.5070  -11.4960  -12.2670 N.pl3 405  ARG405     -0.0865
     82  CZ       110.2530  -12.5650  -11.9870 C.cat 405  ARG405      0.5346
     83  NH1      110.9240  -13.1860  -12.9430 N.pl3 405  ARG405      0.1354
     84  NH2      110.3290  -13.0120  -10.7460 N.pl3 405  ARG405      0.1354
     85  N        112.6560   -9.4570  -17.1180 N.am  406  ARG406     -0.1980
     86  CA       113.8900  -10.1590  -17.4370 C.3   406  ARG406      0.1597
     87  C        115.0860   -9.2180  -17.3680 C.2   406  ARG406      0.2287
     88  O        116.1440   -9.5720  -16.8410 O.2   406  ARG406     -0.2864
     89  CB       113.7690  -10.7900  -18.8230 C.3   406  ARG406      0.0334
     90  CG       114.9570  -11.5780  -19.2700 C.3   406  ARG406      0.0492
     91  CD       114.5500  -12.5750  -20.3670 C.3   406  ARG406      0.2205
     92  NE       114.4640  -11.9550  -21.6900 N.pl3 406  ARG406     -0.0865
     93  CZ       113.3600  -11.8850  -22.4320 C.cat 406  ARG406      0.5346
     94  NH1      112.2140  -12.4010  -21.9980 N.pl3 406  ARG406      0.1354
     95  NH2      113.4060  -11.2970  -23.6230 N.pl3 406  ARG406      0.1354
     96  N        115.7580   -8.2930  -13.7420 N.3   409  LYS409     -0.1231
     97  CA       116.3870   -9.4000  -13.0330 C.3   409  LYS409      0.1693
     98  C        117.9100   -9.3020  -13.2140 C.2   409  LYS409      0.2591
     99  O        118.6700   -9.4480  -12.2640 O.2   409  LYS409     -0.2718
    100  CB       115.8460  -10.7460  -13.5540 C.3   409  LYS409      0.0285
    101  CG       116.6530  -11.9520  -13.0930 C.3   409  LYS409      0.0035
    102  CD       115.8940  -13.2730  -13.2140 C.3   409  LYS409      0.0206
    103  CE       115.2300  -13.5010  -14.5350 C.3   409  LYS409      0.1093
    104  NZ       114.4980  -14.8250  -14.5000 N.3   409  LYS409     -0.1314
    105  N        118.3520   -9.0500  -14.4370 N.am  410  ALA410     -0.1980
    106  CA       119.7710   -8.8710  -14.7100 C.3   410  ALA410      0.1597
    107  C        120.3370   -7.6760  -13.9530 C.2   410  ALA410      0.2287
    108  O        121.4680   -7.6990  -13.4850 O.2   410  ALA410     -0.2864
    109  CB       119.9970   -8.7100  -16.2030 C.3   410  ALA410      0.0319
    110  N        120.7010   -8.8100  -10.1050 N.3   413  TYR413     -0.1241
    111  CA       121.8540   -9.6570   -9.8580 C.3   413  TYR413      0.1605
    112  C        123.1510   -8.9460  -10.2050 C.2   413  TYR413      0.2264
    113  O        124.1510   -9.0850   -9.5040 O.2   413  TYR413     -0.2867
    114  CB       121.7100  -11.0160  -10.5590 C.3   413  TYR413      0.0534
    115  CG       120.6880  -11.8850   -9.8610 C.ar  413  TYR413     -0.0201
    116  CD1      120.8910  -12.2650   -8.5430 C.ar  413  TYR413     -0.0009
    117  CD2      119.5340  -12.2960  -10.5020 C.ar  413  TYR413     -0.0009
    118  CE1      119.9730  -13.0310   -7.8880 C.ar  413  TYR413      0.0417
    119  CE2      118.6000  -13.0780   -9.8340 C.ar  413  TYR413      0.0417
    120  CZ       118.8420  -13.4180   -8.5390 C.ar  413  TYR413      0.1957
    121  OH       117.9560  -14.1930   -7.8340 O.3   413  TYR413     -0.2866
    122  N        126.1750   -8.3430   -7.3690 N.3   417  TYR417     -0.1241
    123  CA       127.4150   -9.0520   -7.6850 C.3   417  TYR417      0.1605
    124  C        128.5020   -8.1150   -8.2410 C.2   417  TYR417      0.2264
    125  O        129.5280   -8.5510   -8.8010 O.2   417  TYR417     -0.2867
    126  CB       127.1310  -10.2430   -8.6170 C.3   417  TYR417      0.0534
    127  CG       126.2610  -11.3300   -7.9710 C.ar  417  TYR417     -0.0201
    128  CD1      126.4000  -11.6500   -6.6340 C.ar  417  TYR417     -0.0009
    129  CD2      125.3120  -12.0120   -8.7080 C.ar  417  TYR417     -0.0009
    130  CE1      125.6110  -12.6390   -6.0400 C.ar  417  TYR417      0.0417
    131  CE2      124.5280  -13.0180   -8.1330 C.ar  417  TYR417      0.0417
    132  CZ       124.6810  -13.3160   -6.8020 C.ar  417  TYR417      0.1957
    133  OH       123.8990  -14.3110   -6.2170 O.3   417  TYR417     -0.2866
    134  N        130.0220  -13.2440   -5.1150 N.3   496  ASN496     -0.1240
    135  CA       129.0680  -14.1380   -5.7660 C.3   496  ASN496      0.1653
    136  C        129.1000  -15.5950   -5.3010 C.2   496  ASN496      0.2266
    137  O        128.0670  -16.2200   -5.1300 O.2   496  ASN496     -0.2867
    138  CB       129.3110  -14.0870   -7.2680 C.3   496  ASN496      0.1155
    139  CG       128.5120  -15.1200   -8.0280 C.2   496  ASN496      0.2627
    140  OD1      129.0240  -16.2200   -8.2770 O.2   496  ASN496     -0.2716
    141  ND2      127.2630  -14.8110   -8.3660 N.am  496  ASN496     -0.0877
    142  N        125.6900  -17.9170   -4.9420 N.3   500  GLN500     -0.1245
    143  CA       125.4080  -18.9080   -5.9730 C.3   500  GLN500      0.1566
    144  C        125.6350  -20.3260   -5.4460 C.2   500  GLN500      0.2260
    145  O        124.8750  -21.2520   -5.7500 O.2   500  GLN500     -0.2867
    146  CB       126.2880  -18.6670   -7.2000 C.3   500  GLN500      0.0367
    147  CG       125.8640  -19.5310   -8.3920 C.3   500  GLN500      0.0905
    148  CD       126.7720  -19.4030   -9.6230 C.2   500  GLN500      0.2608
    149  OE1      127.5260  -20.3090   -9.9200 O.2   500  GLN500     -0.2717
    150  NE2      126.6580  -18.3040  -10.3500 N.am  500  GLN500     -0.0878
    151  N        119.6730  -25.7940  -12.3110 N.3   532  HIS532     -0.1226
    152  CA       120.2670  -24.8280  -11.3870 C.3   532  HIS532      0.1752
    153  C        119.3470  -24.4270  -10.2270 C.2   532  HIS532      0.2596
    154  O        119.7310  -24.5290   -9.0730 O.2   532  HIS532     -0.2718
    155  CB       120.8200  -23.6150  -12.1130 C.3   532  HIS532      0.0759
    156  CG       121.7780  -23.9760  -13.1870 C.ar  532  HIS532      0.0818
    157  ND1      122.8410  -24.8360  -12.9660 N.ar  532  HIS532     -0.2268
    158  CD2      121.8030  -23.6700  -14.4970 C.ar  532  HIS532      0.1154
    159  CE1      123.4900  -25.0150  -14.0930 C.ar  532  HIS532      0.1986
    160  NE2      122.8770  -24.3240  -15.0470 N.ar  532  HIS532     -0.2212
    161  N        118.1430  -23.9730  -10.5290 N.am  533  ASP533     -0.1974
    162  CA       117.1780  -23.6790   -9.4640 C.3   533  ASP533      0.1709
    163  C        115.8310  -24.2860   -9.7730 C.2   533  ASP533      0.2293
    164  O        114.8350  -23.9100   -9.1630 O.2   533  ASP533     -0.2864
    165  CB       117.0640  -22.1750   -9.2430 C.3   533  ASP533      0.1436
    166  CG       116.2640  -21.4830  -10.3080 C.2   533  ASP533      0.3671
    167  OD1      116.1260  -22.0110  -11.4390 O.co2 533  ASP533     -0.2456
    168  OD2      115.7810  -20.3590   -9.9980 O.co2 533  ASP533     -0.2456
@<TRIPOS>BOND
     1    95    93    1
     2    93    94    1
     3    93    92    2
     4    92    91    1
     5    91    90    1
     6    90    89    1
     7    89    86    1
     8    86    87    1
     9    86    85    1
    10    87    88    2
    11    85    76   am
    12    74    75    1
    13   109   106    1
    14    76    75    1
    15    76    77    2
    16    75    78    1
    17    78    79    1
    18   160   158   ar
    19   160   159   ar
    20   106   105    1
    21   106   107    1
    22   103   104    1
    23   103   102    1
    24   158   156   ar
    25   105    98   am
    26   159   157   ar
    27   107   108    2
    28    79    80    1
    29    96    97    1
    30    80    81    1
    31   100   101    1
    32   100    97    1
    33    98    97    1
    34    98    99    2
    35   102   101    1
    36   156   157   ar
    37   156   155    1
    38    83    82    1
    39    10     9    1
    40   151   152    1
    41    81    82    2
    42   155   152    1
    43    82    84    1
    44    18    17   ar
    45    67    66    2
    46     9    11    1
    47     9     8    2
    48   167   166   ar
    49   152   153    1
    50    17    19   ar
    51    17    16    1
    52     7     8    1
    53     7     6    1
    54    16    13    1
    55    68    69    1
    56    68    65    1
    57    66    65    1
    58   114   115    1
    59   114   111    1
    60   161   153   am
    61   161   162    1
    62     5     6    1
    63     5     2    1
    64   117   115   ar
    65   117   119   ar
    66    69    71   ar
    67    69    70   ar
    68   150   148   am
    69    71    73   ar
    70   166   168   ar
    71   166   165    1
    72     4     3    2
    73   153   154    2
    74     3     2    1
    75   112   111    1
    76   112   113    2
    77    65    64    1
    78   110   111    1
    79    70    72   ar
    80   149   148    2
    81   115   116   ar
    82   119   120   ar
    83    73    72   ar
    84   163   162    1
    85   163   164    2
    86    12    13    1
    87    13    14    1
    88   148   147    1
    89     2     1    1
    90   162   165    1
    91   125   124    2
    92   129   131   ar
    93   129   127   ar
    94   126   127    1
    95   126   123    1
    96   116   118   ar
    97   120   118   ar
    98   120   121    1
    99    14    15    2
   100    14    20   am
   101    23    22    2
   102   147   146    1
   103   141   139   am
   104   140   139    2
   105   124   123    1
   106    62    61   ar
   107   131   132   ar
   108   139   138    1
   109   127   128   ar
   110    20    21    1
   111   123   122    1
   112    63    61   ar
   113    22    21    1
   114    22    32   am
   115    61    60    1
   116   138   135    1
   117    53    51    1
   118   146   143    1
   119    38    39    1
   120    38    34   am
   121    33    32    1
   122    33    36    1
   123    33    34    1
   124    21    24    1
   125    43    44    1
   126    43    42    1
   127   132   133    1
   128   132   130   ar
   129    37    36    1
   130   128   130   ar
   131    39    42    1
   132    39    40    1
   133    34    35    2
   134    60    59    1
   135    24    25    1
   136    44    45    2
   137    44    46   am
   138    47    40   am
   139    47    48    1
   140    51    48    1
   141    51    52    1
   142   143   144    1
   143   143   142    1
   144    59    56    1
   145   135   136    1
   146   135   134    1
   147   145   144    2
   148    40    41    2
   149    26    25   ar
   150    26    28   ar
   151    55    56    1
   152    55    49   am
   153   136   137    2
   154    25    27   ar
   155    48    49    1
   156    52    54    1
   157    56    57    1
   158    28    30   ar
   159    49    50    2
   160    57    58    2
   161    27    29   ar
   162    30    29   ar
   163    30    31    1
