@<TRIPOS>MOLECULE
tmp/3pvgA00.pdb
 127 117 0 0 0
SMALL
GASTEIGER

@<TRIPOS>ATOM
      1  N         26.4670    7.8590   25.9150 N.3    39  VAL39      -0.1231
      2  CA        25.1600    7.2120   25.8480 C.3    39  VAL39       0.1692
      3  C         25.1640    5.9030   25.0660 C.2    39  VAL39       0.2593
      4  O         24.1850    5.1420   25.1230 O.2    39  VAL39      -0.2718
      5  CB        24.0430    8.1490   25.2720 C.3    39  VAL39       0.0266
      6  CG1       23.8440    9.3910   26.2130 C.3    39  VAL39       0.0020
      7  CG2       24.3740    8.6090   23.8330 C.3    39  VAL39       0.0020
      8  N         26.2270    5.6200   24.3280 N.am   40  GLY40      -0.1942
      9  CA        26.1980    4.3430   23.5650 C.3    40  GLY40       0.2014
     10  C         27.5920    4.0300   23.0700 C.2    40  GLY40       0.2638
     11  O         28.5110    4.8940   23.1520 O.2    40  GLY40      -0.2714
     12  N         27.7420    2.7980   22.5400 N.am   41  ARG41      -0.1977
     13  CA        28.9960    2.3650   21.9840 C.3    41  ARG41       0.1597
     14  C         28.7720    1.1520   21.1670 C.2    41  ARG41       0.2287
     15  O         27.7570    0.4430   21.3150 O.2    41  ARG41      -0.2864
     16  CB        30.0730    2.0690   23.0290 C.3    41  ARG41       0.0334
     17  CG        29.6220    1.0340   24.0390 C.3    41  ARG41       0.0492
     18  CD        29.8350   -0.3900   23.5680 C.3    41  ARG41       0.2205
     19  NE        29.2790   -1.3210   24.5700 N.pl3  41  ARG41      -0.0865
     20  CZ        28.0530   -1.8600   24.4900 C.cat  41  ARG41       0.5346
     21  NH1       27.2160   -1.5160   23.5040 N.pl3  41  ARG41       0.1354
     22  NH2       27.6360   -2.7180   25.4230 N.pl3  41  ARG41       0.1354
     23  N         31.9430    2.9150   16.8670 N.3    45  SER45      -0.1217
     24  CA        31.7880    4.2990   17.3620 C.3    45  SER45       0.1889
     25  C         31.5070    4.3250   18.8360 C.2    45  SER45       0.2288
     26  O         31.0390    3.3190   19.4220 O.2    45  SER45      -0.2866
     27  CB        30.6530    5.0180   16.6290 C.3    45  SER45       0.2089
     28  OG        29.3810    4.3830   16.8690 O.3    45  SER45      -0.2183
     29  N         29.2370    7.0040   21.3780 N.3    47  VAL47      -0.1245
     30  CA        28.1860    7.9560   21.1800 C.3    47  VAL47       0.1561
     31  C         27.9560    8.7240   22.4650 C.2    47  VAL47       0.2260
     32  O         27.9270    8.1150   23.5300 O.2    47  VAL47      -0.2867
     33  CB        26.8610    7.3610   20.5830 C.3    47  VAL47       0.0252
     34  CG1       25.9270    8.4340   20.2680 C.3    47  VAL47       0.0019
     35  CG2       27.1660    6.7760   19.2150 C.3    47  VAL47       0.0019
     36  N         23.7880   14.9340   19.4580 N.3    60  ILE60      -0.1245
     37  CA        24.4160   13.6510   19.6670 C.3    60  ILE60       0.1561
     38  C         25.7220   13.7460   18.9420 C.2    60  ILE60       0.2260
     39  O         25.7750   14.2720   17.7840 O.2    60  ILE60      -0.2867
     40  CB        23.5960   12.4310   19.0880 C.3    60  ILE60       0.0252
     41  CG1       22.3760   12.2110   20.0060 C.3    60  ILE60       0.0019
     42  CG2       24.4750   11.1900   18.9400 C.3    60  ILE60       0.0019
     43  CD1       22.6780   11.6480   21.3210 C.3    60  ILE60       0.0001
     44  N         28.8130   11.4740   17.6540 N.3    62  LYS62      -0.1245
     45  CA        29.2670   10.0880   17.3680 C.3    62  LYS62       0.1561
     46  C         30.7130   10.1470   17.0000 C.2    62  LYS62       0.2260
     47  O         31.0760   10.6370   15.8980 O.2    62  LYS62      -0.2867
     48  CB        28.4370    9.5830   16.1200 C.3    62  LYS62       0.0271
     49  CG        28.8430    8.1970   15.6750 C.3    62  LYS62       0.0035
     50  CD        27.9530    7.8270   14.4110 C.3    62  LYS62       0.0206
     51  CE        28.1740    6.3350   14.0750 C.3    62  LYS62       0.1093
     52  NZ        27.0930    5.8450   13.1310 N.3    62  LYS62      -0.1314
     53  N         17.4000    9.9640   11.2640 N.3    88  VAL88      -0.1245
     54  CA        18.2970   10.8360   12.0610 C.3    88  VAL88       0.1561
     55  C         18.9300   11.9230   11.1580 C.2    88  VAL88       0.2260
     56  O         19.2730   11.7020    9.9780 O.2    88  VAL88      -0.2867
     57  CB        19.3540    9.9370   12.6880 C.3    88  VAL88       0.0252
     58  CG1       20.4580    9.6240   11.7630 C.3    88  VAL88       0.0019
     59  CG2       19.9010   10.6630   13.9810 C.3    88  VAL88       0.0019
     60  N         24.7690   14.9660   15.2300 N.3   106  PHE106     -0.1241
     61  CA        23.3210   14.7870   14.9050 C.3   106  PHE106      0.1605
     62  C         22.4150   15.6450   15.7520 C.2   106  PHE106      0.2264
     63  O         22.7970   15.9890   16.8580 O.2   106  PHE106     -0.2867
     64  CB        22.9900   13.2670   15.1320 C.3   106  PHE106      0.0534
     65  CG        23.7600   12.3570   14.2680 C.ar  106  PHE106     -0.0203
     66  CD1       23.2780   12.0240   12.9640 C.ar  106  PHE106     -0.0042
     67  CD2       24.9320   11.7790   14.7010 C.ar  106  PHE106     -0.0042
     68  CE1       24.0180   11.1200   12.1650 C.ar  106  PHE106     -0.0003
     69  CE2       25.6640   10.9140   13.9200 C.ar  106  PHE106     -0.0003
     70  CZ        25.1670   10.5460   12.5990 C.ar  106  PHE106     -0.0000
     71  N         18.3360   13.0740   19.9870 N.3   109  VAL109     -0.1245
     72  CA        17.1030   12.2760   20.2380 C.3   109  VAL109      0.1561
     73  C         17.1710   11.6630   21.6200 C.2   109  VAL109      0.2260
     74  O         18.2370   11.1180   21.9630 O.2   109  VAL109     -0.2867
     75  CB        16.8360   11.1130   19.2110 C.3   109  VAL109      0.0252
     76  CG1       15.4930   10.3530   19.5620 C.3   109  VAL109      0.0019
     77  CG2       16.9180   11.6370   17.7730 C.3   109  VAL109      0.0019
     78  N         16.1170    9.0280   23.6590 N.3   111  ASN111     -0.1240
     79  CA        15.7120    7.6010   23.6240 C.3   111  ASN111      0.1653
     80  C         15.5390    6.8920   24.9580 C.2   111  ASN111      0.2266
     81  O         16.2400    7.1790   25.9430 O.2   111  ASN111     -0.2867
     82  CB        16.7680    6.8190   22.8160 C.3   111  ASN111      0.1155
     83  CG        16.4610    5.2770   22.6600 C.2   111  ASN111      0.2627
     84  OD1       15.4540    4.8760   22.0370 O.2   111  ASN111     -0.2716
     85  ND2       17.2980    4.4210   23.2670 N.am  111  ASN111     -0.0877
     86  N         18.1300   -1.7390   18.5910 N.3   153  HIS153     -0.1226
     87  CA        19.1870   -0.8770   18.9900 C.3   153  HIS153      0.1752
     88  C         19.4190    0.3510   18.0900 C.2   153  HIS153      0.2596
     89  O         19.9940    1.3790   18.4750 O.2   153  HIS153     -0.2718
     90  CB        20.5200   -1.7210   19.1520 C.3   153  HIS153      0.0759
     91  CG        20.2390   -3.1830   19.5660 C.ar  153  HIS153      0.0818
     92  ND1       19.3150   -4.0270   18.9220 N.ar  153  HIS153     -0.2268
     93  CD2       20.7610   -3.9100   20.5900 C.ar  153  HIS153      0.1154
     94  CE1       19.2990   -5.1960   19.5100 C.ar  153  HIS153      0.1986
     95  NE2       20.1340   -5.1410   20.5560 N.ar  153  HIS153     -0.2212
     96  N         18.9560    0.2190   16.8310 N.am  154  ASN154     -0.1974
     97  CA        19.0860    1.3260   15.8840 C.3   154  ASN154      0.1688
     98  C         17.8010    2.0390   15.6080 C.2   154  ASN154      0.2292
     99  O         17.7010    2.8190   14.6420 O.2   154  ASN154     -0.2864
    100  CB        19.7010    0.7730   14.5250 C.3   154  ASN154      0.1181
    101  CG        21.1680    0.4400   14.6680 C.2   154  ASN154      0.2629
    102  OD1       21.8530    0.9460   15.5600 O.2   154  ASN154     -0.2716
    103  ND2       21.6680   -0.4160   13.7710 N.am  154  ASN154     -0.0877
    104  N         15.7270    4.6600   17.6330 N.3   156  MET156     -0.1245
    105  CA        15.5600    5.4390   18.8690 C.3   156  MET156      0.1570
    106  C         14.1030    5.8640   19.0370 C.2   156  MET156      0.2261
    107  O         13.5570    6.3940   18.0800 O.2   156  MET156     -0.2867
    108  CB        16.4010    6.6460   18.7270 C.3   156  MET156      0.0387
    109  CG        17.9570    6.3210   18.6160 C.3   156  MET156      0.0595
    110  SD        18.5870    5.5210   20.1410 S.3   156  MET156     -0.1393
    111  CE        18.3010    3.7980   19.8550 C.3   156  MET156      0.0692
    112  N         18.5120    5.1670   13.1710 N.3   167  ILE167     -0.1231
    113  CA        19.9070    5.6850   13.3160 C.3   167  ILE167      0.1692
    114  C         20.9130    4.6240   12.8100 C.2   167  ILE167      0.2592
    115  O         20.5440    3.5450   12.2730 O.2   167  ILE167     -0.2718
    116  CB        20.2850    5.9730   14.8060 C.3   167  ILE167      0.0266
    117  CG1       20.1410    4.6700   15.6840 C.3   167  ILE167      0.0019
    118  CG2       19.2850    7.0690   15.3770 C.3   167  ILE167      0.0020
    119  CD1       20.9640    4.8160   17.0400 C.3   167  ILE167      0.0001
    120  N         22.1910    4.9800   12.9030 N.am  168  ASP168     -0.1974
    121  CA        23.3700    4.1510   12.5150 C.3   168  ASP168      0.1709
    122  C         23.3290    3.6460   11.0950 C.2   168  ASP168      0.2293
    123  O         23.0640    2.4650   10.8400 O.2   168  ASP168     -0.2864
    124  CB        23.6570    3.0960   13.4800 C.3   168  ASP168      0.1436
    125  CG        25.2070    2.7300   13.4070 C.2   168  ASP168      0.3671
    126  OD1       25.8780    3.1620   12.4040 O.co2 168  ASP168     -0.2456
    127  OD2       25.7480    2.1050   14.3560 O.co2 168  ASP168     -0.2456
@<TRIPOS>BOND
     1    56    55    2
     2   123   122    2
     3   122   121    1
     4    55    54    1
     5    53    54    1
     6    58    57    1
     7    54    57    1
     8    68    70   ar
     9    68    66   ar
    10   115   114    2
    11   126   125   ar
    12   121   120    1
    13   121   124    1
    14    70    69   ar
    15    57    59    1
    16   114   120   am
    17   114   113    1
    18    66    65   ar
    19    52    51    1
    20   112   113    1
    21   113   116    1
    22   125   124    1
    23   125   127   ar
    24   103   101   am
    25    69    67   ar
    26    51    50    1
    27    65    67   ar
    28    65    64    1
    29    50    49    1
    30   100   101    1
    31   100    97    1
    32    99    98    2
    33   101   102    2
    34   116   118    1
    35   116   117    1
    36    61    64    1
    37    61    60    1
    38    61    62    1
    39    98    97    1
    40    49    48    1
    41   117   119    1
    42    62    63    2
    43    97    96    1
    44    47    46    2
    45    48    45    1
    46    27    28    1
    47    27    24    1
    48    96    88   am
    49    23    24    1
    50    46    45    1
    51    24    25    1
    52    45    44    1
    53   104   105    1
    54    77    75    1
    55    39    38    2
    56   107   106    2
    57    88    89    2
    58    88    87    1
    59    86    87    1
    60   109   108    1
    61   109   110    1
    62   108   105    1
    63    25    26    2
    64   105   106    1
    65    92    94   ar
    66    92    91   ar
    67    42    40    1
    68    38    37    1
    69    87    90    1
    70    40    37    1
    71    40    41    1
    72    90    91    1
    73    75    76    1
    74    75    72    1
    75    35    33    1
    76    36    37    1
    77    94    95   ar
    78    91    93   ar
    79   111   110    1
    80    71    72    1
    81    41    43    1
    82    72    73    1
    83    34    33    1
    84    95    93   ar
    85    33    30    1
    86    14    15    2
    87    14    13    1
    88    30    29    1
    89    30    31    1
    90    73    74    2
    91    13    12    1
    92    13    16    1
    93    84    83    2
    94    31    32    2
    95    12    10   am
    96    83    82    1
    97    83    85   am
    98    82    79    1
    99    16    17    1
   100    10    11    2
   101    10     9    1
   102    21    20    1
   103     9     8    1
   104    18    17    1
   105    18    19    1
   106    79    78    1
   107    79    80    1
   108     7     5    1
   109     8     3   am
   110    20    19    2
   111    20    22    1
   112    80    81    2
   113     3     4    2
   114     3     2    1
   115     5     2    1
   116     5     6    1
   117     2     1    1
