@<TRIPOS>MOLECULE
tmp/3pvuA00.pdb
 201 187 0 0 0
SMALL
GASTEIGER

@<TRIPOS>ATOM
      1  N         28.9290   -3.5460   52.1950 N.3   168  ILE168     -0.1231
      2  CA        29.5060   -3.6160   50.8560 C.3   168  ILE168      0.1692
      3  C         30.1790   -4.9610   50.5910 C.2   168  ILE168      0.2593
      4  O         29.7830   -5.6870   49.6670 O.2   168  ILE168     -0.2718
      5  CB        30.5370   -2.5100   50.6110 C.3   168  ILE168      0.0266
      6  CG1       29.8650   -1.1370   50.5810 C.3   168  ILE168      0.0019
      7  CG2       31.2650   -2.7570   49.2930 C.3   168  ILE168      0.0020
      8  CD1       30.8620    0.0120   50.5170 C.3   168  ILE168      0.0001
      9  N         31.1930   -5.2900   51.3880 N.am  169  GLY169     -0.1942
     10  CA        32.0220   -6.4690   51.1260 C.3   169  GLY169      0.2014
     11  C         32.3570   -7.2920   52.3540 C.2   169  GLY169      0.2639
     12  O         33.2190   -6.9030   53.1390 O.2   169  GLY169     -0.2714
     13  N         31.6830   -8.4310   52.5160 N.am  170  ARG170     -0.1963
     14  CA        32.0730   -9.4240   53.5220 C.3   170  ARG170      0.1729
     15  C         33.4500  -10.0280   53.2030 C.2   170  ARG170      0.2617
     16  O         33.9260   -9.9690   52.0690 O.2   170  ARG170     -0.2715
     17  CB        31.0300  -10.5610   53.6360 C.3   170  ARG170      0.0348
     18  CG        29.7550  -10.2230   54.4440 C.3   170  ARG170      0.0492
     19  CD        29.2120  -11.4240   55.2670 C.3   170  ARG170      0.2205
     20  NE        28.4450  -12.3980   54.4800 N.pl3 170  ARG170     -0.0865
     21  CZ        27.8180  -13.4690   54.9840 C.cat 170  ARG170      0.5346
     22  NH1       27.8530  -13.7330   56.2890 N.pl3 170  ARG170      0.1354
     23  NH2       27.1430  -14.2900   54.1790 N.pl3 170  ARG170      0.1354
     24  N         34.0810  -10.5990   54.2230 N.am  171  GLY171     -0.1940
     25  CA        35.3320  -11.3420   54.0680 C.3   171  GLY171      0.2014
     26  C         35.3650  -12.5040   55.0470 C.2   171  GLY171      0.2639
     27  O         34.3240  -12.9130   55.5630 O.2   171  GLY171     -0.2714
     28  N         36.5590  -13.0310   55.3070 N.am  172  GLY172     -0.1939
     29  CA        36.7300  -14.1560   56.2330 C.3   172  GLY172      0.2014
     30  C         36.5230  -13.7800   57.6930 C.2   172  GLY172      0.2639
     31  O         35.7100  -14.3920   58.3910 O.2   172  GLY172     -0.2714
     32  N         37.2580  -12.7690   58.1520 N.am  173  PHE173     -0.1959
     33  CA        37.1670  -12.3110   59.5420 C.3   173  PHE173      0.1771
     34  C         35.9930  -11.3600   59.7750 C.2   173  PHE173      0.2620
     35  O         35.3630  -11.4040   60.8330 O.2   173  PHE173     -0.2715
     36  CB        38.4630  -11.6130   59.9870 C.3   173  PHE173      0.0574
     37  CG        39.7160  -12.4380   59.7960 C.ar  173  PHE173     -0.0200
     38  CD1       39.7020  -13.8320   59.9470 C.ar  173  PHE173     -0.0042
     39  CD2       40.9270  -11.8040   59.5000 C.ar  173  PHE173     -0.0042
     40  CE1       40.8700  -14.5790   59.7760 C.ar  173  PHE173     -0.0003
     41  CE2       42.1020  -12.5380   59.3280 C.ar  173  PHE173     -0.0003
     42  CZ        42.0750  -13.9300   59.4670 C.ar  173  PHE173     -0.0000
     43  N         35.7070  -10.4950   58.8060 N.am  174  GLY174     -0.1940
     44  CA        34.6470   -9.5070   58.9690 C.3   174  GLY174      0.2014
     45  C         34.1060   -8.9480   57.6680 C.2   174  GLY174      0.2639
     46  O         33.9070   -9.6940   56.7100 O.2   174  GLY174     -0.2714
     47  N         33.8720   -7.6340   57.6370 N.am  175  GLU175     -0.1963
     48  CA        33.1150   -7.0040   56.5490 C.3   175  GLU175      0.1733
     49  C         33.3610   -5.4950   56.3690 C.2   175  GLU175      0.2616
     50  O         33.9730   -4.8440   57.2200 O.2   175  GLU175     -0.2715
     51  CB        31.6160   -7.2600   56.7540 C.3   175  GLU175      0.0429
     52  CG        31.1370   -7.1400   58.2000 C.3   175  GLU175      0.1163
     53  CD        31.1770   -8.4610   58.9620 C.2   175  GLU175      0.3649
     54  OE1       31.7980   -8.4930   60.0480 O.co2 175  GLU175     -0.2457
     55  OE2       30.5930   -9.4600   58.4730 O.co2 175  GLU175     -0.2457
     56  N         32.8680   -4.9580   55.2510 N.am  176  VAL176     -0.1977
     57  CA        33.0070   -3.5420   54.9060 C.3   176  VAL176      0.1596
     58  C         31.6280   -2.8830   54.8420 C.2   176  VAL176      0.2287
     59  O         30.6750   -3.4820   54.3570 O.2   176  VAL176     -0.2864
     60  CB        33.7240   -3.3660   53.5410 C.3   176  VAL176      0.0276
     61  CG1       33.9640   -1.8970   53.2420 C.3   176  VAL176      0.0022
     62  CG2       35.0440   -4.1340   53.5150 C.3   176  VAL176      0.0022
     63  N         34.6400    4.1880   53.8210 N.3   189  ALA189     -0.1245
     64  CA        34.3530    2.7770   54.0090 C.3   189  ALA189      0.1562
     65  C         34.9190    2.3600   55.3650 C.2   189  ALA189      0.2260
     66  O         36.0890    2.6250   55.6570 O.2   189  ALA189     -0.2867
     67  CB        34.9840    1.9530   52.8930 C.3   189  ALA189      0.0290
     68  N         35.9370   -0.8030   57.3260 N.3   191  LYS191     -0.1245
     69  CA        36.2510   -2.2260   57.3210 C.3   191  LYS191      0.1561
     70  C         36.3900   -2.6650   58.7670 C.2   191  LYS191      0.2260
     71  O         37.2620   -2.1650   59.4800 O.2   191  LYS191     -0.2867
     72  CB        37.5560   -2.4930   56.5550 C.3   191  LYS191      0.0271
     73  CG        37.9560   -3.9710   56.4200 C.3   191  LYS191      0.0035
     74  CD        39.1200   -4.1720   55.4180 C.3   191  LYS191      0.0206
     75  CE        39.5050   -5.6600   55.2970 C.3   191  LYS191      0.1093
     76  NZ        40.4510   -5.9770   54.1760 N.3   191  LYS191     -0.1314
     77  N         36.5670   -6.0610   61.5560 N.3   193  LEU193     -0.1245
     78  CA        36.8610   -7.4790   61.7290 C.3   193  LEU193      0.1561
     79  C         36.4800   -7.8820   63.1540 C.2   193  LEU193      0.2260
     80  O         36.2970   -7.0160   64.0120 O.2   193  LEU193     -0.2867
     81  CB        38.3460   -7.7510   61.4620 C.3   193  LEU193      0.0270
     82  CG        38.8910   -7.2690   60.1060 C.3   193  LEU193      0.0019
     83  CD1       40.4120   -7.3740   60.0550 C.3   193  LEU193      0.0001
     84  CD2       38.2570   -8.0320   58.9320 C.3   193  LEU193      0.0001
     85  N         40.5890  -18.4200   64.4510 N.3   201  LYS201     -0.1245
     86  CA        41.4170  -18.8030   63.2940 C.3   201  LYS201      0.1561
     87  C         42.9180  -18.5060   63.4890 C.2   201  LYS201      0.2260
     88  O         43.7250  -18.8150   62.6130 O.2   201  LYS201     -0.2867
     89  CB        40.9190  -18.0940   62.0240 C.3   201  LYS201      0.0271
     90  CG        39.9740  -18.9160   61.1490 C.3   201  LYS201      0.0035
     91  CD        39.7550  -18.2320   59.7950 C.3   201  LYS201      0.0206
     92  CE        39.1210  -19.1630   58.7600 C.3   201  LYS201      0.1093
     93  NZ        39.1450  -18.5540   57.3930 N.3   201  LYS201     -0.1314
     94  N         47.8630  -11.6800   60.6300 N.3   206  LEU206     -0.1231
     95  CA        47.2480  -11.2400   59.3720 C.3   206  LEU206      0.1693
     96  C         46.6340   -9.8470   59.5240 C.2   206  LEU206      0.2591
     97  O         47.0080   -8.9070   58.8030 O.2   206  LEU206     -0.2718
     98  CB        46.1780  -12.2340   58.9020 C.3   206  LEU206      0.0284
     99  CG        46.6870  -13.5850   58.3840 C.3   206  LEU206      0.0019
    100  CD1       45.5810  -14.6380   58.4050 C.3   206  LEU206      0.0001
    101  CD2       47.2690  -13.4460   56.9830 C.3   206  LEU206      0.0001
    102  N         45.6950   -9.7230   60.4620 N.am  207  ALA207     -0.1980
    103  CA        45.0820   -8.4330   60.7740 C.3   207  ALA207      0.1597
    104  C         46.1700   -7.3950   61.0460 C.2   207  ALA207      0.2287
    105  O         46.1220   -6.2860   60.5220 O.2   207  ALA207     -0.2864
    106  CB        44.1500   -8.5610   61.9700 C.3   207  ALA207      0.0319
    107  N         48.0180   -5.9060   57.8360 N.3   210  GLU210     -0.1245
    108  CA        47.2990   -4.9550   56.9980 C.3   210  GLU210      0.1567
    109  C         47.4490   -3.5260   57.5250 C.2   210  GLU210      0.2260
    110  O         47.7290   -2.6120   56.7430 O.2   210  GLU210     -0.2867
    111  CB        45.8220   -5.3450   56.8330 C.3   210  GLU210      0.0388
    112  CG        45.2490   -4.9020   55.4820 C.3   210  GLU210      0.1160
    113  CD        43.8050   -5.3040   55.2620 C.2   210  GLU210      0.3649
    114  OE1       43.1710   -4.7540   54.3300 O.co2 210  GLU210     -0.2457
    115  OE2       43.3060   -6.1660   56.0110 O.co2 210  GLU210     -0.2457
    116  N         43.3790    1.9160   47.7850 N.3   226  VAL226     -0.1245
    117  CA        42.4400    2.1700   48.8560 C.3   226  VAL226      0.1561
    118  C         43.3030    2.4430   50.0650 C.2   226  VAL226      0.2260
    119  O         44.0100    1.5590   50.5410 O.2   226  VAL226     -0.2867
    120  CB        41.5220    0.9860   49.1350 C.3   226  VAL226      0.0252
    121  CG1       40.5930    1.2980   50.3180 C.3   226  VAL226      0.0019
    122  CG2       40.7190    0.6360   47.8900 C.3   226  VAL226      0.0019
    123  N         38.6850    3.4480   55.4980 N.3   242  LEU242     -0.1231
    124  CA        39.3060    3.4390   54.1900 C.3   242  LEU242      0.1693
    125  C         38.5980    4.3840   53.2630 C.2   242  LEU242      0.2592
    126  O         37.4940    4.8460   53.5600 O.2   242  LEU242     -0.2718
    127  CB        39.2550    2.0300   53.6050 C.3   242  LEU242      0.0284
    128  CG        39.9080    0.9420   54.4630 C.3   242  LEU242      0.0019
    129  CD1       39.6500   -0.4520   53.8900 C.3   242  LEU242      0.0001
    130  CD2       41.3990    1.2120   54.6000 C.3   242  LEU242      0.0001
    131  N         39.2420    4.6730   52.1370 N.am  243  ASP243     -0.1974
    132  CA        38.6240    5.4830   51.0930 C.3   243  ASP243      0.1709
    133  C         37.4190    4.7250   50.5530 C.2   243  ASP243      0.2293
    134  O         37.5070    3.5220   50.3250 O.2   243  ASP243     -0.2864
    135  CB        39.6140    5.7570   49.9580 C.3   243  ASP243      0.1436
    136  CG        40.6400    6.8060   50.3200 C.2   243  ASP243      0.3671
    137  OD1       40.2360    7.9350   50.6860 O.co2 243  ASP243     -0.2456
    138  OD2       41.8470    6.5050   50.2250 O.co2 243  ASP243     -0.2456
    139  N         34.5940    3.2380   48.1230 N.3   245  MET245     -0.1245
    140  CA        34.4850    2.7340   46.7490 C.3   245  MET245      0.1570
    141  C         33.1800    1.9580   46.5710 C.2   245  MET245      0.2261
    142  O         33.0820    0.8170   47.0030 O.2   245  MET245     -0.2867
    143  CB        35.6480    1.7860   46.4370 C.3   245  MET245      0.0387
    144  CG        37.0160    2.4120   46.5370 C.3   245  MET245      0.0595
    145  SD        37.2730    3.6520   45.2650 S.3   245  MET245     -0.1393
    146  CE        37.8550    2.6320   43.9100 C.3   245  MET245      0.0692
    147  N         33.9700   -4.8100   42.5060 N.3   249  ASP249     -0.1239
    148  CA        35.2900   -5.2190   41.9990 C.3   249  ASP249      0.1674
    149  C         35.2480   -5.6020   40.5290 C.2   249  ASP249      0.2266
    150  O         34.2010   -5.9570   40.0020 O.2   249  ASP249     -0.2867
    151  CB        35.8750   -6.3750   42.8200 C.3   249  ASP249      0.1410
    152  CG        34.8860   -7.4980   43.0360 C.2   249  ASP249      0.3668
    153  OD1       34.6640   -8.2910   42.0920 O.co2 249  ASP249     -0.2456
    154  OD2       34.3250   -7.5820   44.1490 O.co2 249  ASP249     -0.2456
    155  N         39.6270   -9.3820   41.4910 N.3   292  ALA292     -0.1231
    156  CA        38.7890   -9.2560   42.6800 C.3   292  ALA292      0.1694
    157  C         39.2920   -8.1210   43.5820 C.2   292  ALA292      0.2592
    158  O         38.4980   -7.4510   44.2550 O.2   292  ALA292     -0.2718
    159  CB        38.7420  -10.5710   43.4420 C.3   292  ALA292      0.0304
    160  N         40.6060   -7.8980   43.5820 N.am  293  ASN293     -0.1974
    161  CA        41.2130   -6.8890   44.4540 C.3   293  ASN293      0.1688
    162  C         41.3050   -5.4920   43.8300 C.2   293  ASN293      0.2292
    163  O         41.9200   -4.6080   44.4160 O.2   293  ASN293     -0.2864
    164  CB        42.6040   -7.3440   44.9240 C.3   293  ASN293      0.1181
    165  CG        42.5520   -8.4490   45.9870 C.2   293  ASN293      0.2629
    166  OD1       41.6230   -8.5230   46.7940 O.2   293  ASN293     -0.2716
    167  ND2       43.5770   -9.2960   46.0000 N.am  293  ASN293     -0.0877
    168  N         39.0790   -2.1940   42.7320 N.3   295  LEU295     -0.1245
    169  CA        37.7540   -1.6610   43.0470 C.3   295  LEU295      0.1561
    170  C         37.4170   -0.4260   42.2360 C.2   295  LEU295      0.2260
    171  O         38.3010    0.3620   41.8630 O.2   295  LEU295     -0.2867
    172  CB        37.6430   -1.3180   44.5280 C.3   295  LEU295      0.0270
    173  CG        37.8640   -2.4880   45.4780 C.3   295  LEU295      0.0019
    174  CD1       37.4490   -2.0900   46.9050 C.3   295  LEU295      0.0001
    175  CD2       37.1250   -3.7410   45.0020 C.3   295  LEU295      0.0001
    176  N         42.9430   -2.8020   46.3220 N.3   305  SER305     -0.1202
    177  CA        42.2820   -2.9370   47.6270 C.3   305  SER305      0.2020
    178  C         43.0080   -3.8420   48.6690 C.2   305  SER305      0.2618
    179  O         44.1740   -3.6210   48.9780 O.2   305  SER305     -0.2717
    180  CB        40.8310   -3.3620   47.4100 C.3   305  SER305      0.2103
    181  OG        40.1240   -3.4090   48.6340 O.3   305  SER305     -0.2182
    182  N         42.3180   -4.8240   49.2410 N.am  306  ASP306     -0.1973
    183  CA        42.8490   -5.6000   50.3800 C.3   306  ASP306      0.1709
    184  C         44.3960   -5.7510   50.4290 C.2   306  ASP306      0.2293
    185  O         44.9750   -6.3750   49.5430 O.2   306  ASP306     -0.2864
    186  CB        42.1890   -6.9820   50.3700 C.3   306  ASP306      0.1436
    187  CG        42.6180   -7.8480   51.5230 C.2   306  ASP306      0.3671
    188  OD1       43.4750   -7.4050   52.3150 O.co2 306  ASP306     -0.2456
    189  OD2       42.0960   -8.9880   51.6290 O.co2 306  ASP306     -0.2456
    190  N         46.1220   -7.3250   53.0020 N.3   308  GLY308     -0.1210
    191  CA        46.4480   -8.3720   53.9770 C.3   308  GLY308      0.1956
    192  C         47.6140   -9.2880   53.6360 C.2   308  GLY308      0.2611
    193  O         48.2070   -9.8940   54.5210 O.2   308  GLY308     -0.2717
    194  N         47.9400   -9.4000   52.3540 N.am  309  LEU309     -0.1979
    195  CA        49.0960  -10.1760   51.9160 C.3   309  LEU309      0.1596
    196  C         50.3120   -9.3240   51.5320 C.2   309  LEU309      0.2287
    197  O         51.3610   -9.8760   51.2140 O.2   309  LEU309     -0.2864
    198  CB        48.6990  -11.0910   50.7490 C.3   309  LEU309      0.0297
    199  CG        48.4360  -12.5630   51.1030 C.3   309  LEU309      0.0022
    200  CD1       47.4660  -12.7330   52.2690 C.3   309  LEU309      0.0001
    201  CD2       47.9330  -13.2900   49.8640 C.3   309  LEU309      0.0001
@<TRIPOS>BOND
     1   150   149    2
     2   149   148    1
     3   155   156    1
     4   171   170    2
     5   148   147    1
     6   148   151    1
     7   153   152   ar
     8   170   169    1
     9   156   159    1
    10   156   157    1
    11   168   169    1
    12   151   152    1
    13   152   154   ar
    14   169   172    1
    15   160   157   am
    16   160   161    1
    17   157   158    2
    18   162   163    2
    19   162   161    1
    20   146   145    1
    21   161   164    1
    22   172   173    1
    23   164   165    1
    24   175   173    1
    25   145   144    1
    26   173   174    1
    27   165   167   am
    28   165   166    2
    29   176   177    1
    30   143   144    1
    31   143   140    1
    32   141   140    1
    33   141   142    2
    34   140   139    1
    35   180   177    1
    36   180   181    1
    37   177   178    1
    38   116   117    1
    39   122   120    1
    40   178   179    2
    41   178   182   am
    42   117   120    1
    43   117   118    1
    44   120   121    1
    45   182   183    1
    46     7     5    1
    47   185   184    2
    48     4     3    2
    49   201   199    1
    50   135   136    1
    51   135   132    1
    52   118   119    2
    53   138   136   ar
    54   136   137   ar
    55   134   133    2
    56   186   183    1
    57   186   187    1
    58   183   184    1
    59     8     6    1
    60   133   132    1
    61     6     5    1
    62     3     2    1
    63     3     9   am
    64     5     2    1
    65   198   199    1
    66   198   195    1
    67     2     1    1
    68   132   131    1
    69   199   200    1
    70    10     9    1
    71    10    11    1
    72   197   196    2
    73   187   189   ar
    74   187   188   ar
    75   196   195    1
    76   195   194    1
    77    16    15    2
    78   131   125   am
    79    11    13   am
    80    11    12    2
    81   194   192   am
    82    13    14    1
    83    67    64    1
    84   190   191    1
    85    15    14    1
    86    15    24   am
    87    61    60    1
    88   125   126    2
    89   125   124    1
    90    62    60    1
    91    14    17    1
    92    60    57    1
    93   127   124    1
    94   127   128    1
    95    17    18    1
    96   192   191    1
    97   192   193    2
    98    63    64    1
    99   129   128    1
   100    64    65    1
   101    25    24    1
   102    25    26    1
   103    76    75    1
   104    23    21    1
   105   124   123    1
   106   114   113   ar
   107    59    58    2
   108    18    19    1
   109   128   130    1
   110    20    21    2
   111    20    19    1
   112    58    57    1
   113    57    56    1
   114    21    22    1
   115    26    28   am
   116    26    27    2
   117    56    49   am
   118   113   112    1
   119   113   115   ar
   120    75    74    1
   121    28    29    1
   122    65    66    2
   123    74    73    1
   124   112   111    1
   125    29    30    1
   126    49    48    1
   127    49    50    2
   128    73    72    1
   129    48    51    1
   130    48    47    1
   131    72    69    1
   132    46    45    2
   133   110   109    2
   134    51    52    1
   135   111   108    1
   136   101    99    1
   137   108   109    1
   138   108   107    1
   139    69    68    1
   140    69    70    1
   141    93    92    1
   142    47    45   am
   143    45    44    1
   144    30    32   am
   145    30    31    2
   146    32    33    1
   147    52    53    1
   148    99   100    1
   149    99    98    1
   150    55    53   ar
   151    92    91    1
   152    70    71    2
   153    97    96    2
   154    43    44    1
   155    43    34   am
   156    98    95    1
   157    84    82    1
   158    53    54   ar
   159    41    42   ar
   160    41    39   ar
   161    95    96    1
   162    95    94    1
   163    42    40   ar
   164    39    37   ar
   165    96   102   am
   166    33    34    1
   167    33    36    1
   168    34    35    2
   169    40    38   ar
   170    91    90    1
   171    37    38   ar
   172    37    36    1
   173    83    82    1
   174    82    81    1
   175   102   103    1
   176   105   104    2
   177   103   104    1
   178   103   106    1
   179    90    89    1
   180    81    78    1
   181    77    78    1
   182    78    79    1
   183    89    86    1
   184    88    87    2
   185    79    80    2
   186    86    87    1
   187    86    85    1
