@<TRIPOS>MOLECULE
tmp/3pvwA00.pdb
 191 178 0 0 0
SMALL
GASTEIGER

@<TRIPOS>ATOM
      1  N         28.6100   -3.5570   52.6860 N.3   169  ILE169     -0.1231
      2  CA        29.2330   -3.5730   51.3590 C.3   169  ILE169      0.1692
      3  C         29.7100   -4.9700   50.9910 C.2   169  ILE169      0.2593
      4  O         29.4530   -5.4480   49.8880 O.2   169  ILE169     -0.2718
      5  CB        30.4400   -2.6450   51.2810 C.3   169  ILE169      0.0266
      6  CG1       30.0240   -1.1930   51.4990 C.3   169  ILE169      0.0019
      7  CG2       31.1210   -2.7850   49.9270 C.3   169  ILE169      0.0020
      8  CD1       31.2220   -0.2350   51.6120 C.3   169  ILE169      0.0001
      9  N         30.4300   -5.6110   51.9070 N.am  170  GLY170     -0.1942
     10  CA        30.9040   -6.9740   51.6990 C.3   170  GLY170      0.2014
     11  C         31.1200   -7.7350   52.9910 C.2   170  GLY170      0.2639
     12  O         30.8780   -7.2180   54.0820 O.2   170  GLY170     -0.2714
     13  N         31.5500   -8.9830   52.8480 N.am  171  ARG171     -0.1963
     14  CA        31.9540   -9.8180   53.9690 C.3   171  ARG171      0.1729
     15  C         33.3570  -10.3330   53.6620 C.2   171  ARG171      0.2617
     16  O         33.7890  -10.3190   52.5090 O.2   171  ARG171     -0.2715
     17  CB        30.9680  -10.9830   54.1730 C.3   171  ARG171      0.0348
     18  CG        29.6480  -10.6130   54.8910 C.3   171  ARG171      0.0492
     19  CD        28.7710  -11.8580   55.2340 C.3   171  ARG171      0.2205
     20  NE        27.7520  -12.1620   54.2160 N.pl3 171  ARG171     -0.0865
     21  CZ        26.9060  -13.2020   54.2490 C.cat 171  ARG171      0.5346
     22  NH1       26.9280  -14.0830   55.2490 N.pl3 171  ARG171      0.1354
     23  NH2       26.0210  -13.3680   53.2670 N.pl3 171  ARG171      0.1354
     24  N         34.0720  -10.7680   54.6950 N.am  172  GLY172     -0.1940
     25  CA        35.4220  -11.3160   54.5390 C.3   172  GLY172      0.2014
     26  C         35.6620  -12.4680   55.4930 C.2   172  GLY172      0.2639
     27  O         34.7150  -13.0400   56.0370 O.2   172  GLY172     -0.2714
     28  N         36.9310  -12.8060   55.7020 N.am  173  GLY173     -0.1939
     29  CA        37.3040  -13.9870   56.4860 C.3   173  GLY173      0.2014
     30  C         37.0080  -13.8840   57.9740 C.2   173  GLY173      0.2639
     31  O         36.5330  -14.8450   58.5850 O.2   173  GLY173     -0.2714
     32  N         37.3140  -12.7240   58.5590 N.am  174  PHE174     -0.1959
     33  CA        37.1050  -12.4810   59.9960 C.3   174  PHE174      0.1771
     34  C         36.0980  -11.3670   60.2830 C.2   174  PHE174      0.2620
     35  O         35.7740  -11.1090   61.4430 O.2   174  PHE174     -0.2715
     36  CB        38.4300  -12.1310   60.6880 C.3   174  PHE174      0.0574
     37  CG        39.5770  -13.0270   60.3100 C.ar  174  PHE174     -0.0200
     38  CD1       39.4030  -14.4040   60.1790 C.ar  174  PHE174     -0.0042
     39  CD2       40.8460  -12.4940   60.1160 C.ar  174  PHE174     -0.0042
     40  CE1       40.4730  -15.2280   59.8330 C.ar  174  PHE174     -0.0003
     41  CE2       41.9200  -13.3090   59.7740 C.ar  174  PHE174     -0.0003
     42  CZ        41.7340  -14.6780   59.6310 C.ar  174  PHE174     -0.0000
     43  N         35.6060  -10.7080   59.2400 N.am  175  GLY175     -0.1940
     44  CA        34.7090   -9.5820   59.4250 C.3   175  GLY175      0.2014
     45  C         34.0640   -9.1210   58.1400 C.2   175  GLY175      0.2639
     46  O         33.8530   -9.9130   57.2230 O.2   175  GLY175     -0.2714
     47  N         33.7660   -7.8260   58.0810 N.am  176  GLU176     -0.1963
     48  CA        32.9570   -7.2640   57.0070 C.3   176  GLU176      0.1733
     49  C         33.2050   -5.7600   56.8260 C.2   176  GLU176      0.2616
     50  O         33.6990   -5.0920   57.7330 O.2   176  GLU176     -0.2715
     51  CB        31.4720   -7.5360   57.2850 C.3   176  GLU176      0.0429
     52  CG        31.0350   -7.2650   58.7230 C.3   176  GLU176      0.1163
     53  CD        31.1570   -8.4690   59.6420 C.2   176  GLU176      0.3649
     54  OE1       31.9010   -8.3750   60.6400 O.co2 176  GLU176     -0.2457
     55  OE2       30.5120   -9.5030   59.3680 O.co2 176  GLU176     -0.2457
     56  N         32.8670   -5.2480   55.6410 N.am  177  VAL177     -0.1977
     57  CA        33.0100   -3.8290   55.3040 C.3   177  VAL177      0.1596
     58  C         31.6190   -3.1650   55.3390 C.2   177  VAL177      0.2287
     59  O         30.6070   -3.8310   55.1210 O.2   177  VAL177     -0.2864
     60  CB        33.6990   -3.6600   53.9150 C.3   177  VAL177      0.0276
     61  CG1       34.0700   -2.2120   53.6570 C.3   177  VAL177      0.0022
     62  CG2       34.9490   -4.5350   53.8160 C.3   177  VAL177      0.0022
     63  N         34.4930    4.0910   54.2640 N.3   190  ALA190     -0.1245
     64  CA        34.2150    2.6720   54.4170 C.3   190  ALA190      0.1562
     65  C         34.7920    2.1960   55.7540 C.2   190  ALA190      0.2260
     66  O         35.9620    2.4560   56.0630 O.2   190  ALA190     -0.2867
     67  CB        34.8140    1.8800   53.2560 C.3   190  ALA190      0.0290
     68  N         35.7090   -1.0970   57.8310 N.3   192  LYS192     -0.1245
     69  CA        35.9960   -2.5360   57.9190 C.3   192  LYS192      0.1561
     70  C         36.0520   -2.8700   59.4060 C.2   192  LYS192      0.2260
     71  O         36.8500   -2.2720   60.1200 O.2   192  LYS192     -0.2867
     72  CB        37.3510   -2.8230   57.2460 C.3   192  LYS192      0.0271
     73  CG        37.7070   -4.2950   56.9680 C.3   192  LYS192      0.0035
     74  CD        38.8510   -4.3660   55.9300 C.3   192  LYS192      0.0206
     75  CE        39.3460   -5.7850   55.6630 C.3   192  LYS192      0.1093
     76  NZ        40.0630   -5.9280   54.3510 N.3   192  LYS192     -0.1314
     77  N         36.5400   -5.9390   61.7930 N.3   194  LEU194     -0.1245
     78  CA        36.9030   -7.3280   62.1050 C.3   194  LEU194      0.1561
     79  C         36.6420   -7.6570   63.5790 C.2   194  LEU194      0.2260
     80  O         36.7690   -6.7800   64.4350 O.2   194  LEU194     -0.2867
     81  CB        38.3820   -7.5740   61.7790 C.3   194  LEU194      0.0270
     82  CG        38.8910   -7.1790   60.3860 C.3   194  LEU194      0.0019
     83  CD1       40.3570   -7.5520   60.2510 C.3   194  LEU194      0.0001
     84  CD2       38.0680   -7.8480   59.2860 C.3   194  LEU194      0.0001
     85  N         47.7200  -11.5840   60.9830 N.3   207  LEU207     -0.1231
     86  CA        47.1210  -11.0360   59.7590 C.3   207  LEU207      0.1693
     87  C         46.5590   -9.6160   59.9440 C.2   207  LEU207      0.2591
     88  O         47.0010   -8.6730   59.2640 O.2   207  LEU207     -0.2718
     89  CB        46.0420  -11.9830   59.2150 C.3   207  LEU207      0.0284
     90  CG        46.5980  -13.2570   58.5680 C.3   207  LEU207      0.0019
     91  CD1       45.5230  -14.3370   58.3980 C.3   207  LEU207      0.0001
     92  CD2       47.2550  -12.9230   57.2320 C.3   207  LEU207      0.0001
     93  N         45.5910   -9.4660   60.8510 N.am  208  ALA208     -0.1980
     94  CA        45.0470   -8.1450   61.1900 C.3   208  ALA208      0.1597
     95  C         46.1770   -7.1630   61.5140 C.2   208  ALA208      0.2287
     96  O         46.1720   -6.0210   61.0470 O.2   208  ALA208     -0.2864
     97  CB        44.0720   -8.2490   62.3600 C.3   208  ALA208      0.0319
     98  N         47.9330   -5.9680   58.2870 N.3   211  GLU211     -0.1245
     99  CA        47.1590   -5.0380   57.4690 C.3   211  GLU211      0.1567
    100  C         47.2540   -3.6050   58.0010 C.2   211  GLU211      0.2260
    101  O         47.5080   -2.6730   57.2360 O.2   211  GLU211     -0.2867
    102  CB        45.6870   -5.4790   57.3520 C.3   211  GLU211      0.0388
    103  CG        45.0630   -5.1500   55.9840 C.3   211  GLU211      0.1160
    104  CD        43.5550   -5.3510   55.9240 C.2   211  GLU211      0.3649
    105  OE1       42.9550   -5.0370   54.8680 O.co2 211  GLU211     -0.2457
    106  OE2       42.9710   -5.8100   56.9270 O.co2 211  GLU211     -0.2457
    107  N         43.0680    1.8100   48.1840 N.3   227  VAL227     -0.1245
    108  CA        42.1200    2.1410   49.2250 C.3   227  VAL227      0.1561
    109  C         42.9570    2.3750   50.4580 C.2   227  VAL227      0.2260
    110  O         43.5620    1.4410   50.9800 O.2   227  VAL227     -0.2867
    111  CB        41.0970    1.0270   49.4920 C.3   227  VAL227      0.0252
    112  CG1       40.1850    1.4070   50.6870 C.3   227  VAL227      0.0019
    113  CG2       40.2800    0.7340   48.2300 C.3   227  VAL227      0.0019
    114  N         38.3410    3.5860   56.0560 N.3   243  LEU243     -0.1231
    115  CA        39.0150    3.5580   54.7740 C.3   243  LEU243      0.1693
    116  C         38.2840    4.3970   53.7480 C.2   243  LEU243      0.2592
    117  O         37.1300    4.7820   53.9430 O.2   243  LEU243     -0.2718
    118  CB        39.0620    2.1290   54.2490 C.3   243  LEU243      0.0284
    119  CG        39.5580    1.0090   55.1660 C.3   243  LEU243      0.0019
    120  CD1       39.1990   -0.3650   54.5720 C.3   243  LEU243      0.0001
    121  CD2       41.0620    1.1580   55.3990 C.3   243  LEU243      0.0001
    122  N         38.9720    4.6520   52.6420 N.am  244  ASP244     -0.1974
    123  CA        38.3870    5.3410   51.5040 C.3   244  ASP244      0.1709
    124  C         37.2170    4.5270   50.9470 C.2   244  ASP244      0.2293
    125  O         37.3360    3.3110   50.7750 O.2   244  ASP244     -0.2864
    126  CB        39.4430    5.5340   50.4090 C.3   244  ASP244      0.1436
    127  CG        40.4220    6.6530   50.7230 C.2   244  ASP244      0.3671
    128  OD1       39.9750    7.7440   51.1560 O.co2 244  ASP244     -0.2456
    129  OD2       41.6350    6.4430   50.5100 O.co2 244  ASP244     -0.2456
    130  N         34.4760    3.0270   48.3710 N.3   246  MET246     -0.1245
    131  CA        34.3050    2.5860   46.9870 C.3   246  MET246      0.1570
    132  C         32.9810    1.8400   46.9000 C.2   246  MET246      0.2261
    133  O         32.8070    0.8270   47.5550 O.2   246  MET246     -0.2867
    134  CB        35.4290    1.6280   46.5880 C.3   246  MET246      0.0387
    135  CG        36.8100    2.2020   46.7520 C.3   246  MET246      0.0595
    136  SD        37.0530    3.5720   45.6240 S.3   246  MET246     -0.1393
    137  CE        37.4960    2.6920   44.1190 C.3   246  MET246      0.0692
    138  N         31.7430   -1.8420   43.3040 N.3   249  GLY249     -0.1210
    139  CA        31.9750   -3.2910   43.1900 C.3   249  GLY249      0.1956
    140  C         33.3430   -3.5870   42.6050 C.2   249  GLY249      0.2611
    141  O         34.0890   -2.6510   42.2830 O.2   249  GLY249     -0.2717
    142  N         33.6860   -4.8720   42.4610 N.am  250  ASP250     -0.1973
    143  CA        35.0350   -5.2400   41.9760 C.3   250  ASP250      0.1709
    144  C         35.0740   -5.7130   40.5240 C.2   250  ASP250      0.2293
    145  O         34.0540   -6.0870   39.9620 O.2   250  ASP250     -0.2864
    146  CB        35.7450   -6.2450   42.9060 C.3   250  ASP250      0.1436
    147  CG        35.0170   -7.5700   43.0380 C.2   250  ASP250      0.3671
    148  OD1       34.7000   -8.2000   42.0110 O.co2 250  ASP250     -0.2456
    149  OD2       34.7820   -7.9970   44.1870 O.co2 250  ASP250     -0.2456
    150  N         40.2910   -8.0930   43.7040 N.3   294  ASN294     -0.1240
    151  CA        40.8970   -7.1390   44.6220 C.3   294  ASN294      0.1653
    152  C         41.0210   -5.7100   44.0640 C.2   294  ASN294      0.2266
    153  O         41.7080   -4.8710   44.6510 O.2   294  ASN294     -0.2867
    154  CB        42.2650   -7.6690   45.0870 C.3   294  ASN294      0.1155
    155  CG        42.1500   -8.7320   46.1800 C.2   294  ASN294      0.2627
    156  OD1       41.2750   -8.6560   47.0500 O.2   294  ASN294     -0.2716
    157  ND2       43.0530   -9.7140   46.1520 N.am  294  ASN294     -0.0877
    158  N         38.7840   -2.3190   43.0160 N.3   296  LEU296     -0.1245
    159  CA        37.4590   -1.7610   43.2810 C.3   296  LEU296      0.1561
    160  C         37.1690   -0.4990   42.4790 C.2   296  LEU296      0.2260
    161  O         38.0800    0.2430   42.1060 O.2   296  LEU296     -0.2867
    162  CB        37.2860   -1.4570   44.7660 C.3   296  LEU296      0.0270
    163  CG        37.4210   -2.6260   45.7310 C.3   296  LEU296      0.0019
    164  CD1       36.9360   -2.2010   47.1110 C.3   296  LEU296      0.0001
    165  CD2       36.6650   -3.8410   45.2380 C.3   296  LEU296      0.0001
    166  N         42.5880   -2.8990   46.5650 N.3   306  SER306     -0.1202
    167  CA        41.9030   -2.9340   47.8670 C.3   306  SER306      0.2020
    168  C         42.5760   -3.7500   48.9950 C.2   306  SER306      0.2618
    169  O         43.4170   -3.2240   49.7220 O.2   306  SER306     -0.2717
    170  CB        40.4440   -3.3580   47.6950 C.3   306  SER306      0.2103
    171  OG        39.7990   -3.4260   48.9550 O.3   306  SER306     -0.2182
    172  N         42.2040   -5.0070   49.1820 N.am  307  ASP307     -0.1973
    173  CA        42.6020   -5.7140   50.4060 C.3   307  ASP307      0.1709
    174  C         44.1330   -5.7980   50.5560 C.2   307  ASP307      0.2293
    175  O         44.7980   -6.3420   49.6870 O.2   307  ASP307     -0.2864
    176  CB        41.9810   -7.1160   50.4380 C.3   307  ASP307      0.1436
    177  CG        42.0360   -7.7500   51.8120 C.2   307  ASP307      0.3671
    178  OD1       42.6310   -7.1420   52.7290 O.co2 307  ASP307     -0.2456
    179  OD2       41.4790   -8.8660   51.9790 O.co2 307  ASP307     -0.2456
    180  N         45.7680   -7.4070   53.1320 N.3   309  GLY309     -0.1210
    181  CA        46.0410   -8.3990   54.1860 C.3   309  GLY309      0.1956
    182  C         47.1650   -9.3900   53.9230 C.2   309  GLY309      0.2611
    183  O         47.6860  -10.0090   54.8510 O.2   309  GLY309     -0.2717
    184  N         47.5310   -9.5490   52.6550 N.am  310  LEU310     -0.1979
    185  CA        48.6340  -10.4270   52.2550 C.3   310  LEU310      0.1596
    186  C         49.8950   -9.6540   51.8010 C.2   310  LEU310      0.2287
    187  O         50.8680  -10.2720   51.3520 O.2   310  LEU310     -0.2864
    188  CB        48.1670  -11.3830   51.1440 C.3   310  LEU310      0.0297
    189  CG        48.0130  -12.8720   51.4920 C.3   310  LEU310      0.0022
    190  CD1       46.9990  -13.1310   52.6010 C.3   310  LEU310      0.0001
    191  CD2       47.6360  -13.6380   50.2340 C.3   310  LEU310      0.0001
@<TRIPOS>BOND
     1   145   144    2
     2   144   143    1
     3   143   142    1
     4   143   146    1
     5   148   147   ar
     6   161   160    2
     7   141   140    2
     8   142   140   am
     9   160   159    1
    10   140   139    1
    11   146   147    1
    12   158   159    1
    13   147   149   ar
    14   139   138    1
    15   159   162    1
    16   150   151    1
    17   152   151    1
    18   152   153    2
    19   137   136    1
    20   151   154    1
    21   162   163    1
    22   154   155    1
    23   165   163    1
    24   136   135    1
    25   163   164    1
    26   157   155   am
    27   155   156    2
    28   166   167    1
    29   134   135    1
    30   134   131    1
    31   132   131    1
    32   132   133    2
    33   131   130    1
    34   170   167    1
    35   170   171    1
    36   167   168    1
    37   107   108    1
    38   113   111    1
    39   168   172   am
    40   168   169    2
    41   172   173    1
    42   108   111    1
    43   108   109    1
    44   111   112    1
    45   175   174    2
    46     4     3    2
    47     7     5    1
    48   191   189    1
    49   173   176    1
    50   173   174    1
    51   126   127    1
    52   126   123    1
    53   176   177    1
    54   109   110    2
    55   129   127   ar
    56   127   128   ar
    57   125   124    2
    58   124   123    1
    59     3     2    1
    60     3     9   am
    61   188   189    1
    62   188   185    1
    63     5     2    1
    64     5     6    1
    65   187   186    2
    66     2     1    1
    67   189   190    1
    68     6     8    1
    69   123   122    1
    70    10     9    1
    71    10    11    1
    72   186   185    1
    73   177   179   ar
    74   177   178   ar
    75   185   184    1
    76    16    15    2
    77   122   116   am
    78   184   182   am
    79    13    11   am
    80    13    14    1
    81    11    12    2
    82   180   181    1
    83    67    64    1
    84    23    21    1
    85    61    60    1
    86    15    14    1
    87    15    24   am
    88   116   117    2
    89   116   115    1
    90    62    60    1
    91    60    57    1
    92   182   181    1
    93   182   183    2
    94    14    17    1
    95    17    18    1
    96    20    21    2
    97    20    19    1
    98    21    22    1
    99   118   115    1
   100   118   119    1
   101    63    64    1
   102    76    75    1
   103    64    65    1
   104    25    24    1
   105    25    26    1
   106   120   119    1
   107   115   114    1
   108   105   104   ar
   109    18    19    1
   110    59    58    2
   111   119   121    1
   112    57    58    1
   113    57    56    1
   114    26    28   am
   115    26    27    2
   116    56    49   am
   117    75    74    1
   118    28    29    1
   119    65    66    2
   120   104   103    1
   121   104   106   ar
   122    74    73    1
   123   103   102    1
   124    29    30    1
   125    49    48    1
   126    49    50    2
   127    73    72    1
   128    48    51    1
   129    48    47    1
   130    46    45    2
   131    92    90    1
   132   101   100    2
   133    72    69    1
   134    51    52    1
   135   102    99    1
   136    99   100    1
   137    99    98    1
   138    68    69    1
   139    69    70    1
   140    30    32   am
   141    30    31    2
   142    47    45   am
   143    45    44    1
   144    91    90    1
   145    32    33    1
   146    90    89    1
   147    52    53    1
   148    89    86    1
   149    43    44    1
   150    43    34   am
   151    88    87    2
   152    84    82    1
   153    55    53   ar
   154    70    71    2
   155    42    41   ar
   156    42    40   ar
   157    53    54   ar
   158    86    87    1
   159    86    85    1
   160    41    39   ar
   161    40    38   ar
   162    87    93   am
   163    33    34    1
   164    33    36    1
   165    39    37   ar
   166    38    37   ar
   167    83    82    1
   168    34    35    2
   169    37    36    1
   170    82    81    1
   171    93    94    1
   172    96    95    2
   173    94    95    1
   174    94    97    1
   175    81    78    1
   176    77    78    1
   177    78    79    1
   178    79    80    2
