@<TRIPOS>MOLECULE
tmp/3pwdA00.pdb
 139 130 0 0 0
SMALL
GASTEIGER

@<TRIPOS>ATOM
      1  N         27.2740    8.4370   26.5810 N.3    39  VAL39      -0.1231
      2  CA        25.9510    7.8410   26.5440 C.3    39  VAL39       0.1692
      3  C         25.9260    6.5550   25.7240 C.2    39  VAL39       0.2592
      4  O         24.9050    5.8860   25.6520 O.2    39  VAL39      -0.2718
      5  CB        24.9100    8.8180   25.9490 C.3    39  VAL39       0.0266
      6  CG1       24.8260   10.0780   26.7790 C.3    39  VAL39       0.0020
      7  CG2       25.2550    9.1610   24.5150 C.3    39  VAL39       0.0020
      8  N         27.0450    6.2070   25.1040 N.am   40  GLY40      -0.1957
      9  CA        27.0720    5.0570   24.2180 C.3    40  GLY40       0.1869
     10  C         28.4780    4.6480   23.8330 C.2    40  GLY40       0.2309
     11  O         29.4250    5.4200   24.0040 O.2    40  GLY40      -0.2863
     12  N         32.5860    3.4980   17.2150 N.3    45  SER45      -0.1217
     13  CA        32.5080    4.8500   17.7360 C.3    45  SER45       0.1889
     14  C         32.1700    4.9110   19.2140 C.2    45  SER45       0.2288
     15  O         31.8220    3.9090   19.8240 O.2    45  SER45      -0.2866
     16  CB        31.4730    5.6540   16.9440 C.3    45  SER45       0.2089
     17  OG        30.1820    5.0740   17.0440 O.3    45  SER45      -0.2183
     18  N         29.9480    7.6810   21.8660 N.3    47  VAL47      -0.1245
     19  CA        28.8970    8.6750   21.7390 C.3    47  VAL47       0.1561
     20  C         28.7320    9.4470   23.0480 C.2    47  VAL47       0.2260
     21  O         28.8350    8.8750   24.1300 O.2    47  VAL47      -0.2867
     22  CB        27.5690    7.9940   21.3460 C.3    47  VAL47       0.0252
     23  CG1       26.5590    9.0100   20.8600 C.3    47  VAL47       0.0019
     24  CG2       27.8230    6.9540   20.2700 C.3    47  VAL47       0.0019
     25  N         24.5650   16.0040   20.0530 N.3    60  ILE60      -0.1245
     26  CA        25.1030   14.6610   20.1190 C.3    60  ILE60       0.1561
     27  C         26.4880   14.6510   19.4990 C.2    60  ILE60       0.2260
     28  O         26.6600   15.0300   18.3370 O.2    60  ILE60      -0.2867
     29  CB        24.2240   13.6710   19.3630 C.3    60  ILE60       0.0252
     30  CG1       22.9090   13.4620   20.1100 C.3    60  ILE60       0.0019
     31  CG2       24.9550   12.3320   19.1820 C.3    60  ILE60       0.0019
     32  CD1       23.1030   13.0590   21.5440 C.3    60  ILE60       0.0001
     33  N         29.4150   12.2520   18.3790 N.3    62  LYS62      -0.1245
     34  CA        29.8320   10.8910   18.0620 C.3    62  LYS62       0.1561
     35  C         31.3020   10.9000   17.6240 C.2    62  LYS62       0.2260
     36  O         31.6390   11.4630   16.5830 O.2    62  LYS62      -0.2867
     37  CB        28.9250   10.3380   16.9540 C.3    62  LYS62       0.0271
     38  CG        29.3610    9.0190   16.3240 C.3    62  LYS62       0.0035
     39  CD        28.2770    8.4460   15.3970 C.3    62  LYS62       0.0206
     40  CE        28.8510    7.3300   14.5080 C.3    62  LYS62       0.1093
     41  NZ        27.8540    6.3890   13.9190 N.3    62  LYS62      -0.1314
     42  N         29.0750    7.3420    4.8500 N.3    75  GLU75      -0.1245
     43  CA        28.0940    7.6560    5.8750 C.3    75  GLU75       0.1567
     44  C         27.7280    9.1390    5.7960 C.2    75  GLU75       0.2260
     45  O         26.5650    9.5100    5.9390 O.2    75  GLU75      -0.2867
     46  CB        28.6200    7.2770    7.2700 C.3    75  GLU75       0.0388
     47  CG        27.8750    7.9570    8.4120 C.3    75  GLU75       0.1160
     48  CD        28.2150    7.4010    9.7940 C.2    75  GLU75       0.3649
     49  OE1       29.2120    6.6650    9.9330 O.co2  75  GLU75      -0.2457
     50  OE2       27.4760    7.7040   10.7540 O.co2  75  GLU75      -0.2457
     51  N         17.7060   10.8860   11.6970 N.3    89  VAL89      -0.1245
     52  CA        18.6480   11.6940   12.4650 C.3    89  VAL89       0.1561
     53  C         19.2560   12.8140   11.5960 C.2    89  VAL89       0.2260
     54  O         19.4310   12.6440   10.3900 O.2    89  VAL89      -0.2867
     55  CB        19.7490   10.7950   13.1050 C.3    89  VAL89       0.0252
     56  CG1       20.7650   10.3320   12.0600 C.3    89  VAL89       0.0019
     57  CG2       20.4340   11.5010   14.2580 C.3    89  VAL89       0.0019
     58  N         25.3200   15.9070   15.8130 N.3   107  PHE107     -0.1241
     59  CA        23.9370   15.7630   15.3780 C.3   107  PHE107      0.1605
     60  C         22.9730   16.6060   16.1980 C.2   107  PHE107      0.2264
     61  O         23.3090   17.0890   17.2850 O.2   107  PHE107     -0.2867
     62  CB        23.4650   14.3020   15.4840 C.3   107  PHE107      0.0534
     63  CG        24.2050   13.3340   14.6100 C.ar  107  PHE107     -0.0203
     64  CD1       23.7550   13.0480   13.3260 C.ar  107  PHE107     -0.0042
     65  CD2       25.3150   12.6490   15.0950 C.ar  107  PHE107     -0.0042
     66  CE1       24.4320   12.1170   12.5060 C.ar  107  PHE107     -0.0003
     67  CE2       25.9980   11.7200   14.2930 C.ar  107  PHE107     -0.0003
     68  CZ        25.5540   11.4530   13.0000 C.ar  107  PHE107     -0.0000
     69  N         19.2420   14.0220   20.5770 N.3   110  VAL110     -0.1245
     70  CA        18.2310   12.9730   20.6030 C.3   110  VAL110      0.1561
     71  C         18.1830   12.3530   21.9920 C.2   110  VAL110      0.2260
     72  O         19.2150   11.9690   22.5410 O.2   110  VAL110     -0.2867
     73  CB        18.5800   11.8320   19.5940 C.3   110  VAL110      0.0252
     74  CG1       17.4830   10.7900   19.5670 C.3   110  VAL110      0.0019
     75  CG2       18.8350   12.3770   18.1970 C.3   110  VAL110      0.0019
     76  N         17.0880    9.2120   24.4960 N.3   112  ASN112     -0.1240
     77  CA        16.7580    7.7900   24.4280 C.3   112  ASN112      0.1653
     78  C         16.7690    7.0700   25.7730 C.2   112  ASN112      0.2266
     79  O         17.5200    7.4390   26.6840 O.2   112  ASN112     -0.2867
     80  CB        17.6890    7.0610   23.4540 C.3   112  ASN112      0.1155
     81  CG        17.4940    5.5490   23.4840 C.2   112  ASN112      0.2627
     82  OD1       16.4580    5.0320   23.0410 O.2   112  ASN112     -0.2716
     83  ND2       18.4850    4.8320   24.0200 N.am  112  ASN112     -0.0877
     84  N         18.9230   -1.2200   18.9990 N.3   154  HIS154     -0.1226
     85  CA        19.9470   -0.2650   19.4440 C.3   154  HIS154      0.1752
     86  C         20.1530    0.8650   18.4360 C.2   154  HIS154      0.2596
     87  O         20.7800    1.8760   18.7570 O.2   154  HIS154     -0.2718
     88  CB        21.3040   -0.9470   19.7160 C.3   154  HIS154      0.0759
     89  CG        21.2010   -2.3960   20.0870 C.ar  154  HIS154      0.0818
     90  ND1       20.4150   -3.2920   19.3930 N.ar  154  HIS154     -0.2268
     91  CD2       21.8040   -3.1070   21.0710 C.ar  154  HIS154      0.1154
     92  CE1       20.5320   -4.4900   19.9370 C.ar  154  HIS154      0.1986
     93  NE2       21.3750   -4.4060   20.9530 N.ar  154  HIS154     -0.2212
     94  N         19.6410    0.6910   17.2180 N.am  155  ASN155     -0.1974
     95  CA        19.7620    1.7250   16.1880 C.3   155  ASN155      0.1688
     96  C         18.5280    2.5960   15.9770 C.2   155  ASN155      0.2292
     97  O         18.4990    3.4720   15.1050 O.2   155  ASN155     -0.2864
     98  CB        20.2530    1.1330   14.8730 C.3   155  ASN155      0.1181
     99  CG        21.7280    0.8300   14.9110 C.2   155  ASN155      0.2629
    100  OD1       22.4450    1.3400   15.7770 O.2   155  ASN155     -0.2716
    101  ND2       22.1910   -0.0150   14.0000 N.am  155  ASN155     -0.0877
    102  N         16.3820    5.2640   18.0110 N.3   157  MET157     -0.1245
    103  CA        16.2910    6.0630   19.2370 C.3   157  MET157      0.1570
    104  C         14.8790    6.5280   19.5130 C.2   157  MET157      0.2261
    105  O         14.2180    7.1040   18.6450 O.2   157  MET157     -0.2867
    106  CB        17.2190    7.2760   19.1770 C.3   157  MET157      0.0387
    107  CG        18.6930    6.9340   19.0500 C.3   157  MET157      0.0595
    108  SD        19.3660    6.0840   20.5030 S.3   157  MET157     -0.1393
    109  CE        19.0930    4.3660   20.0650 C.3   157  MET157      0.0692
    110  N         18.9940    5.8300   13.6540 N.3   168  ILE168     -0.1231
    111  CA        20.3690    6.3020   13.7010 C.3   168  ILE168      0.1692
    112  C         21.3850    5.2900   13.1650 C.2   168  ILE168      0.2592
    113  O         21.0150    4.2450   12.6070 O.2   168  ILE168     -0.2718
    114  CB        20.7800    6.6840   15.1170 C.3   168  ILE168      0.0266
    115  CG1       20.7820    5.4340   16.0080 C.3   168  ILE168      0.0019
    116  CG2       19.8590    7.7600   15.6550 C.3   168  ILE168      0.0020
    117  CD1       21.4670    5.6310   17.3420 C.3   168  ILE168      0.0001
    118  N         22.6590    5.6400   13.3610 N.am  169  ASP169     -0.1960
    119  CA        23.8280    4.8520   12.9630 C.3   169  ASP169      0.1840
    120  C         23.8000    4.3690   11.5030 C.2   169  ASP169      0.2622
    121  O         23.5860    3.1830   11.2040 O.2   169  ASP169     -0.2715
    122  CB        24.1080    3.7210   13.9560 C.3   169  ASP169      0.1450
    123  CG        25.5210    3.1490   13.8130 C.2   169  ASP169      0.3671
    124  OD1       26.3890    3.8140   13.1990 O.co2 169  ASP169     -0.2456
    125  OD2       25.7670    2.0310   14.3170 O.co2 169  ASP169     -0.2456
    126  N         24.0300    5.3260   10.6120 N.am  170  TRP170     -0.1974
    127  CA        24.0470    5.1050    9.1710 C.3   170  TRP170      0.1640
    128  C         25.4130    4.6370    8.6680 C.2   170  TRP170      0.2290
    129  O         25.6930    4.7130    7.4740 O.2   170  TRP170     -0.2864
    130  CB        23.5940    6.3790    8.4500 C.3   170  TRP170      0.0576
    131  CG        22.1640    6.6330    8.7420 C.ar  170  TRP170      0.0006
    132  CD1       21.6460    7.2400    9.8490 C.ar  170  TRP170      0.0946
    133  CD2       21.0470    6.2220    7.9490 C.ar  170  TRP170      0.0152
    134  NE1       20.2820    7.2480    9.7880 N.ar  170  TRP170     -0.2442
    135  CE2       19.8850    6.6270    8.6310 C.ar  170  TRP170      0.0810
    136  CE3       20.9200    5.5450    6.7320 C.ar  170  TRP170      0.0012
    137  CZ2       18.6050    6.3860    8.1340 C.ar  170  TRP170      0.0191
    138  CZ3       19.6500    5.3110    6.2320 C.ar  170  TRP170      0.0001
    139  CH2       18.5080    5.7270    6.9360 C.ar  170  TRP170      0.0015
@<TRIPOS>BOND
     1    42    43    1
     2    44    43    1
     3    44    45    2
     4    43    46    1
     5   138   136   ar
     6   138   139   ar
     7   136   133   ar
     8   139   137   ar
     9    46    47    1
    10   129   128    2
    11   133   135   ar
    12   133   131   ar
    13   137   135   ar
    14    47    48    1
    15   130   131    1
    16   130   127    1
    17   135   134   ar
    18   128   127    1
    19   131   132   ar
    20   127   126    1
    21   134   132   ar
    22    48    49   ar
    23    48    50   ar
    24    54    53    2
    25   126   120   am
    26   121   120    2
    27   120   119    1
    28    53    52    1
    29    51    52    1
    30    56    55    1
    31    52    55    1
    32    66    68   ar
    33    66    64   ar
    34   113   112    2
    35   119   118    1
    36   119   122    1
    37    68    67   ar
    38    55    57    1
    39   112   118   am
    40   112   111    1
    41   124   123   ar
    42    64    63   ar
    43   110   111    1
    44   111   114    1
    45   123   122    1
    46   123   125   ar
    47    41    40    1
    48   101    99   am
    49    67    65   ar
    50    40    39    1
    51    63    65   ar
    52    63    62    1
    53    98    99    1
    54    98    95    1
    55    99   100    2
    56    97    96    2
    57   114   116    1
    58   114   115    1
    59    59    62    1
    60    59    58    1
    61    59    60    1
    62    39    38    1
    63    96    95    1
    64   115   117    1
    65    95    94    1
    66    60    61    2
    67    38    37    1
    68    36    35    2
    69    16    17    1
    70    16    13    1
    71    37    34    1
    72    12    13    1
    73    94    86   am
    74    35    34    1
    75    13    14    1
    76   102   103    1
    77    34    33    1
    78    75    73    1
    79    28    27    2
    80    86    87    2
    81    86    85    1
    82   105   104    2
    83    84    85    1
    84   107   106    1
    85   107   108    1
    86   106   103    1
    87    31    29    1
    88    14    15    2
    89   103   104    1
    90    29    30    1
    91    29    26    1
    92    90    92   ar
    93    90    89   ar
    94    85    88    1
    95    27    26    1
    96    74    73    1
    97    73    70    1
    98    88    89    1
    99    92    93   ar
   100    25    26    1
   101   109   108    1
   102    89    91   ar
   103    30    32    1
   104    24    22    1
   105    69    70    1
   106    70    71    1
   107    23    22    1
   108    93    91   ar
   109    22    19    1
   110    19    18    1
   111    19    20    1
   112    71    72    2
   113    82    81    2
   114    20    21    2
   115    80    81    1
   116    80    77    1
   117    81    83   am
   118    10    11    2
   119    10     9    1
   120     9     8    1
   121    77    76    1
   122    77    78    1
   123     7     5    1
   124     8     3   am
   125     4     3    2
   126     3     2    1
   127    78    79    2
   128     5     2    1
   129     5     6    1
   130     2     1    1
