@<TRIPOS>MOLECULE
tmp/3pwjD00.pdb
 181 174 0 0 0
SMALL
GASTEIGER

@<TRIPOS>ATOM
      1  N         37.8640  -11.4640   18.1430 N.3    66  LYS66      -0.1245
      2  CA        36.8590  -10.9470   19.0480 C.3    66  LYS66       0.1561
      3  C         37.0400  -11.4340   20.4730 C.2    66  LYS66       0.2260
      4  O         36.9080  -10.6440   21.4210 O.2    66  LYS66      -0.2867
      5  CB        35.4500  -11.2390   18.5160 C.3    66  LYS66       0.0271
      6  CG        35.1610  -10.3400   17.2820 C.3    66  LYS66       0.0035
      7  CD        34.2580  -11.0450   16.2890 C.3    66  LYS66       0.0206
      8  CE        32.8660  -11.1410   16.7670 C.3    66  LYS66       0.1093
      9  NZ        32.0870  -12.1380   15.8710 N.3    66  LYS66      -0.1314
     10  N         39.8000   -9.6550   22.2300 N.3    69  ALA69      -0.1231
     11  CA        39.2280   -8.3570   22.6380 C.3    69  ALA69       0.1694
     12  C         38.3350   -8.4570   23.8700 C.2    69  ALA69       0.2592
     13  O         38.4630   -7.6240   24.7630 O.2    69  ALA69      -0.2718
     14  CB        38.4720   -7.6560   21.4840 C.3    69  ALA69       0.0304
     15  N         37.4870   -9.4880   23.9470 N.am   70  HIS70      -0.1976
     16  CA        36.7070   -9.7330   25.1840 C.3    70  HIS70       0.1656
     17  C         37.6500   -9.9790   26.3900 C.2    70  HIS70       0.2291
     18  O         37.4320   -9.4350   27.4890 O.2    70  HIS70      -0.2864
     19  CB        35.8470  -10.9850   25.0910 C.3    70  HIS70       0.0771
     20  CG        34.5950  -10.8430   24.2890 C.ar   70  HIS70       0.0820
     21  ND1       34.5950  -10.4360   22.9760 N.ar   70  HIS70      -0.2267
     22  CD2       33.3060  -11.1430   24.5960 C.ar   70  HIS70       0.1154
     23  CE1       33.3580  -10.4470   22.5200 C.ar   70  HIS70       0.1986
     24  NE2       32.5530  -10.8970   23.4750 N.ar   70  HIS70      -0.2212
     25  N         40.7390   -8.9520   26.9430 N.3    72  GLN72      -0.1231
     26  CA        41.3290   -7.6810   27.3690 C.3    72  GLN72       0.1698
     27  C         40.3700   -6.7630   28.1200 C.2    72  GLN72       0.2592
     28  O         40.7700   -6.1530   29.0950 O.2    72  GLN72      -0.2718
     29  CB        41.9560   -6.9330   26.1910 C.3    72  GLN72       0.0381
     30  CG        43.0610   -7.7110   25.4960 C.3    72  GLN72       0.0905
     31  CD        44.3490   -7.9080   26.3290 C.2    72  GLN72       0.2608
     32  OE1       44.5140   -7.3870   27.4590 O.2    72  GLN72      -0.2717
     33  NE2       45.2900   -8.6520   25.7440 N.am   72  GLN72      -0.0878
     34  N         39.1060   -6.6950   27.7130 N.am   73  THR73      -0.1953
     35  CA        38.2140   -5.8280   28.4500 C.3    73  THR73       0.1897
     36  C         37.9130   -6.3340   29.8460 C.2    73  THR73       0.2313
     37  O         37.8240   -5.5290   30.7650 O.2    73  THR73      -0.2863
     38  CB        36.9140   -5.5130   27.7540 C.3    73  THR73       0.1794
     39  OG1       36.1030   -6.6730   27.7230 O.3    73  THR73      -0.2208
     40  CG2       37.1550   -5.0290   26.3540 C.3    73  THR73       0.0378
     41  N         40.7620   -5.3290   32.1780 N.3    76  VAL76      -0.1231
     42  CA        40.5680   -3.9390   32.6500 C.3    76  VAL76       0.1692
     43  C         39.4750   -3.9090   33.7100 C.2    76  VAL76       0.2592
     44  O         39.6410   -3.3110   34.7590 O.2    76  VAL76      -0.2718
     45  CB        40.2200   -2.9760   31.5040 C.3    76  VAL76       0.0266
     46  CG1       39.9280   -1.5320   32.0480 C.3    76  VAL76       0.0020
     47  CG2       41.3700   -2.9490   30.4990 C.3    76  VAL76       0.0020
     48  N         38.3920   -4.6410   33.4500 N.am   77  ASP77      -0.1974
     49  CA        37.2770   -4.7460   34.3780 C.3    77  ASP77       0.1709
     50  C         37.6420   -5.1630   35.7850 C.2    77  ASP77       0.2293
     51  O         37.1250   -4.5850   36.7330 O.2    77  ASP77      -0.2864
     52  CB        36.2460   -5.7240   33.8670 C.3    77  ASP77       0.1436
     53  CG        35.3680   -5.1420   32.7610 C.2    77  ASP77       0.3671
     54  OD1       35.4410   -3.9220   32.4410 O.co2  77  ASP77      -0.2456
     55  OD2       34.5860   -5.9590   32.1970 O.co2  77  ASP77      -0.2456
     56  N         38.9940   -2.1410   37.4710 N.3    80  THR80      -0.1203
     57  CA        37.9530   -1.1510   37.7370 C.3    80  THR80       0.1994
     58  C         37.1110   -1.5150   38.9660 C.2    80  THR80       0.2617
     59  O         36.8430   -0.6640   39.8160 O.2    80  THR80      -0.2717
     60  CB        37.0310   -0.9940   36.4930 C.3    80  THR80       0.1784
     61  OG1       37.8300   -0.6580   35.3520 O.3    80  THR80      -0.2211
     62  CG2       36.0080    0.0930   36.7050 C.3    80  THR80       0.0376
     63  N         36.7120   -2.7870   39.0420 N.am   81  LEU81      -0.1979
     64  CA        35.8550   -3.3020   40.0990 C.3    81  LEU81       0.1596
     65  C         36.5480   -3.3120   41.4700 C.2    81  LEU81       0.2287
     66  O         35.9110   -2.9910   42.4630 O.2    81  LEU81      -0.2864
     67  CB        35.3910   -4.7100   39.7240 C.3    81  LEU81       0.0297
     68  CG        34.3590   -4.5930   38.5980 C.3    81  LEU81       0.0022
     69  CD1       34.1100   -5.9040   37.9660 C.3    81  LEU81       0.0001
     70  CD2       33.0700   -4.0580   39.1320 C.3    81  LEU81       0.0001
     71  N         36.2350    0.2490   42.4730 N.3    84  TYR84      -0.1241
     72  CA        34.8610    0.5850   42.9110 C.3    84  TYR84       0.1605
     73  C         34.5270    0.0880   44.3220 C.2    84  TYR84       0.2264
     74  O         33.8120    0.7740   45.0570 O.2    84  TYR84      -0.2867
     75  CB        33.7860   -0.0320   42.0050 C.3    84  TYR84       0.0534
     76  CG        33.5770    0.5290   40.6050 C.ar   84  TYR84      -0.0201
     77  CD1       34.0370    1.7900   40.2330 C.ar   84  TYR84      -0.0009
     78  CD2       32.8720   -0.2160   39.6590 C.ar   84  TYR84      -0.0009
     79  CE1       33.8190    2.2860   38.9210 C.ar   84  TYR84       0.0417
     80  CE2       32.6590    0.2710   38.3450 C.ar   84  TYR84       0.0417
     81  CZ        33.1180    1.5350   38.0060 C.ar   84  TYR84       0.1957
     82  OH        32.9200    2.0090   36.7230 O.3    84  TYR84      -0.2866
     83  N         30.5120  -13.0580   32.7220 N.3    97  ARG97      -0.1245
     84  CA        29.5550  -12.4190   31.8420 C.3    97  ARG97       0.1563
     85  C         28.8560  -13.5280   31.0590 C.2    97  ARG97       0.2260
     86  O         29.5160  -14.5020   30.6890 O.2    97  ARG97      -0.2867
     87  CB        30.2900  -11.4710   30.8960 C.3    97  ARG97       0.0307
     88  CG        29.2820  -10.7050   29.9810 C.3    97  ARG97       0.0489
     89  CD        29.9880   -9.9960   28.8100 C.3    97  ARG97       0.2205
     90  NE        30.9750   -8.9970   29.2300 N.pl3  97  ARG97      -0.0865
     91  CZ        30.8510   -7.6630   29.2350 C.cat  97  ARG97       0.5346
     92  NH1       29.7390   -7.0570   28.8910 N.pl3  97  ARG97       0.1354
     93  NH2       31.8630   -6.9140   29.6290 N.pl3  97  ARG97       0.1354
     94  N         21.9400  -10.4730   28.7240 N.3   114  HIS114     -0.1241
     95  CA        23.3190  -10.0620   28.7840 C.3   114  HIS114      0.1621
     96  C         23.5060   -9.6730   30.2460 C.2   114  HIS114      0.2264
     97  O         22.9470   -8.6930   30.7070 O.2   114  HIS114     -0.2867
     98  CB        23.6010   -8.8820   27.8620 C.3   114  HIS114      0.0745
     99  CG        24.9640   -8.2910   28.0370 C.ar  114  HIS114      0.0817
    100  ND1       25.2350   -7.3100   28.9710 N.ar  114  HIS114     -0.2268
    101  CD2       26.1200   -8.5100   27.3750 C.ar  114  HIS114      0.1154
    102  CE1       26.5060   -6.9700   28.8880 C.ar  114  HIS114      0.1986
    103  NE2       27.0660   -7.6870   27.9320 N.ar  114  HIS114     -0.2212
    104  N         26.0820   -9.7920   34.0850 N.3   116  TYR116     -0.1241
    105  CA        27.4170   -9.7580   34.5410 C.3   116  TYR116      0.1605
    106  C         27.4140   -9.9500   36.0210 C.2   116  TYR116      0.2264
    107  O         26.5220   -9.4150   36.6980 O.2   116  TYR116     -0.2867
    108  CB        27.9020   -8.3600   34.2560 C.3   116  TYR116      0.0534
    109  CG        29.3580   -8.1270   34.2500 C.ar  116  TYR116     -0.0201
    110  CD1       30.0210   -7.9800   33.0520 C.ar  116  TYR116     -0.0009
    111  CD2       30.0760   -7.9340   35.4520 C.ar  116  TYR116     -0.0009
    112  CE1       31.3290   -7.7110   33.0040 C.ar  116  TYR116      0.0417
    113  CE2       31.4100   -7.6450   35.4340 C.ar  116  TYR116      0.0417
    114  CZ        32.0340   -7.5120   34.1900 C.ar  116  TYR116      0.1957
    115  OH        33.3900   -7.2550   34.1130 O.3   116  TYR116     -0.2866
    116  N         25.7420   -8.2860   39.2400 N.3   123  TYR123     -0.1241
    117  CA        26.3290   -6.9460   39.2210 C.3   123  TYR123      0.1605
    118  C         25.4430   -6.0400   38.3440 C.2   123  TYR123      0.2264
    119  O         24.7850   -5.1080   38.8560 O.2   123  TYR123     -0.2867
    120  CB        27.7970   -6.9790   38.7680 C.3   123  TYR123      0.0534
    121  CG        28.4370   -5.6050   38.7040 C.ar  123  TYR123     -0.0201
    122  CD1       28.8370   -4.9470   39.8900 C.ar  123  TYR123     -0.0009
    123  CD2       28.6300   -4.9480   37.4930 C.ar  123  TYR123     -0.0009
    124  CE1       29.4030   -3.7080   39.8490 C.ar  123  TYR123      0.0417
    125  CE2       29.2190   -3.6670   37.4540 C.ar  123  TYR123      0.0417
    126  CZ        29.6000   -3.0720   38.6380 C.ar  123  TYR123      0.1957
    127  OH        30.1740   -1.8130   38.6540 O.3   123  TYR123     -0.2866
    128  N         28.3110    1.8210   36.5520 N.3   143  THR143     -0.1218
    129  CA        28.4690    1.1250   35.2960 C.3   143  THR143      0.1862
    130  C         27.2330    1.3530   34.4640 C.2   143  THR143      0.2287
    131  O         27.3570    1.6330   33.2640 O.2   143  THR143     -0.2866
    132  CB        28.6780   -0.3750   35.5120 C.3   143  THR143      0.1770
    133  OG1       29.9170   -0.5300   36.1950 O.3   143  THR143     -0.2211
    134  CG2       28.7040   -1.1490   34.1870 C.3   143  THR143      0.0375
    135  N         27.4200    4.6680   32.7280 N.3   146  LYS146     -0.1231
    136  CA        28.3680    4.6280   31.5910 C.3   146  LYS146      0.1693
    137  C         27.7390    3.9680   30.3640 C.2   146  LYS146      0.2592
    138  O         27.8870    4.4600   29.2560 O.2   146  LYS146     -0.2718
    139  CB        29.6150    3.8090   31.9360 C.3   146  LYS146      0.0285
    140  CG        30.6040    4.5290   32.7940 C.3   146  LYS146      0.0035
    141  CD        31.7270    3.5810   33.2730 C.3   146  LYS146      0.0206
    142  CE        32.6760    3.1890   32.1620 C.3   146  LYS146      0.1093
    143  NZ        33.9820    2.7660   32.8310 N.3   146  LYS146     -0.1314
    144  N         27.0470    2.8640   30.5920 N.am  147  TRP147     -0.1976
    145  CA        26.4790    2.0770   29.5210 C.3   147  TRP147      0.1640
    146  C         25.2430    2.7460   28.9240 C.2   147  TRP147      0.2290
    147  O         24.9430    2.5930   27.7330 O.2   147  TRP147     -0.2864
    148  CB        26.1640    0.6740   30.0220 C.3   147  TRP147      0.0576
    149  CG        27.4070   -0.1970   30.2460 C.ar  147  TRP147      0.0006
    150  CD1       28.7260    0.1890   30.1470 C.ar  147  TRP147      0.0946
    151  CD2       27.4310   -1.5920   30.6060 C.ar  147  TRP147      0.0152
    152  NE1       29.5510   -0.8760   30.4070 N.ar  147  TRP147     -0.2442
    153  CE2       28.7890   -1.9730   30.7140 C.ar  147  TRP147      0.0810
    154  CE3       26.4370   -2.5340   30.8810 C.ar  147  TRP147      0.0012
    155  CZ2       29.1910   -3.2810   31.0730 C.ar  147  TRP147      0.0191
    156  CZ3       26.8240   -3.8370   31.2310 C.ar  147  TRP147      0.0001
    157  CH2       28.1960   -4.1930   31.3380 C.ar  147  TRP147      0.0015
    158  N         24.8490    1.2420   25.0420 N.3   152  VAL152     -0.1245
    159  CA        25.2480   -0.1590   24.9740 C.3   152  VAL152      0.1561
    160  C         24.0420   -1.0570   24.7600 C.2   152  VAL152      0.2260
    161  O         24.1080   -2.0140   23.9480 O.2   152  VAL152     -0.2867
    162  CB        25.9870   -0.5780   26.2860 C.3   152  VAL152      0.0252
    163  CG1       26.1240   -2.0540   26.4030 C.3   152  VAL152      0.0019
    164  CG2       27.3410    0.1340   26.3410 C.3   152  VAL152      0.0019
    165  N         23.0350   -1.3340   21.1110 N.3   155  GLN155     -0.1231
    166  CA        23.9070   -2.1970   20.3320 C.3   155  GLN155      0.1698
    167  C         23.6930   -3.6750   20.6490 C.2   155  GLN155      0.2592
    168  O         23.7710   -4.5190   19.7380 O.2   155  GLN155     -0.2718
    169  CB        25.3620   -1.9140   20.6460 C.3   155  GLN155      0.0381
    170  CG        25.9250   -0.5850   20.3250 C.3   155  GLN155      0.0905
    171  CD        27.3700   -0.4990   20.8520 C.2   155  GLN155      0.2608
    172  OE1       27.6190   -0.5300   22.0780 O.2   155  GLN155     -0.2717
    173  NE2       28.3210   -0.4290   19.9350 N.am  155  GLN155     -0.0878
    174  N         23.5080   -3.9920   21.9250 N.am  156  LEU156     -0.1980
    175  CA        23.1650   -5.3510   22.3460 C.3   156  LEU156      0.1596
    176  C         21.8460   -5.8270   21.7190 C.2   156  LEU156      0.2287
    177  O         21.7850   -6.9410   21.1890 O.2   156  LEU156     -0.2864
    178  CB        23.1100   -5.4450   23.8660 C.3   156  LEU156      0.0297
    179  CG        24.4860   -5.6650   24.4650 C.3   156  LEU156      0.0022
    180  CD1       24.3720   -5.4710   25.9770 C.3   156  LEU156      0.0001
    181  CD2       24.8430   -7.1180   24.1880 C.3   156  LEU156      0.0001
@<TRIPOS>BOND
     1     9     8    1
     2     7     8    1
     3     7     6    1
     4     6     5    1
     5     1     2    1
     6     5     2    1
     7     2     3    1
     8   168   167    2
     9   173   171   am
    10   170   169    1
    11   170   171    1
    12   166   169    1
    13   166   167    1
    14   166   165    1
    15     3     4    2
    16   167   174   am
    17   171   172    2
    18   177   176    2
    19    14    11    1
    20   176   175    1
    21   174   175    1
    22    10    11    1
    23   175   178    1
    24    23    21   ar
    25    23    24   ar
    26    11    12    1
    27    21    20   ar
    28    24    22   ar
    29   178   179    1
    30    12    15   am
    31    12    13    2
    32    15    16    1
    33   161   160    2
    34   181   179    1
    35    20    22   ar
    36    20    19    1
    37   179   180    1
    38   160   159    1
    39   159   158    1
    40   159   162    1
    41    19    16    1
    42    16    17    1
    43    30    29    1
    44    30    31    1
    45    33    31   am
    46    29    26    1
    47   162   164    1
    48   162   163    1
    49    31    32    2
    50    40    38    1
    51    17    18    2
    52    25    26    1
    53    26    27    1
    54   101   103   ar
    55   101    99   ar
    56    34    27   am
    57    34    35    1
    58    39    38    1
    59   147   146    2
    60    38    35    1
    61    98    99    1
    62    98    95    1
    63   103   102   ar
    64    99   100   ar
    65    27    28    2
    66    35    36    1
    67    94    95    1
    68    95    96    1
    69    89    90    1
    70    89    88    1
    71   102   100   ar
    72    92    91    1
    73   146   145    1
    74    90    91    2
    75    91    93    1
    76   138   137    2
    77   145   148    1
    78   145   144    1
    79    36    37    2
    80    88    87    1
    81   148   149    1
    82   150   149   ar
    83   150   152   ar
    84   149   151   ar
    85    96    97    2
    86   137   144   am
    87   137   136    1
    88   152   153   ar
    89    47    45    1
    90   151   153   ar
    91   151   154   ar
    92    86    85    2
    93   153   155   ar
    94   154   156   ar
    95    87    84    1
    96    85    84    1
    97   155   157   ar
    98   156   157   ar
    99    45    46    1
   100    45    42    1
   101   136   139    1
   102   136   135    1
   103    84    83    1
   104   139   140    1
   105   142   143    1
   106   142   141    1
   107    41    42    1
   108    55    53   ar
   109    54    53   ar
   110    42    43    1
   111    53    52    1
   112   140   141    1
   113   112   110   ar
   114   112   114   ar
   115   110   109   ar
   116   131   130    2
   117    48    43   am
   118    48    49    1
   119    43    44    2
   120    52    49    1
   121   104   105    1
   122   115   114    1
   123   134   132    1
   124   114   113   ar
   125   109   108    1
   126   109   111   ar
   127   108   105    1
   128    49    50    1
   129   130   129    1
   130   105   106    1
   131   129   132    1
   132   129   128    1
   133    61    60    1
   134   113   111   ar
   135   132   133    1
   136    50    51    2
   137   106   107    2
   138    60    62    1
   139    60    57    1
   140    82    81    1
   141   125   123   ar
   142   125   126   ar
   143    56    57    1
   144   123   121   ar
   145    57    58    1
   146    69    68    1
   147    81    80   ar
   148    81    79   ar
   149   118   119    2
   150   118   117    1
   151    80    78   ar
   152    68    70    1
   153    68    67    1
   154   126   127    1
   155   126   124   ar
   156   121   120    1
   157   121   122   ar
   158   120   117    1
   159    79    77   ar
   160    58    63   am
   161    58    59    2
   162    63    64    1
   163   117   116    1
   164    78    76   ar
   165    67    64    1
   166   124   122   ar
   167    64    65    1
   168    77    76   ar
   169    76    75    1
   170    65    66    2
   171    75    72    1
   172    71    72    1
   173    72    73    1
   174    73    74    2
