@<TRIPOS>MOLECULE
tmp/3pwkB01.pdb
 119 110 0 0 0
SMALL
GASTEIGER

@<TRIPOS>ATOM
      1  N         27.9660   43.2390   20.1500 N.3    93  ASN93      -0.1225
      2  CA        27.0290   42.7190   21.1710 C.3    93  ASN93       0.1785
      3  C         27.0330   43.4390   22.5090 C.2    93  ASN93       0.2598
      4  O         26.1190   43.2460   23.3310 O.2    93  ASN93      -0.2718
      5  CB        27.2470   41.2230   21.4240 C.3    93  ASN93       0.1169
      6  CG        26.6380   40.3500   20.3680 C.2    93  ASN93       0.2627
      7  OD1       25.3940   40.2250   20.2520 O.2    93  ASN93      -0.2716
      8  ND2       27.5010   39.6690   19.6250 N.am   93  ASN93      -0.0877
      9  N         28.0210   44.2810   22.7460 N.am   94  THR94      -0.1939
     10  CA        28.1540   44.9000   24.0740 C.3    94  THR94       0.2028
     11  C         27.2220   46.0980   24.2390 C.2    94  THR94       0.2642
     12  O         26.5990   46.5710   23.2850 O.2    94  THR94      -0.2714
     13  CB        29.6080   45.3300   24.3980 C.3    94  THR94       0.1808
     14  OG1       29.8660   46.6160   23.8140 O.3    94  THR94      -0.2208
     15  CG2       30.6140   44.2830   23.8970 C.3    94  THR94       0.0379
     16  N         27.1490   46.5970   25.4640 N.am   95  SER95      -0.1949
     17  CA        26.2940   47.7390   25.7390 C.3    95  SER95       0.1924
     18  C         26.9540   49.0680   25.3900 C.2    95  SER95       0.2314
     19  O         26.3070   50.1020   25.4580 O.2    95  SER95      -0.2863
     20  CB        25.8840   47.7640   27.2040 C.3    95  SER95       0.2116
     21  OG        27.0390   47.9180   28.0190 O.3    95  SER95      -0.2180
     22  N         25.4290   51.3500   22.5120 N.3    98  ARG98      -0.1245
     23  CA        23.9900   51.1850   22.2170 C.3    98  ARG98       0.1563
     24  C         23.1990   52.4740   22.1980 C.2    98  ARG98       0.2260
     25  O         22.2530   52.5970   21.4100 O.2    98  ARG98      -0.2867
     26  CB        23.3230   50.2040   23.1880 C.3    98  ARG98       0.0307
     27  CG        23.7870   48.7860   23.0760 C.3    98  ARG98       0.0489
     28  CD        22.9280   47.8910   23.9680 C.3    98  ARG98       0.2205
     29  NE        23.4410   46.5340   23.9220 N.pl3  98  ARG98      -0.0865
     30  CZ        23.5470   45.7230   24.9710 C.cat  98  ARG98       0.5346
     31  NH1       23.0730   46.0850   26.1690 N.pl3  98  ARG98       0.1354
     32  NH2       24.1100   44.5280   24.8110 N.pl3  98  ARG98       0.1354
     33  N         20.6430   44.2360   24.4120 N.3   126  ASN126     -0.1225
     34  CA        20.7990   43.1090   25.3230 C.3   126  ASN126      0.1785
     35  C         19.8050   41.9950   25.0440 C.2   126  ASN126      0.2597
     36  O         18.7490   42.2180   24.4510 O.2   126  ASN126     -0.2718
     37  CB        20.9030   43.4960   26.8100 C.3   126  ASN126      0.1169
     38  CG        19.6320   43.9970   27.4310 C.2   126  ASN126      0.2627
     39  OD1       19.6390   44.3730   28.6230 O.2   126  ASN126     -0.2716
     40  ND2       18.5630   44.0400   26.6910 N.am  126  ASN126     -0.0877
     41  N         20.1700   40.7870   25.4460 N.am  127  CYS127     -0.1970
     42  CA        19.3830   39.6330   25.1350 C.3   127  CYS127      0.1712
     43  C         17.9320   39.7630   25.6260 C.2   127  CYS127      0.2296
     44  O         16.9790   39.4470   24.8920 O.2   127  CYS127     -0.2864
     45  CB        20.0630   38.3970   25.7630 C.3   127  CYS127      0.0983
     46  SG        20.9120   38.7070   27.3780 S.3   127  CYS127     -0.0798
     47  N         16.3790   34.9710   34.0150 N.3   154  GLN154     -0.1245
     48  CA        17.5150   34.9440   33.1080 C.3   154  GLN154      0.1566
     49  C         18.5110   33.8330   33.3960 C.2   154  GLN154      0.2260
     50  O         18.8480   33.5510   34.5460 O.2   154  GLN154     -0.2867
     51  CB        18.2070   36.3240   33.0650 C.3   154  GLN154      0.0367
     52  CG        17.3080   37.3510   32.3310 C.3   154  GLN154      0.0905
     53  CD        17.8730   38.7650   32.3070 C.2   154  GLN154      0.2608
     54  OE1       17.2590   39.6890   32.8320 O.2   154  GLN154     -0.2717
     55  NE2       19.0440   38.9370   31.6980 N.am  154  GLN154     -0.0878
     56  N         24.3870   34.2060   30.0340 N.3   158  GLY158     -0.1210
     57  CA        24.4410   35.6330   29.7460 C.3   158  GLY158      0.1956
     58  C         25.5860   36.3360   30.4590 C.2   158  GLY158      0.2611
     59  O         26.0230   37.3960   30.0190 O.2   158  GLY158     -0.2717
     60  N         26.0680   35.7350   31.5590 N.am  159  ALA159     -0.1979
     61  CA        27.1780   36.2880   32.3370 C.3   159  ALA159      0.1597
     62  C         28.5440   35.7230   31.9220 C.2   159  ALA159      0.2287
     63  O         29.5730   36.0630   32.5370 O.2   159  ALA159     -0.2864
     64  CB        26.9390   36.0630   33.8350 C.3   159  ALA159      0.0319
     65  N         21.0400   41.7270   38.1820 N.3   208  ILE208     -0.1231
     66  CA        21.8420   41.5150   36.9780 C.3   208  ILE208      0.1692
     67  C         22.5240   42.8390   36.6500 C.2   208  ILE208      0.2592
     68  O         21.8870   43.8970   36.6610 O.2   208  ILE208     -0.2718
     69  CB        20.9850   40.9430   35.8150 C.3   208  ILE208      0.0266
     70  CG1       20.4540   39.5580   36.2410 C.3   208  ILE208      0.0019
     71  CG2       21.7900   40.8490   34.5300 C.3   208  ILE208      0.0020
     72  CD1       19.5860   38.8550   35.2470 C.3   208  ILE208      0.0001
     73  N         23.8310   42.7750   36.3960 N.am  209  ASP209     -0.1974
     74  CA        24.6920   43.9720   36.3200 C.3   209  ASP209      0.1709
     75  C         24.7430   44.6810   37.6780 C.2   209  ASP209      0.2293
     76  O         24.2910   44.1370   38.6950 O.2   209  ASP209     -0.2864
     77  CB        24.2010   44.9340   35.2130 C.3   209  ASP209      0.1436
     78  CG        25.3350   45.6200   34.4660 C.2   209  ASP209      0.3671
     79  OD1       26.2300   46.2160   35.0970 O.co2 209  ASP209     -0.2456
     80  OD2       25.2920   45.5940   33.2110 O.co2 209  ASP209     -0.2456
     81  N         20.9260   46.3910   34.0980 N.3   219  GLU219     -0.1245
     82  CA        20.1740   45.5030   33.2000 C.3   219  GLU219      0.1567
     83  C         18.7310   45.9940   33.0680 C.2   219  GLU219      0.2260
     84  O         18.1700   46.0370   31.9670 O.2   219  GLU219     -0.2867
     85  CB        20.1990   44.0500   33.7180 C.3   219  GLU219      0.0388
     86  CG        19.4830   43.0370   32.8350 C.3   219  GLU219      0.1160
     87  CD        20.2920   42.6230   31.6450 C.2   219  GLU219      0.3649
     88  OE1       21.3530   43.2480   31.4130 O.co2 219  GLU219     -0.2457
     89  OE2       19.8590   41.6760   30.9410 O.co2 219  GLU219     -0.2457
     90  N         18.7020   49.1660   31.0050 N.3   222  LYS222     -0.1245
     91  CA        18.9520   48.8540   29.5960 C.3   222  LYS222      0.1561
     92  C         17.6500   48.4060   28.9340 C.2   222  LYS222      0.2260
     93  O         17.3480   48.8280   27.8180 O.2   222  LYS222     -0.2867
     94  CB        20.0490   47.7940   29.4260 C.3   222  LYS222      0.0271
     95  CG        21.4400   48.3520   29.6870 C.3   222  LYS222      0.0035
     96  CD        22.5540   47.3650   29.4130 C.3   222  LYS222      0.0206
     97  CE        22.8390   46.4690   30.5830 C.3   222  LYS222      0.1093
     98  NZ        24.2440   45.9410   30.5300 N.3   222  LYS222     -0.1314
     99  N         18.2840   36.5470   37.9880 N.3   244  ARG244     -0.1245
    100  CA        19.0050   35.3800   37.5060 C.3   244  ARG244      0.1563
    101  C         18.4490   34.1320   38.1970 C.2   244  ARG244      0.2260
    102  O         18.2280   34.1370   39.4020 O.2   244  ARG244     -0.2867
    103  CB        20.4950   35.5010   37.8410 C.3   244  ARG244      0.0307
    104  CG        21.3870   34.4930   37.0880 C.3   244  ARG244      0.0489
    105  CD        21.6630   34.9720   35.6590 C.3   244  ARG244      0.2205
    106  NE        22.5420   36.1420   35.6760 N.pl3 244  ARG244     -0.0865
    107  CZ        22.9410   36.7870   34.5870 C.cat 244  ARG244      0.5346
    108  NH1       22.5810   36.3490   33.3790 N.pl3 244  ARG244      0.1354
    109  NH2       23.7130   37.8630   34.7040 N.pl3 244  ARG244      0.1354
    110  N         16.5350   32.7180   28.2220 N.3   251  HIS251     -0.1241
    111  CA        15.8440   33.6270   29.1340 C.3   251  HIS251      0.1621
    112  C         14.3330   33.5000   28.9650 C.2   251  HIS251      0.2264
    113  O         13.8390   33.3180   27.8500 O.2   251  HIS251     -0.2867
    114  CB        16.1740   35.0940   28.8290 C.3   251  HIS251      0.0745
    115  CG        17.6040   35.4800   29.0680 C.ar  251  HIS251      0.0817
    116  ND1       18.4840   34.7410   29.8380 N.ar  251  HIS251     -0.2268
    117  CD2       18.2940   36.5720   28.6530 C.ar  251  HIS251      0.1154
    118  CE1       19.6540   35.3570   29.8750 C.ar  251  HIS251      0.1986
    119  NE2       19.5650   36.4710   29.1630 N.ar  251  HIS251     -0.2212
@<TRIPOS>BOND
     1     8     6   am
     2     1     2    1
     3     7     6    2
     4     6     5    1
     5     2     5    1
     6     2     3    1
     7    25    24    2
     8    24    23    1
     9    23    22    1
    10    23    26    1
    11     3     9   am
    12     3     4    2
    13     9    10    1
    14    27    26    1
    15    27    28    1
    16    12    11    2
    17    14    13    1
    18    15    13    1
    19    29    28    1
    20    29    30    2
    21    10    11    1
    22    10    13    1
    23    11    16   am
    24    33    34    1
    25    36    35    2
    26    32    30    1
    27    44    43    2
    28    30    31    1
    29    35    34    1
    30    35    41   am
    31    42    41    1
    32    42    43    1
    33    42    45    1
    34    34    37    1
    35    18    19    2
    36    18    17    1
    37    16    17    1
    38    17    20    1
    39    45    46    1
    40    40    38   am
    41    37    38    1
    42    20    21    1
    43    38    39    2
    44    93    92    2
    45   113   112    2
    46   110   111    1
    47   117   115   ar
    48   117   119   ar
    49   114   115    1
    50   114   111    1
    51    92    91    1
    52   112   111    1
    53   115   116   ar
    54   119   118   ar
    55    96    95    1
    56    96    97    1
    57    94    91    1
    58    94    95    1
    59    91    90    1
    60    57    56    1
    61    57    58    1
    62   116   118   ar
    63    59    58    2
    64    58    60   am
    65    98    97    1
    66    89    87   ar
    67    88    87   ar
    68    60    61    1
    69    87    86    1
    70    55    53   am
    71    62    61    1
    72    62    63    2
    73    84    83    2
    74    53    52    1
    75    53    54    2
    76    52    51    1
    77    61    64    1
    78    86    85    1
    79    51    48    1
    80    83    82    1
    81    48    49    1
    82    48    47    1
    83    82    85    1
    84    82    81    1
    85    80    78   ar
    86   108   107    1
    87    49    50    2
    88    78    79   ar
    89    78    77    1
    90    71    69    1
    91   107   109    1
    92   107   106    2
    93    77    74    1
    94    72    70    1
    95   105   106    1
    96   105   104    1
    97    69    70    1
    98    69    66    1
    99    74    73    1
   100    74    75    1
   101    73    67   am
   102    67    68    2
   103    67    66    1
   104    66    65    1
   105   104   103    1
   106   100   103    1
   107   100    99    1
   108   100   101    1
   109    75    76    2
   110   101   102    2
