@<TRIPOS>MOLECULE
tmp/3pwsA00.pdb
 119 110 0 0 0
SMALL
GASTEIGER

@<TRIPOS>ATOM
      1  N         -4.9050   23.2900   55.6950 N.3    93  ASN93      -0.1225
      2  CA        -3.8560   23.7920   54.8080 C.3    93  ASN93       0.1785
      3  C         -4.1420   23.5330   53.3240 C.2    93  ASN93       0.2598
      4  O         -3.2510   23.6550   52.4800 O.2    93  ASN93      -0.2718
      5  CB        -2.5100   23.1760   55.2020 C.3    93  ASN93       0.1169
      6  CG        -1.3550   24.1370   55.0340 C.2    93  ASN93       0.2627
      7  OD1       -1.1400   24.6940   53.9570 O.2    93  ASN93      -0.2716
      8  ND2       -0.5960   24.3310   56.1050 N.am   93  ASN93      -0.0877
      9  N         -5.3870   23.1860   53.0090 N.am   94  THR94      -0.1939
     10  CA        -5.7950   22.9400   51.6250 C.3    94  THR94       0.2028
     11  C         -6.6720   24.0750   51.1030 C.2    94  THR94       0.2642
     12  O         -7.0540   24.9730   51.8570 O.2    94  THR94      -0.2714
     13  CB        -6.5520   21.6000   51.4690 C.3    94  THR94       0.1808
     14  OG1       -7.9040   21.7490   51.9220 O.3    94  THR94      -0.2208
     15  CG2       -5.8560   20.4790   52.2470 C.3    94  THR94       0.0379
     16  N         -6.9940   24.0190   49.8140 N.am   95  SER95      -0.1949
     17  CA        -7.8000   25.0540   49.1720 C.3    95  SER95       0.1924
     18  C         -9.3070   24.8240   49.3050 C.2    95  SER95       0.2314
     19  O        -10.0980   25.6960   48.9440 O.2    95  SER95      -0.2863
     20  CB        -7.4190   25.1840   47.6940 C.3    95  SER95       0.2116
     21  OG        -7.6430   23.9680   47.0030 O.3    95  SER95      -0.2180
     22  N        -11.4400   27.3180   51.6580 N.3    98  ARG98      -0.1245
     23  CA       -10.9550   28.7040   51.6340 C.3    98  ARG98       0.1563
     24  C        -11.9920   29.7500   51.2230 C.2    98  ARG98       0.2260
     25  O        -12.0160   30.8470   51.7810 O.2    98  ARG98      -0.2867
     26  CB        -9.7150   28.8270   50.7450 C.3    98  ARG98       0.0307
     27  CG        -8.4900   28.1290   51.2980 C.3    98  ARG98       0.0489
     28  CD        -7.2540   28.4800   50.4920 C.3    98  ARG98       0.2205
     29  NE        -6.0990   27.7040   50.9270 N.pl3  98  ARG98      -0.0865
     30  CZ        -5.1120   27.3070   50.1300 C.cat  98  ARG98       0.5346
     31  NH1       -5.1250   27.6050   48.8360 N.pl3  98  ARG98       0.1354
     32  NH2       -4.1100   26.6020   50.6330 N.pl3  98  ARG98       0.1354
     33  N         -3.0460   29.8830   50.5010 N.3   126  ASN126     -0.1225
     34  CA        -2.0100   29.3400   49.6250 C.3   126  ASN126      0.1785
     35  C         -0.6530   29.9450   49.9630 C.2   126  ASN126      0.2597
     36  O         -0.5750   31.1130   50.3400 O.2   126  ASN126     -0.2718
     37  CB        -2.3540   29.6260   48.1620 C.3   126  ASN126      0.1169
     38  CG        -1.7590   28.6040   47.2040 C.2   126  ASN126      0.2627
     39  OD1       -1.1350   27.6250   47.6180 O.2   126  ASN126     -0.2716
     40  ND2       -1.9580   28.8280   45.9140 N.am  126  ASN126     -0.0877
     41  N          0.4060   29.1490   49.8260 N.am  127  CYS127     -0.1970
     42  CA         1.7640   29.5900   50.1710 C.3   127  CYS127      0.1712
     43  C          2.2100   30.8400   49.4140 C.2   127  CYS127      0.2296
     44  O          2.8090   31.7450   50.0030 O.2   127  CYS127     -0.2864
     45  CB         2.7860   28.4510   50.0200 C.3   127  CYS127      0.0983
     46  SG         2.6010   27.3780   48.5750 S.3   127  CYS127     -0.0798
     47  N          8.4270   30.0480   42.0730 N.3   154  GLN154     -0.1245
     48  CA         8.0460   29.1080   43.1310 C.3   154  GLN154      0.1566
     49  C          8.8880   27.8410   43.2170 C.2   154  GLN154      0.2260
     50  O          9.2730   27.2540   42.2010 O.2   154  GLN154     -0.2867
     51  CB         6.5480   28.7840   43.0610 C.3   154  GLN154      0.0367
     52  CG         5.6640   29.9630   43.4960 C.3   154  GLN154      0.0905
     53  CD         4.1830   29.7330   43.2530 C.2   154  GLN154      0.2608
     54  OE1        3.5400   30.4950   42.5330 O.2   154  GLN154     -0.2717
     55  NE2        3.6330   28.6780   43.8520 N.am  154  GLN154     -0.0878
     56  N          6.4330   22.9210   47.1330 N.3   158  GLY158     -0.1210
     57  CA         5.0160   23.2770   47.1630 C.3   158  GLY158      0.1956
     58  C          4.1380   22.1770   46.5940 C.2   158  GLY158      0.2611
     59  O          3.0120   21.9770   47.0470 O.2   158  GLY158     -0.2717
     60  N          4.6630   21.4580   45.6040 N.am  159  ALA159     -0.1979
     61  CA         3.9430   20.3520   44.9690 C.3   159  ALA159      0.1597
     62  C          4.0730   19.0410   45.7500 C.2   159  ALA159      0.2287
     63  O          3.5000   18.0200   45.3620 O.2   159  ALA159     -0.2864
     64  CB         4.4130   20.1720   43.5380 C.3   159  ALA159      0.0319
     65  N          1.3690   26.2540   37.3740 N.3   208  ILE208     -0.1231
     66  CA         1.2550   25.6710   38.7060 C.3   208  ILE208      0.1692
     67  C         -0.2270   25.3990   38.9280 C.2   208  ILE208      0.2592
     68  O         -1.0600   26.2920   38.7420 O.2   208  ILE208     -0.2718
     69  CB         1.8520   26.6030   39.7980 C.3   208  ILE208      0.0266
     70  CG1        3.3630   26.7610   39.5770 C.3   208  ILE208      0.0019
     71  CG2        1.5670   26.0530   41.1960 C.3   208  ILE208      0.0020
     72  CD1        4.0240   27.8360   40.4020 C.3   208  ILE208      0.0001
     73  N         -0.5500   24.1590   39.2990 N.am  209  ASP209     -0.1974
     74  CA        -1.9340   23.6650   39.3330 C.3   209  ASP209      0.1709
     75  C         -2.4640   23.5390   37.8970 C.2   209  ASP209      0.2293
     76  O         -1.7010   23.6810   36.9380 O.2   209  ASP209     -0.2864
     77  CB        -2.8330   24.5720   40.1930 C.3   209  ASP209      0.1436
     78  CG        -3.9230   23.8020   40.9290 C.2   209  ASP209      0.3671
     79  OD1       -4.4630   22.8200   40.3700 O.co2 209  ASP209     -0.2456
     80  OD2       -4.2500   24.1900   42.0730 O.co2 209  ASP209     -0.2456
     81  N         -3.7200   28.2940   40.5820 N.3   219  GLU219     -0.1245
     82  CA        -2.7400   28.9520   41.4520 C.3   219  GLU219      0.1567
     83  C         -2.8110   30.4710   41.3230 C.2   219  GLU219      0.2260
     84  O         -2.8290   31.1880   42.3270 O.2   219  GLU219     -0.2867
     85  CB        -1.3230   28.4560   41.1400 C.3   219  GLU219      0.0388
     86  CG        -0.2180   29.0240   42.0450 C.3   219  GLU219      0.1160
     87  CD        -0.0950   28.3080   43.3830 C.2   219  GLU219      0.3649
     88  OE1       -0.9420   27.4430   43.6940 O.co2 219  GLU219     -0.2457
     89  OE2        0.8620   28.6120   44.1290 O.co2 219  GLU219     -0.2457
     90  N         -6.1750   31.6530   42.6820 N.3   222  LYS222     -0.1245
     91  CA        -6.1620   31.5810   44.1440 C.3   222  LYS222      0.1561
     92  C         -5.4850   32.8070   44.7460 C.2   222  LYS222      0.2260
     93  O         -5.9790   33.3680   45.7230 O.2   222  LYS222     -0.2867
     94  CB        -5.5070   30.2890   44.6380 C.3   222  LYS222      0.0271
     95  CG        -6.4380   29.0820   44.5840 C.3   222  LYS222      0.0035
     96  CD        -5.7830   27.8150   45.1170 C.3   222  LYS222      0.0206
     97  CE        -4.7850   27.2240   44.1270 C.3   222  LYS222      0.1093
     98  NZ        -4.2960   25.8850   44.5640 N.3   222  LYS222     -0.1314
     99  N          7.0420   27.8750   38.1330 N.3   244  ARG244     -0.1245
    100  CA         7.9180   26.9880   38.8910 C.3   244  ARG244      0.1563
    101  C          9.3480   27.0800   38.3700 C.2   244  ARG244      0.2260
    102  O          9.5830   27.0230   37.1590 O.2   244  ARG244     -0.2867
    103  CB         7.4300   25.5400   38.8080 C.3   244  ARG244      0.0307
    104  CG         8.0540   24.6000   39.8470 C.3   244  ARG244      0.0489
    105  CD         7.3440   24.6930   41.1980 C.3   244  ARG244      0.2205
    106  NE         5.9800   24.1710   41.1260 N.pl3 244  ARG244     -0.0865
    107  CZ         5.0740   24.2690   42.0970 C.cat 244  ARG244      0.5346
    108  NH1        5.3670   24.8750   43.2440 N.pl3 244  ARG244      0.1354
    109  NH2        3.8650   23.7580   41.9150 N.pl3 244  ARG244      0.1354
    110  N          9.5950   30.3490   48.1510 N.3   251  HIS251     -0.1241
    111  CA         9.0600   31.0700   46.9960 C.3   251  HIS251      0.1621
    112  C          9.6280   32.4840   46.9270 C.2   251  HIS251      0.2264
    113  O          9.8280   33.1380   47.9530 O.2   251  HIS251     -0.2867
    114  CB         7.5280   31.1750   47.0580 C.3   251  HIS251      0.0745
    115  CG         6.8080   29.8620   46.9720 C.ar  251  HIS251      0.0817
    116  ND1        7.3800   28.7220   46.4480 N.ar  251  HIS251     -0.2268
    117  CD2        5.5380   29.5250   47.3040 C.ar  251  HIS251      0.1154
    118  CE1        6.5030   27.7340   46.4840 C.ar  251  HIS251      0.1986
    119  NE2        5.3770   28.1960   46.9970 N.ar  251  HIS251     -0.2212
@<TRIPOS>BOND
     1    76    75    2
     2   102   101    2
     3    65    66    1
     4    75    74    1
     5    99   100    1
     6   101   100    1
     7    66    67    1
     8    66    69    1
     9    68    67    2
    10   103   100    1
    11   103   104    1
    12    67    73   am
    13    73    74    1
    14    74    77    1
    15    70    69    1
    16    70    72    1
    17    69    71    1
    18   104   105    1
    19    77    78    1
    20    79    78   ar
    21    81    82    1
    22    78    80   ar
    23   106   105    1
    24   106   107    2
    25    85    82    1
    26    85    86    1
    27    83    82    1
    28    83    84    2
    29   109   107    1
    30    86    87    1
    31    47    48    1
    32   107   108    1
    33    50    49    2
    34    54    53    2
    35    90    91    1
    36    51    48    1
    37    51    52    1
    38    48    49    1
    39    53    52    1
    40    53    55   am
    41    87    88   ar
    42    87    89   ar
    43    64    61    1
    44    97    98    1
    45    97    96    1
    46    91    94    1
    47    91    92    1
    48    95    94    1
    49    95    96    1
    50    92    93    2
    51    61    60    1
    52    61    62    1
    53    63    62    2
    54    60    58   am
    55    40    38   am
    56   116   118   ar
    57   116   115   ar
    58   118   119   ar
    59    58    59    2
    60    58    57    1
    61   112   111    1
    62   112   113    2
    63   115   114    1
    64   115   117   ar
    65   111   114    1
    66   111   110    1
    67   119   117   ar
    68    21    20    1
    69    56    57    1
    70    38    39    2
    71    38    37    1
    72    20    17    1
    73    37    34    1
    74    46    45    1
    75    31    30    1
    76    19    18    2
    77    17    18    1
    78    17    16    1
    79    43    44    2
    80    43    42    1
    81    34    35    1
    82    34    33    1
    83    16    11   am
    84    41    35   am
    85    41    42    1
    86    35    36    2
    87    45    42    1
    88    30    32    1
    89    30    29    2
    90    28    29    1
    91    28    27    1
    92    26    27    1
    93    26    23    1
    94    11    10    1
    95    11    12    2
    96    24    23    1
    97    24    25    2
    98    13    10    1
    99    13    14    1
   100    13    15    1
   101    10     9    1
   102    23    22    1
   103     4     3    2
   104     9     3   am
   105     3     2    1
   106     7     6    2
   107     2     5    1
   108     2     1    1
   109     6     5    1
   110     6     8   am
