@<TRIPOS>MOLECULE
tmp/3pwyA00.pdb
 130 119 0 0 0
SMALL
GASTEIGER

@<TRIPOS>ATOM
      1  N         87.9920   25.1620    3.9250 N.3    18  LEU18      -0.1231
      2  CA        88.2330   24.5240    5.2120 C.3    18  LEU18       0.1693
      3  C         86.9300   24.1970    5.9280 C.2    18  LEU18       0.2592
      4  O         86.8270   23.1680    6.6000 O.2    18  LEU18      -0.2718
      5  CB        89.1060   25.4170    6.0930 C.3    18  LEU18       0.0284
      6  CG        90.5460   25.6410    5.6310 C.3    18  LEU18       0.0019
      7  CD1       91.1310   26.8590    6.3160 C.3    18  LEU18       0.0001
      8  CD2       91.3960   24.4030    5.8880 C.3    18  LEU18       0.0001
      9  N         85.9430   25.0760    5.7830 N.am   19  GLY19      -0.1957
     10  CA        84.6430   24.8870    6.4150 C.3    19  GLY19       0.1869
     11  C         83.5410   25.6780    5.7440 C.2    19  GLY19       0.2309
     12  O         83.7870   26.7480    5.1810 O.2    19  GLY19      -0.2863
     13  N         84.5320   29.4430    4.9210 N.3    26  VAL26      -0.1245
     14  CA        85.9220   29.6300    5.3640 C.3    26  VAL26       0.1561
     15  C         86.9140   28.9710    4.4040 C.2    26  VAL26       0.2260
     16  O         86.9280   27.7460    4.2480 O.2    26  VAL26      -0.2867
     17  CB        86.1530   29.1310    6.8170 C.3    26  VAL26       0.0252
     18  CG1       87.6290   29.1760    7.1720 C.3    26  VAL26       0.0019
     19  CG2       85.3470   29.9670    7.8090 C.3    26  VAL26       0.0019
     20  N         93.1900   31.7940    7.4520 N.3    39  ALA39      -0.1245
     21  CA        91.9000   31.2230    7.1140 C.3    39  ALA39       0.1562
     22  C         90.8850   32.3490    7.0270 C.2    39  ALA39       0.2260
     23  O         90.4070   32.8530    8.0470 O.2    39  ALA39      -0.2867
     24  CB        91.4850   30.2070    8.1380 C.3    39  ALA39       0.0290
     25  N         87.4450   33.7950    6.6090 N.3    41  LYS41      -0.1245
     26  CA        86.0040   33.5700    6.6420 C.3    41  LYS41       0.1561
     27  C         85.3480   34.5680    5.7000 C.2    41  LYS41       0.2260
     28  O         85.5500   35.7760    5.8330 O.2    41  LYS41      -0.2867
     29  CB        85.4550   33.7320    8.0670 C.3    41  LYS41       0.0271
     30  CG        83.9250   33.8320    8.1560 C.3    41  LYS41       0.0035
     31  CD        83.4130   33.8020    9.5930 C.3    41  LYS41       0.0206
     32  CE        83.2920   32.3740   10.1080 C.3    41  LYS41       0.1093
     33  NZ        82.5930   32.2940   11.4190 N.3    41  LYS41      -0.1314
     34  N         80.8530   38.6810   16.5920 N.3    60  GLU60      -0.1245
     35  CA        81.9590   37.7810   16.2660 C.3    60  GLU60       0.1567
     36  C         83.2410   38.5590   15.9910 C.2    60  GLU60       0.2260
     37  O         84.3220   38.1490   16.4080 O.2    60  GLU60      -0.2867
     38  CB        81.6080   36.9130   15.0540 C.3    60  GLU60       0.0388
     39  CG        82.6390   35.8330   14.7340 C.3    60  GLU60       0.1160
     40  CD        82.2380   34.9540   13.5620 C.2    60  GLU60       0.3649
     41  OE1       81.8260   35.4960   12.5120 O.co2  60  GLU60      -0.2457
     42  OE2       82.3470   33.7150   13.6930 O.co2  60  GLU60      -0.2457
     43  N         91.5590   31.8000   18.8230 N.3    73  VAL73      -0.1245
     44  CA        91.8200   32.1360   17.4220 C.3    73  VAL73       0.1561
     45  C         91.8720   33.6510   17.2340 C.2    73  VAL73       0.2260
     46  O         90.9430   34.3620   17.6170 O.2    73  VAL73      -0.2867
     47  CB        90.7480   31.5160   16.4850 C.3    73  VAL73       0.0252
     48  CG1       91.0070   31.8860   15.0340 C.3    73  VAL73       0.0019
     49  CG2       90.7130   30.0050   16.6350 C.3    73  VAL73       0.0019
     50  N         91.2710   35.2710    9.8210 N.3    89  LEU89      -0.1231
     51  CA        91.4760   34.4850   11.0330 C.3    89  LEU89       0.1693
     52  C         92.7040   33.5850   10.9040 C.2    89  LEU89       0.2593
     53  O         93.1720   33.3230    9.7920 O.2    89  LEU89      -0.2718
     54  CB        90.2210   33.6620   11.3390 C.3    89  LEU89       0.0284
     55  CG        88.9030   34.4440   11.4330 C.3    89  LEU89       0.0019
     56  CD1       87.7090   33.5110   11.3800 C.3    89  LEU89       0.0001
     57  CD2       88.8490   35.3040   12.6870 C.3    89  LEU89       0.0001
     58  N         93.2300   33.1280   12.0400 N.am   90  SER90      -0.1938
     59  CA        94.3910   32.2370   12.0450 C.3    90  SER90       0.2055
     60  C         94.0190   30.8270   11.5870 C.2    90  SER90       0.2643
     61  O         92.8900   30.3780   11.7830 O.2    90  SER90      -0.2714
     62  CB        95.0590   32.1990   13.4240 C.3    90  SER90       0.2130
     63  OG        94.2940   31.4540   14.3530 O.3    90  SER90      -0.2179
     64  N         94.9830   30.1430   10.9790 N.am   91  TYR91      -0.1959
     65  CA        94.7660   28.8270   10.3930 C.3    91  TYR91       0.1771
     66  C         95.1370   27.7110   11.3700 C.2    91  TYR91       0.2619
     67  O         96.3160   27.5020   11.6780 O.2    91  TYR91      -0.2715
     68  CB        95.5480   28.7140    9.0760 C.3    91  TYR91       0.0574
     69  CG        95.5180   27.3600    8.3950 C.ar   91  TYR91      -0.0198
     70  CD1       94.3220   26.6700    8.2120 C.ar   91  TYR91      -0.0009
     71  CD2       96.6890   26.7840    7.9030 C.ar   91  TYR91      -0.0009
     72  CE1       94.2950   25.4290    7.5830 C.ar   91  TYR91       0.0417
     73  CE2       96.6710   25.5440    7.2650 C.ar   91  TYR91       0.0417
     74  CZ        95.4700   24.8730    7.1090 C.ar   91  TYR91       0.1957
     75  OH        95.4380   23.6480    6.4820 O.3    91  TYR91      -0.2866
     76  N         94.1180   27.0080   11.8620 N.am   92  ALA92      -0.1977
     77  CA        94.3080   25.8690   12.7570 C.3    92  ALA92       0.1597
     78  C         94.6150   24.6290   11.9310 C.2    92  ALA92       0.2287
     79  O         93.7050   23.9700   11.4190 O.2    92  ALA92      -0.2864
     80  CB        93.0710   25.6560   13.6150 C.3    92  ALA92       0.0319
     81  N         93.0360   20.9440   12.9140 N.3    95  GLY95      -0.1210
     82  CA        91.5780   20.8520   12.8030 C.3    95  GLY95       0.1956
     83  C         90.8290   20.7730   14.1200 C.2    95  GLY95       0.2612
     84  O         91.3260   21.2240   15.1530 O.2    95  GLY95      -0.2717
     85  N         89.6280   20.1950   14.0710 N.am   96  CYS96      -0.1970
     86  CA        88.7460   20.0660   15.2370 C.3    96  CYS96       0.1712
     87  C         89.3360   19.1670   16.3120 C.2    96  CYS96       0.2296
     88  O         90.1420   18.2800   16.0220 O.2    96  CYS96      -0.2864
     89  CB        87.3910   19.4850   14.8260 C.3    96  CYS96       0.0983
     90  SG        86.5810   20.3120   13.4470 S.3    96  CYS96      -0.0798
     91  N         87.1410   17.4030   18.0050 N.3    98  LEU98      -0.1245
     92  CA        86.2320   16.3150   17.6630 C.3    98  LEU98       0.1561
     93  C         86.8460   15.3880   16.6210 C.2    98  LEU98       0.2260
     94  O         86.6810   14.1700   16.6970 O.2    98  LEU98      -0.2867
     95  CB        84.8970   16.8760   17.1660 C.3    98  LEU98       0.0270
     96  CG        83.7970   15.9290   16.6830 C.3    98  LEU98       0.0019
     97  CD1       83.4550   14.8620   17.7200 C.3    98  LEU98       0.0001
     98  CD2       82.5690   16.7430   16.3120 C.3    98  LEU98       0.0001
     99  N         83.8230   20.6570   18.4220 N.3   139  GLU139     -0.1245
    100  CA        83.8940   21.2170   17.0730 C.3   139  GLU139      0.1567
    101  C         84.4960   22.6280   17.0860 C.2   139  GLU139      0.2260
    102  O         85.2920   22.9780   16.2110 O.2   139  GLU139     -0.2867
    103  CB        82.5060   21.2130   16.4210 C.3   139  GLU139      0.0388
    104  CG        82.4810   21.6940   14.9710 C.3   139  GLU139      0.1160
    105  CD        81.2680   21.2070   14.1870 C.2   139  GLU139      0.3649
    106  OE1       80.3040   20.6990   14.8010 O.co2 139  GLU139     -0.2457
    107  OE2       81.2870   21.3350   12.9430 O.co2 139  GLU139     -0.2457
    108  N         89.6200   24.1350   18.2830 N.3   142  LEU142     -0.1245
    109  CA        90.5000   23.8000   17.1680 C.3   142  LEU142      0.1561
    110  C         91.9470   23.6700   17.6150 C.2   142  LEU142      0.2260
    111  O         92.3240   24.1760   18.6700 O.2   142  LEU142     -0.2867
    112  CB        90.3930   24.8450   16.0570 C.3   142  LEU142      0.0270
    113  CG        89.0270   25.1520   15.4390 C.3   142  LEU142      0.0019
    114  CD1       89.1790   26.3100   14.4740 C.3   142  LEU142      0.0001
    115  CD2       88.4070   23.9350   14.7480 C.3   142  LEU142      0.0001
    116  N         87.2730   28.7500   18.8330 N.3   152  THR152     -0.1203
    117  CA        86.6730   29.6150   17.8170 C.3   152  THR152      0.1994
    118  C         85.1490   29.7330   17.9680 C.2   152  THR152      0.2617
    119  O         84.5720   29.1600   18.8950 O.2   152  THR152     -0.2717
    120  CB        87.0620   29.1680   16.3860 C.3   152  THR152      0.1784
    121  OG1       86.8980   30.2660   15.4820 O.3   152  THR152     -0.2211
    122  CG2       86.2200   27.9820   15.9180 C.3   152  THR152      0.0376
    123  N         84.5210   30.4810   17.0540 N.am  153  ASP153     -0.1973
    124  CA        83.0670   30.7210   17.0280 C.3   153  ASP153      0.1709
    125  C         82.6010   31.5740   18.2080 C.2   153  ASP153      0.2293
    126  O         82.3570   31.0660   19.3030 O.2   153  ASP153     -0.2864
    127  CB        82.2720   29.4040   16.9280 C.3   153  ASP153      0.1436
    128  CG        80.7590   29.6200   16.8520 C.2   153  ASP153      0.3671
    129  OD1       80.3090   30.7580   16.5970 O.co2 153  ASP153     -0.2456
    130  OD2       80.0140   28.6350   17.0410 O.co2 153  ASP153     -0.2456
@<TRIPOS>BOND
     1     1     2    1
     2    16    15    2
     3    15    14    1
     4    13    14    1
     5    12    11    2
     6     2     3    1
     7     2     5    1
     8    14    17    1
     9     6     8    1
    10     6     5    1
    11     6     7    1
    12    27    28    2
    13    27    26    1
    14    11    10    1
    15     9     3   am
    16     9    10    1
    17     3     4    2
    18    75    74    1
    19    25    26    1
    20    26    29    1
    21    17    18    1
    22    17    19    1
    23    22    21    1
    24    22    23    2
    25    74    73   ar
    26    74    72   ar
    27    21    20    1
    28    21    24    1
    29    73    71   ar
    30    72    70   ar
    31    71    69   ar
    32    29    30    1
    33    30    31    1
    34    70    69   ar
    35    69    68    1
    36    68    65    1
    37    31    32    1
    38    53    52    2
    39    50    51    1
    40    32    33    1
    41    65    64    1
    42    65    66    1
    43    52    51    1
    44    52    58   am
    45    64    60   am
    46    51    54    1
    47    54    55    1
    48    66    67    2
    49    66    76   am
    50    56    55    1
    51    79    78    2
    52    55    57    1
    53    60    61    2
    54    60    59    1
    55    76    77    1
    56    78    77    1
    57    58    59    1
    58    59    62    1
    59    41    40   ar
    60    77    80    1
    61    82    81    1
    62    82    83    1
    63   107   105   ar
    64    62    63    1
    65    90    89    1
    66    40    42   ar
    67    40    39    1
    68    85    83   am
    69    85    86    1
    70    83    84    2
    71   105   106   ar
    72   105   104    1
    73   114   113    1
    74    39    38    1
    75   115   113    1
    76    89    86    1
    77   104   103    1
    78    48    47    1
    79    38    35    1
    80    86    87    1
    81   113   112    1
    82   121   120    1
    83   122   120    1
    84    36    35    1
    85    36    37    2
    86    88    87    2
    87   112   109    1
    88   102   101    2
    89    35    34    1
    90    98    96    1
    91   120   117    1
    92   103   100    1
    93    47    49    1
    94    47    44    1
    95   129   128   ar
    96    93    94    2
    97    93    92    1
    98    96    95    1
    99    96    97    1
   100   128   127    1
   101   128   130   ar
   102   127   124    1
   103   124   123    1
   104   124   125    1
   105   123   118   am
   106   100   101    1
   107   100    99    1
   108    95    92    1
   109   109   110    1
   110   109   108    1
   111    45    44    1
   112    45    46    2
   113    44    43    1
   114   110   111    2
   115    92    91    1
   116   117   118    1
   117   117   116    1
   118   118   119    2
   119   125   126    2
