@<TRIPOS>MOLECULE
tmp/3px0A00.pdb
 172 166 0 0 0
SMALL
GASTEIGER

@<TRIPOS>ATOM
      1  N        125.2630  -34.9930   30.8930 N.3   318  ARG318     -0.1245
      2  CA       125.0860  -35.3420   32.3030 C.3   318  ARG318      0.1563
      3  C        124.2490  -36.6160   32.4630 C.2   318  ARG318      0.2260
      4  O        123.5110  -36.9980   31.5620 O.2   318  ARG318     -0.2867
      5  CB       124.3840  -34.2050   33.0480 C.3   318  ARG318      0.0307
      6  CG       125.3260  -33.0780   33.5020 C.3   318  ARG318      0.0489
      7  CD       124.6120  -32.1340   34.4280 C.3   318  ARG318      0.2205
      8  NE       125.5330  -31.1860   35.0630 N.pl3 318  ARG318     -0.0865
      9  CZ       125.1550  -30.3400   36.0080 C.cat 318  ARG318      0.5346
     10  NH1      123.8870  -30.3360   36.4060 N.pl3 318  ARG318      0.1354
     11  NH2      126.0320  -29.4990   36.5410 N.pl3 318  ARG318      0.1354
     12  N        134.3740  -33.8850   45.9420 N.3   356  ASP356     -0.1225
     13  CA       133.7070  -32.8900   45.1130 C.3   356  ASP356      0.1805
     14  C        134.7220  -32.0320   44.3650 C.2   356  ASP356      0.2598
     15  O        135.6730  -31.5300   44.9640 O.2   356  ASP356     -0.2718
     16  CB       132.8440  -32.0040   46.0070 C.3   356  ASP356      0.1424
     17  CG       131.9860  -31.0450   45.2250 C.2   356  ASP356      0.3668
     18  OD1      132.2420  -30.8710   44.0200 O.co2 356  ASP356     -0.2456
     19  OD2      131.0600  -30.4610   45.8190 O.co2 356  ASP356     -0.2456
     20  N        134.5180  -31.8610   43.0600 N.am  357  TYR357     -0.1962
     21  CA       135.3690  -30.9670   42.2690 C.3   357  TYR357      0.1771
     22  C        135.2180  -29.5230   42.7230 C.2   357  TYR357      0.2620
     23  O        134.1140  -29.0530   42.9340 O.2   357  TYR357     -0.2715
     24  CB       135.0090  -31.0290   40.7860 C.3   357  TYR357      0.0574
     25  CG       135.6120  -32.1910   40.0610 C.ar  357  TYR357     -0.0198
     26  CD1      134.8220  -33.2440   39.6130 C.ar  357  TYR357     -0.0009
     27  CD2      136.9760  -32.2470   39.8230 C.ar  357  TYR357     -0.0009
     28  CE1      135.3680  -34.3110   38.9560 C.ar  357  TYR357      0.0417
     29  CE2      137.5340  -33.3140   39.1650 C.ar  357  TYR357      0.0417
     30  CZ       136.7290  -34.3400   38.7260 C.ar  357  TYR357      0.1957
     31  OH       137.2760  -35.4000   38.0610 O.3   357  TYR357     -0.2866
     32  N        136.3230  -28.8020   42.8600 N.am  358  SER358     -0.1936
     33  CA       136.2380  -27.3810   43.1760 C.3   358  SER358      0.2055
     34  C        136.0040  -26.5820   41.8910 C.2   358  SER358      0.2643
     35  O        136.7530  -26.7280   40.9250 O.2   358  SER358     -0.2714
     36  CB       137.5210  -26.9110   43.8760 C.3   358  SER358      0.2130
     37  OG       137.4090  -25.5600   44.2940 O.3   358  SER358     -0.2179
     38  N        134.9400  -25.7800   41.8770 N.am  359  GLN359     -0.1963
     39  CA       134.7050  -24.7970   40.8160 C.3   359  GLN359      0.1733
     40  C        134.7690  -25.3930   39.4110 C.2   359  GLN359      0.2616
     41  O        135.1410  -24.7030   38.4580 O.2   359  GLN359     -0.2715
     42  CB       135.7430  -23.6790   40.9400 C.3   359  GLN359      0.0408
     43  CG       135.9020  -23.1650   42.3670 C.3   359  GLN359      0.0908
     44  CD       137.0790  -22.2210   42.5250 C.2   359  GLN359      0.2608
     45  OE1      137.0480  -21.0810   42.0480 O.2   359  GLN359     -0.2717
     46  NE2      138.1260  -22.6910   43.1990 N.am  359  GLN359     -0.0878
     47  N        134.3770  -26.6580   39.2810 N.am  360  ILE360     -0.1963
     48  CA       134.7160  -27.4440   38.1010 C.3   360  ILE360      0.1727
     49  C        134.4670  -26.6930   36.8000 C.2   360  ILE360      0.2616
     50  O        135.3570  -26.6030   35.9590 O.2   360  ILE360     -0.2715
     51  CB       133.9910  -28.8030   38.0630 C.3   360  ILE360      0.0290
     52  CG1      134.5330  -29.6560   36.9110 C.3   360  ILE360      0.0022
     53  CG2      132.4820  -28.6080   37.9140 C.3   360  ILE360      0.0023
     54  CD1      136.0300  -29.9290   36.9870 C.3   360  ILE360      0.0001
     55  N        133.2730  -26.1510   36.6160 N.am  361  GLU361     -0.1963
     56  CA       132.9450  -25.5910   35.3080 C.3   361  GLU361      0.1733
     57  C        133.6770  -24.2750   35.0320 C.2   361  GLU361      0.2616
     58  O        133.9200  -23.9370   33.8720 O.2   361  GLU361     -0.2715
     59  CB       131.4350  -25.4670   35.1110 C.3   361  GLU361      0.0429
     60  CG       130.8030  -26.8040   34.7030 C.3   361  GLU361      0.1163
     61  CD       129.2810  -26.7740   34.6550 C.2   361  GLU361      0.3649
     62  OE1      128.7190  -25.7250   34.2820 O.co2 361  GLU361     -0.2457
     63  OE2      128.6540  -27.8080   35.0000 O.co2 361  GLU361     -0.2457
     64  N        134.0650  -23.5580   36.0850 N.am  362  LEU362     -0.1977
     65  CA       134.9020  -22.3680   35.9110 C.3   362  LEU362      0.1596
     66  C        136.3070  -22.7560   35.4630 C.2   362  LEU362      0.2287
     67  O        136.9250  -22.0380   34.6820 O.2   362  LEU362     -0.2864
     68  CB       134.9740  -21.5370   37.1930 C.3   362  LEU362      0.0297
     69  CG       133.7170  -20.7290   37.5150 C.3   362  LEU362      0.0022
     70  CD1      133.8800  -20.0040   38.8340 C.3   362  LEU362      0.0001
     71  CD2      133.3950  -19.7540   36.4100 C.3   362  LEU362      0.0001
     72  N        128.8050  -17.3700   49.9410 N.3   383  ARG383     -0.1245
     73  CA       129.5920  -17.9830   48.8750 C.3   383  ARG383      0.1563
     74  C        128.6830  -18.7500   47.9190 C.2   383  ARG383      0.2260
     75  O        128.9470  -18.8180   46.7140 O.2   383  ARG383     -0.2867
     76  CB       130.6580  -18.9250   49.4460 C.3   383  ARG383      0.0307
     77  CG       131.5490  -19.5680   48.3760 C.3   383  ARG383      0.0489
     78  CD       132.5170  -20.5830   48.9720 C.3   383  ARG383      0.2205
     79  NE       133.3610  -21.2250   47.9590 N.pl3 383  ARG383     -0.0865
     80  CZ       133.1020  -22.4000   47.3840 C.cat 383  ARG383      0.5346
     81  NH1      132.0140  -23.0850   47.7120 N.pl3 383  ARG383      0.1354
     82  NH2      133.9360  -22.8940   46.4740 N.pl3 383  ARG383      0.1354
     83  N        128.5380  -18.1030   43.9650 N.3   387  LYS387     -0.1231
     84  CA       128.6880  -19.1920   42.9970 C.3   387  LYS387      0.1693
     85  C        127.6030  -19.1130   41.9260 C.2   387  LYS387      0.2591
     86  O        127.8720  -19.2600   40.7260 O.2   387  LYS387     -0.2718
     87  CB       128.6210  -20.5390   43.7240 C.3   387  LYS387      0.0285
     88  CG       128.6380  -21.7650   42.8140 C.3   387  LYS387      0.0035
     89  CD       128.2310  -23.0240   43.5740 C.3   387  LYS387      0.0206
     90  CE       129.1610  -23.3040   44.7460 C.3   387  LYS387      0.1093
     91  NZ       128.8030  -24.5690   45.4550 N.3   387  LYS387     -0.1314
     92  N        126.3740  -18.8750   42.3680 N.am  388  ALA388     -0.1980
     93  CA       125.2490  -18.7550   41.4510 C.3   388  ALA388      0.1597
     94  C        125.4440  -17.5520   40.5390 C.2   388  ALA388      0.2287
     95  O        125.1210  -17.6170   39.3550 O.2   388  ALA388     -0.2864
     96  CB       123.9440  -18.6380   42.2170 C.3   388  ALA388      0.0319
     97  N        128.3390  -18.3870   37.9010 N.3   391  TYR391     -0.1241
     98  CA       127.8500  -19.1980   36.8000 C.3   391  TYR391      0.1605
     99  C        126.7770  -18.4600   36.0120 C.2   391  TYR391      0.2264
    100  O        126.6650  -18.6330   34.8000 O.2   391  TYR391     -0.2867
    101  CB       127.3690  -20.5590   37.3030 C.3   391  TYR391      0.0534
    102  CG       128.5410  -21.4230   37.6840 C.ar  391  TYR391     -0.0201
    103  CD1      129.4570  -21.8220   36.7260 C.ar  391  TYR391     -0.0009
    104  CD2      128.7560  -21.8070   38.9930 C.ar  391  TYR391     -0.0009
    105  CE1      130.5520  -22.5920   37.0530 C.ar  391  TYR391      0.0417
    106  CE2      129.8490  -22.5900   39.3360 C.ar  391  TYR391      0.0417
    107  CZ       130.7450  -22.9770   38.3590 C.ar  391  TYR391      0.1957
    108  OH       131.8450  -23.7480   38.6830 O.3   391  TYR391     -0.2866
    109  N        127.3590  -17.7010   31.8740 N.3   395  TYR395     -0.1241
    110  CA       126.3770  -18.4030   31.0470 C.3   395  TYR395      0.1605
    111  C        125.2410  -17.4930   30.5390 C.2   395  TYR395      0.2264
    112  O        124.1840  -17.9740   30.1170 O.2   395  TYR395     -0.2867
    113  CB       125.8100  -19.6000   31.8110 C.3   395  TYR395      0.0534
    114  CG       126.8210  -20.7080   32.0480 C.ar  395  TYR395     -0.0201
    115  CD1      127.7730  -21.0250   31.0890 C.ar  395  TYR395     -0.0009
    116  CD2      126.8290  -21.4350   33.2410 C.ar  395  TYR395     -0.0009
    117  CE1      128.7030  -22.0360   31.2980 C.ar  395  TYR395      0.0417
    118  CE2      127.7580  -22.4520   33.4610 C.ar  395  TYR395      0.0417
    119  CZ       128.7010  -22.7430   32.4850 C.ar  395  TYR395      0.1957
    120  OH       129.6280  -23.7560   32.6820 O.3   395  TYR395     -0.2866
    121  N        126.5910  -22.5000   27.1170 N.3   474  ASN474     -0.1240
    122  CA       126.6540  -23.3690   28.2940 C.3   474  ASN474      0.1653
    123  C        127.0120  -24.8220   27.9810 C.2   474  ASN474      0.2266
    124  O        127.8240  -25.4250   28.6790 O.2   474  ASN474     -0.2867
    125  CB       125.3220  -23.3170   29.0470 C.3   474  ASN474      0.1155
    126  CG       125.2620  -24.3160   30.1850 C.2   474  ASN474      0.2627
    127  OD1      124.7500  -25.4210   30.0230 O.2   474  ASN474     -0.2716
    128  ND2      125.8170  -23.9430   31.3330 N.am  474  ASN474     -0.0877
    129  N        129.2690  -27.2800   30.5320 N.3   478  GLN478     -0.1245
    130  CA       128.5880  -28.2570   31.3870 C.3   478  GLN478      0.1566
    131  C        128.8690  -29.6630   30.8570 C.2   478  GLN478      0.2260
    132  O        129.0890  -30.6090   31.6200 O.2   478  GLN478     -0.2867
    133  CB       127.0820  -27.9920   31.3960 C.3   478  GLN478      0.0367
    134  CG       126.3610  -28.8260   32.4580 C.3   478  GLN478      0.0905
    135  CD       124.8690  -28.7710   32.3220 C.2   478  GLN478      0.2608
    136  OE1      124.2540  -29.7480   31.9310 O.2   478  GLN478     -0.2717
    137  NE2      124.2760  -27.6320   32.6450 N.am  478  GLN478     -0.0878
    138  N        126.8650  -35.2610   39.7100 N.3   510  HIS510     -0.1226
    139  CA       127.1920  -34.2570   38.6950 C.3   510  HIS510      0.1752
    140  C        128.6620  -33.8630   38.7240 C.2   510  HIS510      0.2596
    141  O        129.3530  -33.9430   37.7070 O.2   510  HIS510     -0.2718
    142  CB       126.2820  -33.0450   38.8110 C.3   510  HIS510      0.0759
    143  CG       124.8280  -33.3800   38.6420 C.ar  510  HIS510      0.0818
    144  ND1      124.3660  -34.1570   37.6010 N.ar  510  HIS510     -0.2268
    145  CD2      123.7450  -33.0720   39.3920 C.ar  510  HIS510      0.1154
    146  CE1      123.0560  -34.2990   37.7080 C.ar  510  HIS510      0.1986
    147  NE2      122.6550  -33.6590   38.7930 N.ar  510  HIS510     -0.2212
    148  N        129.1440  -33.4520   39.8860 N.am  511  ASP511     -0.1960
    149  CA       130.5660  -33.1930   40.0330 C.3   511  ASP511      0.1840
    150  C        131.0580  -33.7080   41.3900 C.2   511  ASP511      0.2621
    151  O        132.0850  -33.2580   41.9090 O.2   511  ASP511     -0.2715
    152  CB       130.8060  -31.7030   39.9150 C.3   511  ASP511      0.1450
    153  CG       130.4710  -30.9620   41.1840 C.2   511  ASP511      0.3671
    154  OD1      129.4910  -31.3190   41.8860 O.co2 511  ASP511     -0.2456
    155  OD2      131.2180  -30.0160   41.4820 O.co2 511  ASP511     -0.2456
    156  N        130.3050  -34.6420   41.9650 N.am  512  GLU512     -0.1977
    157  CA       130.7070  -35.3050   43.2060 C.3   512  GLU512      0.1602
    158  C        130.5930  -36.8110   43.0400 C.2   512  GLU512      0.2287
    159  O        129.7560  -37.3040   42.2830 O.2   512  GLU512     -0.2864
    160  CB       129.8350  -34.8900   44.3970 C.3   512  GLU512      0.0415
    161  CG       129.1010  -33.5770   44.2720 C.3   512  GLU512      0.1163
    162  CD       128.0970  -33.3680   45.4090 C.2   512  GLU512      0.3649
    163  OE1      127.7050  -34.3630   46.0680 O.co2 512  GLU512     -0.2457
    164  OE2      127.6980  -32.2100   45.6430 O.co2 512  GLU512     -0.2457
    165  N        137.8400  -31.4420   46.7920 N.3   546  ASP546     -0.1239
    166  CA       137.6390  -31.4320   48.2370 C.3   546  ASP546      0.1674
    167  C        136.9740  -32.7390   48.6360 C.2   546  ASP546      0.2266
    168  O        136.1620  -33.2710   47.8840 O.2   546  ASP546     -0.2867
    169  CB       136.7530  -30.2510   48.6380 C.3   546  ASP546      0.1410
    170  CG       137.3440  -28.9140   48.2370 C.2   546  ASP546      0.3668
    171  OD1      138.5790  -28.8340   48.0760 O.co2 546  ASP546     -0.2456
    172  OD2      136.5760  -27.9390   48.0900 O.co2 546  ASP546     -0.2456
@<TRIPOS>BOND
     1   121   122    1
     2   123   122    1
     3   123   124    2
     4   122   125    1
     5   125   126    1
     6   127   126    2
     7   112   111    2
     8   126   128   am
     9   129   130    1
    10   111   110    1
    11   131   130    1
    12   131   132    2
    13     1     2    1
    14   110   113    1
    15   110   109    1
    16   115   117   ar
    17   115   114   ar
    18   117   119   ar
    19   130   133    1
    20   133   134    1
    21     4     3    2
    22   113   114    1
    23   136   135    2
    24   114   116   ar
    25     2     3    1
    26     2     5    1
    27   135   134    1
    28   135   137   am
    29   119   120    1
    30   119   118   ar
    31     5     6    1
    32   116   118   ar
    33     6     7    1
    34    58    57    2
    35    62    61   ar
    36     7     8    1
    37    61    60    1
    38    61    63   ar
    39    67    66    2
    40    60    59    1
    41   100    99    2
    42    57    56    1
    43    57    64   am
    44     8     9    2
    45    59    56    1
    46    56    55    1
    47    66    65    1
    48    65    64    1
    49    65    68    1
    50    50    49    2
    51     9    10    1
    52     9    11    1
    53    99    98    1
    54    71    69    1
    55    55    49   am
    56   103   105   ar
    57   103   102   ar
    58    49    48    1
    59    98   101    1
    60    98    97    1
    61    52    54    1
    62    52    51    1
    63   105   107   ar
    64    68    69    1
    65   101   102    1
    66    69    70    1
    67   144   146   ar
    68   144   143   ar
    69   102   104   ar
    70   141   140    2
    71   146   147   ar
    72    53    51    1
    73    31    30    1
    74    51    48    1
    75    48    47    1
    76   107   108    1
    77   107   106   ar
    78    41    40    2
    79   143   142    1
    80   143   145   ar
    81   139   140    1
    82   139   142    1
    83   139   138    1
    84   140   148   am
    85    30    28   ar
    86    30    29   ar
    87   147   145   ar
    88    28    26   ar
    89   104   106   ar
    90    29    27   ar
    91    47    40   am
    92    95    94    2
    93    40    39    1
    94    26    25   ar
    95    27    25   ar
    96   148   149    1
    97   152   149    1
    98   152   153    1
    99   149   150    1
   100    25    24    1
   101    94    93    1
   102    86    85    2
   103    24    21    1
   104    39    42    1
   105    39    38    1
   106    35    34    2
   107    42    43    1
   108   153   155   ar
   109   153   154   ar
   110   150   151    2
   111   150   156   am
   112    93    96    1
   113    93    92    1
   114    38    34   am
   115    34    33    1
   116    85    92   am
   117    85    84    1
   118   156   157    1
   119    45    44    2
   120    21    22    1
   121    21    20    1
   122   159   158    2
   123    43    44    1
   124    44    46   am
   125    22    32   am
   126    22    23    2
   127    88    89    1
   128    88    87    1
   129    32    33    1
   130    84    87    1
   131    84    83    1
   132   158   157    1
   133    20    14   am
   134    33    36    1
   135   157   160    1
   136    89    90    1
   137    36    37    1
   138    18    17   ar
   139   161   160    1
   140   161   162    1
   141    14    15    2
   142    14    13    1
   143    90    91    1
   144    13    12    1
   145    13    16    1
   146    17    19   ar
   147    17    16    1
   148   162   164   ar
   149   162   163   ar
   150    82    80    1
   151    75    74    2
   152   165   166    1
   153    80    81    1
   154    80    79    2
   155   168   167    2
   156    74    73    1
   157    79    78    1
   158   171   170   ar
   159   172   170   ar
   160   166   167    1
   161   166   169    1
   162   170   169    1
   163    77    78    1
   164    77    76    1
   165    73    76    1
   166    73    72    1
