@<TRIPOS>MOLECULE
tmp/3px0A01.pdb
 91 88 0 0 0
SMALL
GASTEIGER

@<TRIPOS>ATOM
      1  N        132.3320  -42.9620   13.8390 N.3   169  ARG169     -0.1245
      2  CA       133.7200  -42.8000   13.4500 C.3   169  ARG169      0.1563
      3  C        133.8550  -41.5260   12.6310 C.2   169  ARG169      0.2260
      4  O        134.7960  -40.7720   12.8310 O.2   169  ARG169     -0.2867
      5  CB       134.1930  -44.0010   12.6430 C.3   169  ARG169      0.0307
      6  CG       135.6790  -44.2950   12.7520 C.3   169  ARG169      0.0489
      7  CD       135.9750  -45.7250   12.2770 C.3   169  ARG169      0.2205
      8  NE       134.9570  -46.1830   11.3320 N.pl3 169  ARG169     -0.0865
      9  CZ       135.1310  -47.1370   10.4210 C.cat 169  ARG169      0.5346
     10  NH1      136.3030  -47.7610   10.3060 N.pl3 169  ARG169      0.1354
     11  NH2      134.1230  -47.4570    9.6170 N.pl3 169  ARG169      0.1354
     12  N        134.1190  -38.7440   14.7590 N.3   172  GLU172     -0.1231
     13  CA       135.1650  -38.8990   15.7810 C.3   172  GLU172      0.1699
     14  C        134.5490  -38.9990   17.1900 C.2   172  GLU172      0.2592
     15  O        134.9430  -38.2760   18.1190 O.2   172  GLU172     -0.2718
     16  CB       136.1580  -37.7360   15.7320 C.3   172  GLU172      0.0402
     17  CG       136.9460  -37.6620   14.4320 C.3   172  GLU172      0.1161
     18  CD       138.2070  -36.8440   14.5910 C.2   172  GLU172      0.3649
     19  OE1      138.0920  -35.6360   14.8690 O.co2 172  GLU172     -0.2457
     20  OE2      139.3060  -37.4230   14.4690 O.co2 172  GLU172     -0.2457
     21  N        133.5750  -39.8900   17.3150 N.am  173  GLN173     -0.1966
     22  CA       132.8860  -40.1630   18.5850 C.3   173  GLN173      0.1733
     23  C        132.9070  -41.6530   18.9230 C.2   173  GLN173      0.2616
     24  O        132.2970  -42.0630   19.9140 O.2   173  GLN173     -0.2715
     25  CB       131.4160  -39.7310   18.5130 C.3   173  GLN173      0.0408
     26  CG       131.1530  -38.2330   18.4420 C.3   173  GLN173      0.0908
     27  CD       129.6810  -37.9290   18.2460 C.2   173  GLN173      0.2608
     28  OE1      129.0550  -38.4550   17.3380 O.2   173  GLN173     -0.2717
     29  NE2      129.1190  -37.0870   19.1090 N.am  173  GLN173     -0.0878
     30  N        133.5830  -42.4780   18.1150 N.am  174  ASP174     -0.1957
     31  CA       133.5700  -43.9210   18.3810 C.3   174  ASP174      0.1840
     32  C        134.2940  -44.2830   19.6790 C.2   174  ASP174      0.2622
     33  O        133.9130  -45.2440   20.3540 O.2   174  ASP174     -0.2715
     34  CB       134.1050  -44.7520   17.1940 C.3   174  ASP174      0.1450
     35  CG       135.5410  -44.4040   16.8050 C.2   174  ASP174      0.3671
     36  OD1      135.7930  -43.2610   16.3590 O.co2 174  ASP174     -0.2456
     37  OD2      136.4140  -45.2960   16.9110 O.co2 174  ASP174     -0.2456
     38  N        135.3270  -43.5190   20.0230 N.am  175  ARG175     -0.1963
     39  CA       136.0970  -43.7690   21.2340 C.3   175  ARG175      0.1729
     40  C        135.2850  -43.2920   22.4220 C.2   175  ARG175      0.2616
     41  O        135.3520  -43.8720   23.5110 O.2   175  ARG175     -0.2715
     42  CB       137.4470  -43.0390   21.1920 C.3   175  ARG175      0.0348
     43  CG       138.4150  -43.5830   20.1510 C.3   175  ARG175      0.0492
     44  CD       139.7560  -42.8530   20.1790 C.3   175  ARG175      0.2205
     45  NE       140.4390  -43.0070   21.4590 N.pl3 175  ARG175     -0.0865
     46  CZ       141.2140  -42.0810   22.0240 C.cat 175  ARG175      0.5346
     47  NH1      141.4230  -40.9110   21.4250 N.pl3 175  ARG175      0.1354
     48  NH2      141.7850  -42.3290   23.1980 N.pl3 175  ARG175      0.1354
     49  N        134.5120  -42.2310   22.2060 N.am  176  LEU176     -0.1977
     50  CA       133.6380  -41.7130   23.2560 C.3   176  LEU176      0.1596
     51  C        132.6340  -42.8030   23.6660 C.2   176  LEU176      0.2287
     52  O        132.3470  -42.9750   24.8530 O.2   176  LEU176     -0.2864
     53  CB       132.9350  -40.4340   22.7820 C.3   176  LEU176      0.0297
     54  CG       131.9310  -39.7780   23.7420 C.3   176  LEU176      0.0022
     55  CD1      132.5630  -39.4480   25.0980 C.3   176  LEU176      0.0001
     56  CD2      131.3580  -38.5320   23.0900 C.3   176  LEU176      0.0001
     57  N        135.1030  -46.3940   24.7760 N.3   179  GLU179     -0.1245
     58  CA       136.0780  -46.2330   25.8440 C.3   179  GLU179      0.1567
     59  C        135.5150  -45.4840   27.0480 C.2   179  GLU179      0.2260
     60  O        136.0840  -45.5630   28.1350 O.2   179  GLU179     -0.2867
     61  CB       137.3250  -45.4990   25.3220 C.3   179  GLU179      0.0388
     62  CG       138.1560  -46.3270   24.3470 C.3   179  GLU179      0.1160
     63  CD       139.1920  -45.5020   23.5780 C.2   179  GLU179      0.3649
     64  OE1      139.5340  -44.3840   24.0200 O.co2 179  GLU179     -0.2457
     65  OE2      139.6520  -45.9750   22.5160 O.co2 179  GLU179     -0.2457
     66  N        134.8890  -31.3230   25.1080 N.3   447  LEU447     -0.1231
     67  CA       136.2740  -31.7840   25.0580 C.3   447  LEU447      0.1693
     68  C        136.4290  -33.1980   24.4860 C.2   447  LEU447      0.2592
     69  O        137.3670  -33.4600   23.7320 O.2   447  LEU447     -0.2718
     70  CB       136.9040  -31.7490   26.4520 C.3   447  LEU447      0.0284
     71  CG       137.3990  -30.4020   26.9790 C.3   447  LEU447      0.0019
     72  CD1      137.8210  -30.5320   28.4300 C.3   447  LEU447      0.0001
     73  CD2      138.5560  -29.8920   26.1480 C.3   447  LEU447      0.0001
     74  N        135.5410  -34.1190   24.8670 N.am  448  LEU448     -0.1966
     75  CA       135.6400  -35.5040   24.4040 C.3   448  LEU448      0.1728
     76  C        134.6980  -35.8000   23.2490 C.2   448  LEU448      0.2616
     77  O        134.3880  -36.9550   22.9800 O.2   448  LEU448     -0.2715
     78  CB       135.3910  -36.4880   25.5460 C.3   448  LEU448      0.0311
     79  CG       136.3590  -36.3270   26.7190 C.3   448  LEU448      0.0022
     80  CD1      136.2060  -37.4980   27.6820 C.3   448  LEU448      0.0001
     81  CD2      137.8180  -36.2090   26.2490 C.3   448  LEU448      0.0001
     82  N        134.2520  -34.7410   22.5790 N.am  449  HIS449     -0.1973
     83  CA       133.5780  -34.8400   21.2820 C.3   449  HIS449      0.1656
     84  C        132.1000  -35.1730   21.3910 C.2   449  HIS449      0.2291
     85  O        131.4800  -35.5920   20.4140 O.2   449  HIS449     -0.2864
     86  CB       134.2910  -35.8530   20.3770 C.3   449  HIS449      0.0771
     87  CG       135.6430  -35.4020   19.9250 C.ar  449  HIS449      0.0820
     88  ND1      136.3170  -36.0050   18.8840 N.ar  449  HIS449     -0.2267
     89  CD2      136.4410  -34.4000   20.3620 C.ar  449  HIS449      0.1154
     90  CE1      137.4770  -35.3990   18.7060 C.ar  449  HIS449      0.1986
     91  NE2      137.5780  -34.4220   19.5900 N.ar  449  HIS449     -0.2212
@<TRIPOS>BOND
     1    11     9    1
     2    10     9    1
     3     9     8    2
     4     8     7    1
     5     7     6    1
     6     3     4    2
     7     3     2    1
     8     5     6    1
     9     5     2    1
    10     2     1    1
    11    17    18    1
    12    17    16    1
    13    20    18   ar
    14    18    19   ar
    15    12    13    1
    16    16    13    1
    17    13    14    1
    18    36    35   ar
    19    35    37   ar
    20    35    34    1
    21    14    21   am
    22    14    15    2
    23    34    31    1
    24    21    22    1
    25    28    27    2
    26    30    31    1
    27    30    23   am
    28    27    26    1
    29    27    29   am
    30    31    32    1
    31    26    25    1
    32    25    22    1
    33    22    23    1
    34    90    88   ar
    35    90    91   ar
    36    88    87   ar
    37    23    24    2
    38    91    89   ar
    39    32    38   am
    40    32    33    2
    41    87    89   ar
    42    87    86    1
    43    38    39    1
    44    43    44    1
    45    43    42    1
    46    44    45    1
    47    86    83    1
    48    85    84    2
    49    42    39    1
    50    39    40    1
    51    83    84    1
    52    83    82    1
    53    47    46    1
    54    45    46    2
    55    46    48    1
    56    49    40   am
    57    49    50    1
    58    40    41    2
    59    65    63   ar
    60    82    76   am
    61    53    50    1
    62    53    54    1
    63    77    76    2
    64    56    54    1
    65    76    75    1
    66    50    51    1
    67    63    64   ar
    68    63    62    1
    69    51    52    2
    70    69    68    2
    71    54    55    1
    72    62    61    1
    73    75    74    1
    74    75    78    1
    75    68    74   am
    76    68    67    1
    77    57    58    1
    78    67    66    1
    79    67    70    1
    80    61    58    1
    81    78    79    1
    82    58    59    1
    83    73    71    1
    84    81    79    1
    85    70    71    1
    86    79    80    1
    87    71    72    1
    88    59    60    2
