@<TRIPOS>MOLECULE
tmp/3px3A01.pdb
 220 212 0 0 0
SMALL
GASTEIGER

@<TRIPOS>ATOM
      1  N         28.3470  -10.9730   21.2150 N.3     5  TYR5       -0.1241
      2  CA        28.6470   -9.8450   20.3320 C.3     5  TYR5        0.1605
      3  C         29.0280  -10.2630   18.9050 C.2     5  TYR5        0.2264
      4  O         30.0980   -9.9240   18.3800 O.2     5  TYR5       -0.2867
      5  CB        29.7750   -9.0130   20.9510 C.3     5  TYR5        0.0534
      6  CG        29.4040   -8.3970   22.2820 C.ar    5  TYR5       -0.0201
      7  CD1       28.6110   -7.2360   22.3630 C.ar    5  TYR5       -0.0009
      8  CD2       29.8330   -8.9930   23.4840 C.ar    5  TYR5       -0.0009
      9  CE1       28.3600   -6.5980   23.6030 C.ar    5  TYR5        0.0417
     10  CE2       29.4880   -8.4290   24.7220 C.ar    5  TYR5        0.0417
     11  CZ        28.7870   -7.2300   24.7750 C.ar    5  TYR5        0.1957
     12  OH        28.5130   -6.7210   26.0300 O.3     5  TYR5       -0.2866
     13  N         25.9550   -2.4260   16.7440 N.3    13  TYR13      -0.1241
     14  CA        26.5850   -1.8100   17.9230 C.3    13  TYR13       0.1605
     15  C         26.8610   -0.3060   17.7980 C.2    13  TYR13       0.2264
     16  O         26.3950    0.4630   18.6460 O.2    13  TYR13      -0.2867
     17  CB        27.8490   -2.6100   18.2760 C.3    13  TYR13       0.0534
     18  CG        28.5130   -2.1910   19.5810 C.ar   13  TYR13      -0.0201
     19  CD1       28.2890   -2.9360   20.7330 C.ar   13  TYR13      -0.0009
     20  CD2       29.3740   -1.0860   19.6520 C.ar   13  TYR13      -0.0009
     21  CE1       28.8930   -2.5840   21.9260 C.ar   13  TYR13       0.0417
     22  CE2       30.0020   -0.7090   20.8610 C.ar   13  TYR13       0.0417
     23  CZ        29.7490   -1.5020   21.9840 C.ar   13  TYR13       0.1957
     24  OH        30.3040   -1.2370   23.2230 O.3    13  TYR13      -0.2866
     25  N         24.7430    2.6240   19.9550 N.3    17  HIS17      -0.1241
     26  CA        25.4530    3.3640   21.0120 C.3    17  HIS17       0.1621
     27  C         25.6570    4.8410   20.6800 C.2    17  HIS17       0.2264
     28  O         25.5150    5.7100   21.5410 O.2    17  HIS17      -0.2867
     29  CB        26.7500    2.6680   21.4390 C.3    17  HIS17       0.0745
     30  CG        26.4660    1.4250   22.2200 C.ar   17  HIS17       0.0817
     31  ND1       25.8160    1.4670   23.4420 N.ar   17  HIS17      -0.2268
     32  CD2       26.5550    0.1150   21.8820 C.ar   17  HIS17       0.1154
     33  CE1       25.6840    0.2310   23.8960 C.ar   17  HIS17       0.1986
     34  NE2       26.0900   -0.6080   22.9600 N.ar   17  HIS17      -0.2212
     35  N         22.2320    6.3470   21.0920 N.3    20  LYS20      -0.1245
     36  CA        21.9950    6.6320   22.5170 C.3    20  LYS20       0.1561
     37  C         22.8020    7.7970   23.0760 C.2    20  LYS20       0.2260
     38  O         22.6960    8.0750   24.2610 O.2    20  LYS20      -0.2867
     39  CB        22.3860    5.3980   23.3730 C.3    20  LYS20       0.0271
     40  CG        21.3710    4.3030   23.2780 C.3    20  LYS20       0.0035
     41  CD        22.0260    2.9380   23.6120 C.3    20  LYS20       0.0206
     42  CE        21.8020    2.5570   25.0590 C.3    20  LYS20       0.1093
     43  NZ        22.6690    3.2810   25.9820 N.3    20  LYS20      -0.1314
     44  N         33.8560    0.9080   29.1110 N.3   109  PHE109     -0.1227
     45  CA        32.4440    0.6360   28.9480 C.3   109  PHE109      0.1736
     46  C         32.0490   -0.6470   29.6430 C.2   109  PHE109      0.2596
     47  O         31.1350   -1.3100   29.1920 O.2   109  PHE109     -0.2718
     48  CB        32.0200    0.6260   27.4650 C.3   109  PHE109      0.0547
     49  CG        30.5600    0.9520   27.2270 C.ar  109  PHE109     -0.0202
     50  CD1       29.8550    1.7770   28.0740 C.ar  109  PHE109     -0.0042
     51  CD2       29.9130    0.4870   26.0760 C.ar  109  PHE109     -0.0042
     52  CE1       28.5110    2.0630   27.8660 C.ar  109  PHE109     -0.0003
     53  CE2       28.5640    0.7530   25.8210 C.ar  109  PHE109     -0.0003
     54  CZ        27.8750    1.5720   26.7200 C.ar  109  PHE109     -0.0000
     55  N         32.6500   -0.9270   30.7970 N.am  110  SER110     -0.1938
     56  CA        32.2360   -2.0540   31.6390 C.3   110  SER110      0.2055
     57  C         32.4210   -3.4120   30.9790 C.2   110  SER110      0.2643
     58  O         31.7390   -4.3880   31.3460 O.2   110  SER110     -0.2714
     59  CB        30.7830   -1.9020   32.0490 C.3   110  SER110      0.2130
     60  OG        30.5320   -0.6310   32.6010 O.3   110  SER110     -0.2179
     61  N         33.3240   -3.4610   29.9990 N.am  111  SER111     -0.1949
     62  CA        33.6910   -4.7350   29.3810 C.3   111  SER111      0.1924
     63  C         34.1720   -5.7130   30.4720 C.2   111  SER111      0.2314
     64  O         34.0150   -6.9440   30.3310 O.2   111  SER111     -0.2863
     65  CB        34.8230   -4.5210   28.3870 C.3   111  SER111      0.2116
     66  OG        34.4810   -3.6110   27.3390 O.3   111  SER111     -0.2180
     67  N         31.5220   -2.0890   35.8060 N.3   143  TRP143     -0.1227
     68  CA        30.0500   -2.1460   35.7320 C.3   143  TRP143      0.1737
     69  C         29.5630   -1.4650   37.0220 C.2   143  TRP143      0.2595
     70  O         30.3820   -1.1100   37.9130 O.2   143  TRP143     -0.2718
     71  CB        29.5860   -3.6360   35.5970 C.3   143  TRP143      0.0564
     72  CG        28.1210   -3.8430   35.4800 C.ar  143  TRP143      0.0003
     73  CD1       27.3280   -4.6200   36.2850 C.ar  143  TRP143      0.0946
     74  CD2       27.2570   -3.2770   34.4830 C.ar  143  TRP143      0.0152
     75  NE1       26.0310   -4.5580   35.8500 N.ar  143  TRP143     -0.2442
     76  CE2       25.9680   -3.7560   34.7440 C.ar  143  TRP143      0.0810
     77  CE3       27.4800   -2.4320   33.3780 C.ar  143  TRP143      0.0012
     78  CZ2       24.8520   -3.4010   33.9780 C.ar  143  TRP143      0.0191
     79  CZ3       26.3810   -2.0530   32.6090 C.ar  143  TRP143      0.0001
     80  CH2       25.0830   -2.5670   32.9020 C.ar  143  TRP143      0.0015
     81  N         28.2390   -1.3120   37.1660 N.am  144  TRP144     -0.1976
     82  CA        27.6200   -0.8840   38.4090 C.3   144  TRP144      0.1640
     83  C         28.0700   -1.7720   39.5650 C.2   144  TRP144      0.2290
     84  O         28.4110   -2.9430   39.3610 O.2   144  TRP144     -0.2864
     85  CB        26.0920   -0.9480   38.3550 C.3   144  TRP144      0.0576
     86  CG        25.6050   -0.0200   37.2630 C.ar  144  TRP144      0.0006
     87  CD1       25.1210   -0.3930   36.0090 C.ar  144  TRP144      0.0946
     88  CD2       25.5930    1.4120   37.2870 C.ar  144  TRP144      0.0152
     89  NE1       24.8350    0.7320   35.2700 N.ar  144  TRP144     -0.2442
     90  CE2       25.0410    1.8480   36.0560 C.ar  144  TRP144      0.0810
     91  CE3       25.9450    2.3720   38.2460 C.ar  144  TRP144      0.0012
     92  CZ2       24.9630    3.2130   35.7200 C.ar  144  TRP144      0.0191
     93  CZ3       25.7790    3.7210   37.9410 C.ar  144  TRP144      0.0001
     94  CH2       25.2330    4.1290   36.7110 C.ar  144  TRP144      0.0015
     95  N         24.4310    0.1410   43.7940 N.3   148  ASN148     -0.1225
     96  CA        23.9310    1.3020   43.0630 C.3   148  ASN148      0.1785
     97  C         23.2920    0.9520   41.7250 C.2   148  ASN148      0.2597
     98  O         22.5890    1.7590   41.1550 O.2   148  ASN148     -0.2718
     99  CB        25.0150    2.3770   42.8980 C.3   148  ASN148      0.1169
    100  CG        26.1760    1.9580   42.0320 C.2   148  ASN148      0.2627
    101  OD1       26.2250    0.9090   41.3810 O.2   148  ASN148     -0.2716
    102  ND2       27.1450    2.8510   41.9830 N.am  148  ASN148     -0.0877
    103  N         23.4440   -0.2860   41.2770 N.am  149  PHE149     -0.1962
    104  CA        22.6580   -0.7560   40.1280 C.3   149  PHE149      0.1771
    105  C         21.1430   -0.5970   40.3620 C.2   149  PHE149      0.2620
    106  O         20.6680   -0.9450   41.4500 O.2   149  PHE149     -0.2715
    107  CB        22.9270   -2.2660   40.0090 C.3   149  PHE149      0.0574
    108  CG        22.0260   -2.9100   38.9960 C.ar  149  PHE149     -0.0200
    109  CD1       22.0430   -2.5040   37.6650 C.ar  149  PHE149     -0.0042
    110  CD2       21.2130   -3.9710   39.3820 C.ar  149  PHE149     -0.0042
    111  CE1       21.2280   -3.1560   36.6880 C.ar  149  PHE149     -0.0003
    112  CE2       20.4040   -4.6090   38.4360 C.ar  149  PHE149     -0.0003
    113  CZ        20.3590   -4.1590   37.0980 C.ar  149  PHE149     -0.0000
    114  N         20.3920   -0.1560   39.3490 N.am  150  THR150     -0.1951
    115  CA        18.9390   -0.0680   39.4320 C.3   150  THR150      0.1897
    116  C         18.2040   -1.1850   38.7080 C.2   150  THR150      0.2313
    117  O         18.0190   -1.1480   37.4810 O.2   150  THR150     -0.2863
    118  CB        18.3690    1.2430   38.9100 C.3   150  THR150      0.1794
    119  OG1       18.7870    1.3730   37.5550 O.3   150  THR150     -0.2208
    120  CG2       18.9320    2.4490   39.6710 C.3   150  THR150      0.0378
    121  N         15.4090   -1.5760   35.3280 N.3   153  TYR153     -0.1241
    122  CA        15.6370   -0.4690   34.4080 C.3   153  TYR153      0.1605
    123  C         15.3420   -0.8650   32.9650 C.2   153  TYR153      0.2264
    124  O         15.8520   -1.8720   32.4950 O.2   153  TYR153     -0.2867
    125  CB        17.0750    0.0320   34.5020 C.3   153  TYR153      0.0534
    126  CG        17.3880    1.2250   33.6130 C.ar  153  TYR153     -0.0201
    127  CD1       17.8480    1.0320   32.3150 C.ar  153  TYR153     -0.0009
    128  CD2       17.1910    2.5450   34.0780 C.ar  153  TYR153     -0.0009
    129  CE1       18.0780    2.0990   31.5010 C.ar  153  TYR153      0.0417
    130  CE2       17.3860    3.6200   33.2400 C.ar  153  TYR153      0.0417
    131  CZ        17.8250    3.3780   31.9630 C.ar  153  TYR153      0.1957
    132  OH        18.1270    4.4310   31.1290 O.3   153  TYR153     -0.2866
    133  N         15.6030    0.5870   28.9020 N.3   155  ALA155     -0.1245
    134  CA        16.0840    1.6320   28.0020 C.3   155  ALA155      0.1562
    135  C         15.3650    1.4250   26.6940 C.2   155  ALA155      0.2260
    136  O         15.2180    0.2780   26.3420 O.2   155  ALA155     -0.2867
    137  CB        17.5580    1.4310   27.7170 C.3   155  ALA155      0.0290
    138  N         15.9700   -0.2100   19.7510 N.3   168  ARG168     -0.1245
    139  CA        16.6520   -1.1260   20.7010 C.3   168  ARG168      0.1563
    140  C         16.0110   -0.9430   22.0610 C.2   168  ARG168      0.2260
    141  O         15.7940    0.1980   22.4960 O.2   168  ARG168     -0.2867
    142  CB        18.1500   -0.8180   20.7980 C.3   168  ARG168      0.0307
    143  CG        18.8660   -1.5180   22.0120 C.3   168  ARG168      0.0489
    144  CD        20.2970   -0.8990   22.1660 C.3   168  ARG168      0.2205
    145  NE        21.0600   -1.5600   23.2200 N.pl3 168  ARG168     -0.0865
    146  CZ        20.8700   -1.3460   24.5100 C.cat 168  ARG168      0.5346
    147  NH1       19.9700   -0.4510   24.8870 N.pl3 168  ARG168      0.1354
    148  NH2       21.5450   -2.0490   25.4230 N.pl3 168  ARG168      0.1354
    149  N         16.1070   -2.4720   26.1090 N.3   170  SER170     -0.1217
    150  CA        16.7850   -3.3570   27.0520 C.3   170  SER170      0.1889
    151  C         15.9010   -3.4070   28.3080 C.2   170  SER170      0.2288
    152  O         15.3060   -2.3660   28.6950 O.2   170  SER170     -0.2866
    153  CB        18.2000   -2.8800   27.3760 C.3   170  SER170      0.2089
    154  OG        18.2970   -1.6840   28.1670 O.3   170  SER170     -0.2183
    155  N         16.6690   -4.8940   32.4120 N.3   172  SER172     -0.1217
    156  CA        17.7720   -5.3590   33.2610 C.3   172  SER172      0.1889
    157  C         17.2110   -5.7680   34.6160 C.2   172  SER172      0.2288
    158  O         16.4160   -5.0220   35.1760 O.2   172  SER172     -0.2866
    159  CB        18.7260   -4.1890   33.4890 C.3   172  SER172      0.2089
    160  OG        19.4590   -4.0070   32.2890 O.3   172  SER172     -0.2183
    161  N         23.9430   -8.4400   36.6530 N.3   179  THR179     -0.1218
    162  CA        22.8020   -7.8500   36.0210 C.3   179  THR179      0.1862
    163  C         22.5320   -8.7790   34.8370 C.2   179  THR179      0.2287
    164  O         23.4740   -9.1350   34.1440 O.2   179  THR179     -0.2866
    165  CB        23.1760   -6.4620   35.4520 C.3   179  THR179      0.1770
    166  OG1       23.3800   -5.5670   36.5650 O.3   179  THR179     -0.2211
    167  CG2       21.9770   -5.9330   34.6260 C.3   179  THR179      0.0375
    168  N         20.9760   -8.3300   31.4320 N.3   181  ILE181     -0.1245
    169  CA        20.4120   -7.3150   30.5420 C.3   181  ILE181      0.1561
    170  C         20.0200   -8.0510   29.2660 C.2   181  ILE181      0.2260
    171  O         20.8760   -8.6810   28.6190 O.2   181  ILE181     -0.2867
    172  CB        21.3450   -6.1110   30.2810 C.3   181  ILE181      0.0252
    173  CG1       20.6900   -5.0100   29.3940 C.3   181  ILE181      0.0019
    174  CG2       22.7630   -6.5320   29.9170 C.3   181  ILE181      0.0019
    175  CD1       21.5420   -3.7340   29.3430 C.3   181  ILE181      0.0001
    176  N         18.3820   -7.6290   25.5330 N.3   183  VAL183     -0.1245
    177  CA        18.2490   -6.4970   24.6320 C.3   183  VAL183      0.1561
    178  C         17.5360   -7.0080   23.3950 C.2   183  VAL183      0.2260
    179  O         17.9810   -7.9970   22.8220 O.2   183  VAL183     -0.2867
    180  CB        19.5990   -5.9060   24.2680 C.3   183  VAL183      0.0252
    181  CG1       19.4250   -4.6040   23.4900 C.3   183  VAL183      0.0019
    182  CG2       20.4130   -5.6920   25.5580 C.3   183  VAL183      0.0019
    183  N         19.8860  -10.1340   22.1040 N.3   199  GLU199     -0.1245
    184  CA        21.0680  -10.6160   22.8330 C.3   199  GLU199      0.1567
    185  C         20.7370  -10.6210   24.3410 C.2   199  GLU199      0.2260
    186  O         19.7610  -10.0280   24.7320 O.2   199  GLU199     -0.2867
    187  CB        22.2770   -9.7070   22.5990 C.3   199  GLU199      0.0388
    188  CG        22.0420   -8.2550   23.0100 C.3   199  GLU199      0.1160
    189  CD        23.1350   -7.2510   22.6860 C.2   199  GLU199      0.3649
    190  OE1       22.7630   -6.0690   22.3580 O.co2 199  GLU199     -0.2457
    191  OE2       24.3320   -7.6280   22.8060 O.co2 199  GLU199     -0.2457
    192  N         22.9810  -10.7690   28.3850 N.3   201  HIS201     -0.1241
    193  CA        24.3210  -10.9140   28.9120 C.3   201  HIS201      0.1621
    194  C         24.1490  -10.9750   30.4470 C.2   201  HIS201      0.2264
    195  O         23.2220  -10.3670   30.9820 O.2   201  HIS201     -0.2867
    196  CB        25.1640   -9.6600   28.5840 C.3   201  HIS201      0.0745
    197  CG        25.3450   -9.4170   27.1160 C.ar  201  HIS201      0.0817
    198  ND1       26.3560   -9.9970   26.3750 N.ar  201  HIS201     -0.2268
    199  CD2       24.6180   -8.6730   26.2500 C.ar  201  HIS201      0.1154
    200  CE1       26.2320   -9.6240   25.1080 C.ar  201  HIS201      0.1986
    201  NE2       25.2070   -8.7980   25.0140 N.ar  201  HIS201     -0.2212
    202  N         26.2970   -9.3510   33.4120 N.3   203  ILE203     -0.1245
    203  CA        27.4090   -8.4630   33.6080 C.3   203  ILE203      0.1561
    204  C         27.5650   -8.3380   35.0970 C.2   203  ILE203      0.2260
    205  O         26.6420   -7.9370   35.8110 O.2   203  ILE203     -0.2867
    206  CB        27.0990   -7.0510   33.0470 C.3   203  ILE203      0.0252
    207  CG1       26.5080   -7.2840   31.6340 C.3   203  ILE203      0.0019
    208  CG2       28.3870   -6.3030   32.9890 C.3   203  ILE203      0.0019
    209  CD1       26.4400   -5.9990   30.8800 C.3   203  ILE203      0.0001
    210  N         29.2940    5.0890   36.1710 N.3   232  ARG232     -0.1245
    211  CA        29.6420    3.9060   36.9910 C.3   232  ARG232      0.1563
    212  C         30.9630    4.2020   37.6920 C.2   232  ARG232      0.2260
    213  O         31.4850    3.3280   38.3810 O.2   232  ARG232     -0.2867
    214  CB        29.8130    2.6540   36.1260 C.3   232  ARG232      0.0307
    215  CG        28.4850    2.1550   35.5110 C.3   232  ARG232      0.0489
    216  CD        28.6080    1.7610   34.0500 C.3   232  ARG232      0.2205
    217  NE        27.3670    1.9020   33.2780 N.pl3 232  ARG232     -0.0865
    218  CZ        27.2140    1.3850   32.0590 C.cat 232  ARG232      0.5346
    219  NH1       28.1570    0.6270   31.4570 N.pl3 232  ARG232      0.1354
    220  NH2       26.0520    1.6190   31.4630 N.pl3 232  ARG232      0.1354
@<TRIPOS>BOND
     1    13    14    1
     2    15    14    1
     3    15    16    2
     4    14    17    1
     5    17    18    1
     6     4     3    2
     7     3     2    1
     8    18    20   ar
     9    18    19   ar
    10    20    22   ar
    11   138   139    1
    12    25    26    1
    13     2     5    1
    14     2     1    1
    15    27    26    1
    16    27    28    2
    17   139   142    1
    18   139   140    1
    19    19    21   ar
    20   142   143    1
    21    22    23   ar
    22     5     6    1
    23    26    29    1
    24    35    36    1
    25    29    30    1
    26    32    30   ar
    27    32    34   ar
    28    21    23   ar
    29    23    24    1
    30   143   144    1
    31   140   141    2
    32   183   184    1
    33   144   145    1
    34    30    31   ar
    35     6     7   ar
    36     6     8   ar
    37   190   189   ar
    38     7     9   ar
    39    36    37    1
    40    36    39    1
    41   187   184    1
    42   187   188    1
    43   189   191   ar
    44   189   188    1
    45   179   178    2
    46   184   185    1
    47    34    33   ar
    48    37    38    2
    49   145   146    2
    50    40    39    1
    51    40    41    1
    52   178   177    1
    53    31    33   ar
    54     8    10   ar
    55   181   180    1
    56     9    11   ar
    57    41    42    1
    58   180   177    1
    59   180   182    1
    60   185   186    2
    61   146   147    1
    62   146   148    1
    63   177   176    1
    64    10    11   ar
    65    11    12    1
    66   201   200   ar
    67   201   199   ar
    68    42    43    1
    69   200   198   ar
    70    53    51   ar
    71    53    54   ar
    72    51    49   ar
    73   149   150    1
    74   199   197   ar
    75   136   135    2
    76   198   197   ar
    77   135   134    1
    78    54    52   ar
    79   150   153    1
    80   150   151    1
    81   197   196    1
    82    49    48    1
    83    49    50   ar
    84    66    65    1
    85   153   154    1
    86    48    45    1
    87   137   134    1
    88    52    50   ar
    89   134   133    1
    90   151   152    2
    91   192   193    1
    92    65    62    1
    93   196   193    1
    94   171   170    2
    95   193   194    1
    96    45    44    1
    97    45    46    1
    98    47    46    2
    99   170   169    1
   100   175   173    1
   101    62    61    1
   102    62    63    1
   103   173   172    1
   104    46    55   am
   105   174   172    1
   106    61    57   am
   107   172   169    1
   108    64    63    2
   109   194   195    2
   110   169   168    1
   111    55    56    1
   112   209   207    1
   113    57    58    2
   114    57    56    1
   115   132   131    1
   116   219   218    1
   117   220   218    1
   118   129   131   ar
   119   129   127   ar
   120   207   206    1
   121    56    59    1
   122   131   130   ar
   123    59    60    1
   124   218   217    2
   125   160   159    1
   126   127   126   ar
   127   155   156    1
   128   124   123    2
   129    79    80   ar
   130    79    77   ar
   131    80    78   ar
   132   123   122    1
   133   208   206    1
   134   206   203    1
   135   130   128   ar
   136   156   159    1
   137   156   157    1
   138   217   216    1
   139    77    74   ar
   140   202   203    1
   141   203   204    1
   142   126   128   ar
   143   126   125    1
   144    78    76   ar
   145   216   215    1
   146   164   163    2
   147   122   125    1
   148   122   121    1
   149    74    76   ar
   150    74    72   ar
   151   157   158    2
   152   167   165    1
   153    76    75   ar
   154   163   162    1
   155   204   205    2
   156    89    87   ar
   157    89    90   ar
   158   165   162    1
   159   165   166    1
   160    72    71    1
   161    72    73   ar
   162   215   214    1
   163    71    68    1
   164    92    90   ar
   165    92    94   ar
   166    68    67    1
   167    68    69    1
   168    75    73   ar
   169    87    86   ar
   170   162   161    1
   171    90    88   ar
   172   214   211    1
   173   210   211    1
   174   111   113   ar
   175   111   109   ar
   176    94    93   ar
   177   211   212    1
   178    69    81   am
   179    69    70    2
   180   113   112   ar
   181    81    82    1
   182    86    88   ar
   183    86    85    1
   184    88    91   ar
   185   117   116    2
   186   119   118    1
   187   109   108   ar
   188   212   213    2
   189    93    91   ar
   190    85    82    1
   191    82    83    1
   192   112   110   ar
   193   116   115    1
   194   118   115    1
   195   118   120    1
   196   108   110   ar
   197   108   107    1
   198   114   115    1
   199   114   105   am
   200    84    83    2
   201   107   104    1
   202   104   105    1
   203   104   103    1
   204   105   106    2
   205    98    97    2
   206   103    97   am
   207   101   100    2
   208    97    96    1
   209   102   100   am
   210   100    99    1
   211    99    96    1
   212    96    95    1
