@<TRIPOS>MOLECULE
tmp/3px7A00.pdb
 102 96 0 0 0
SMALL
GASTEIGER

@<TRIPOS>ATOM
      1  N        -36.2750   15.6980   52.5300 N.3     8  GLU8       -0.1231
      2  CA       -37.5920   15.3610   51.9920 C.3     8  GLU8        0.1699
      3  C        -37.8060   13.8810   51.6720 C.2     8  GLU8        0.2593
      4  O        -38.8200   13.2960   52.0610 O.2     8  GLU8       -0.2718
      5  CB       -37.8650   16.1980   50.7390 C.3     8  GLU8        0.0402
      6  CG       -37.9550   17.6930   51.0030 C.3     8  GLU8        0.1161
      7  CD       -37.4590   18.5230   49.8290 C.2     8  GLU8        0.3649
      8  OE1      -36.2560   18.4300   49.5080 O.co2   8  GLU8       -0.2457
      9  OE2      -38.2660   19.2650   49.2270 O.co2   8  GLU8       -0.2457
     10  N        -36.8550   13.2780   50.9670 N.am    9  SER9       -0.1939
     11  CA       -36.9680   11.8730   50.5800 C.3     9  SER9        0.2040
     12  C        -36.2550   10.9200   51.5320 C.2     9  SER9        0.2485
     13  O        -35.0820   11.1140   51.8460 O.2     9  SER9       -0.2729
     14  CB       -36.4150   11.6720   49.1660 C.3     9  SER9        0.2129
     15  OG       -36.5550   10.3280   48.7420 O.3     9  SER9       -0.2179
     16  N        -36.9630    9.8720   51.9980 N.am   10  PRO10      -0.2715
     17  CA       -36.4140    8.8680   52.9160 C.3    10  PRO10       0.1536
     18  C        -35.1560    8.2150   52.3530 C.2    10  PRO10       0.2598
     19  O        -34.1430    8.0960   53.0390 O.2    10  PRO10      -0.2715
     20  CB       -37.5590    7.8690   53.0580 C.3    10  PRO10       0.0310
     21  CG       -38.7630    8.7300   52.9230 C.3    10  PRO10       0.0237
     22  CD       -38.3940    9.6140   51.7520 C.3    10  PRO10       0.0939
     23  N        -35.2230    7.7950   51.0960 N.am   11  ALA11      -0.1978
     24  CA       -34.0810    7.1580   50.4590 C.3    11  ALA11       0.1597
     25  C        -32.8410    8.0400   50.5640 C.2    11  ALA11       0.2287
     26  O        -31.7460    7.5570   50.8510 O.2    11  ALA11      -0.2864
     27  CB       -34.3950    6.8690   49.0010 C.3    11  ALA11       0.0319
     28  N        -40.8940   13.3870   54.2470 N.3    30  VAL30      -0.1231
     29  CA       -41.6490   12.5760   53.3000 C.3    30  VAL30       0.1692
     30  C        -42.7480   13.4170   52.6610 C.2    30  VAL30       0.2592
     31  O        -43.9040   13.0060   52.6030 O.2    30  VAL30      -0.2718
     32  CB       -42.2910   11.3570   54.0080 C.3    30  VAL30       0.0266
     33  CG1      -42.9060   10.4110   52.9840 C.3    30  VAL30       0.0020
     34  CG2      -41.2440   10.6390   54.8460 C.3    30  VAL30       0.0020
     35  N        -42.3880   14.6020   52.1900 N.am   31  GLY31      -0.1957
     36  CA       -43.3840   15.4560   51.5750 C.3    31  GLY31       0.1869
     37  C        -43.5760   16.7740   52.2930 C.2    31  GLY31       0.2309
     38  O        -42.6220   17.3260   52.8340 O.2    31  GLY31      -0.2863
     39  N        -49.8520   12.1150   57.8180 N.3    65  LYS65      -0.1245
     40  CA       -48.4930   12.4260   58.2510 C.3    65  LYS65       0.1561
     41  C        -48.4190   12.5930   59.7680 C.2    65  LYS65       0.2260
     42  O        -47.4090   13.0510   60.3030 O.2    65  LYS65      -0.2867
     43  CB       -48.0060   13.7050   57.5610 C.3    65  LYS65       0.0271
     44  CG       -48.1310   13.6750   56.0380 C.3    65  LYS65       0.0035
     45  CD       -47.1290   12.7260   55.3910 C.3    65  LYS65       0.0206
     46  CE       -45.7350   13.3310   55.3600 C.3    65  LYS65       0.1093
     47  NZ       -45.7090   14.5990   54.5740 N.3    65  LYS65      -0.1314
     48  N        -41.3380   23.7230   53.0360 N.3    95  ILE95      -0.1245
     49  CA       -41.4340   22.5230   53.8520 C.3    95  ILE95       0.1561
     50  C        -40.5970   22.7620   55.1040 C.2    95  ILE95       0.2260
     51  O        -40.9660   22.3490   56.1950 O.2    95  ILE95      -0.2867
     52  CB       -40.9100   21.2830   53.0980 C.3    95  ILE95       0.0252
     53  CG1      -41.7950   21.0080   51.8810 C.3    95  ILE95       0.0019
     54  CG2      -40.9100   20.0700   54.0170 C.3    95  ILE95       0.0019
     55  CD1      -41.3230   19.8470   51.0370 C.3    95  ILE95       0.0001
     56  N        -39.8270    4.8140   40.3190 N.3   285  GLN285     -0.1245
     57  CA       -39.8680    4.9560   41.7730 C.3   285  GLN285      0.1566
     58  C        -39.1800    3.7580   42.4410 C.2   285  GLN285      0.2260
     59  O        -38.4120    3.9200   43.3870 O.2   285  GLN285     -0.2867
     60  CB       -41.3210    5.0450   42.2580 C.3   285  GLN285      0.0367
     61  CG       -41.4630    5.3450   43.7480 C.3   285  GLN285      0.0905
     62  CD       -41.2680    6.8170   44.0710 C.2   285  GLN285      0.2608
     63  OE1      -40.6120    7.1720   45.0570 O.2   285  GLN285     -0.2717
     64  NE2      -41.8520    7.6830   43.2480 N.am  285  GLN285     -0.0878
     65  N        -35.4300    4.0230   42.0170 N.3   288  TYR288     -0.1227
     66  CA       -34.8180    5.0340   42.8650 C.3   288  TYR288      0.1736
     67  C        -34.6850    4.5380   44.3040 C.2   288  TYR288      0.2595
     68  O        -33.6210    4.6350   44.9110 O.2   288  TYR288     -0.2718
     69  CB       -35.6440    6.3220   42.8420 C.3   288  TYR288      0.0548
     70  CG       -35.3010    7.2910   43.9580 C.ar  288  TYR288     -0.0200
     71  CD1      -34.0970    8.0050   43.9560 C.ar  288  TYR288     -0.0009
     72  CD2      -36.1900    7.5000   45.0150 C.ar  288  TYR288     -0.0009
     73  CE1      -33.7920    8.9080   44.9830 C.ar  288  TYR288      0.0417
     74  CE2      -35.8990    8.3980   46.0430 C.ar  288  TYR288      0.0417
     75  CZ       -34.7020    9.0990   46.0250 C.ar  288  TYR288      0.1957
     76  OH       -34.4330    9.9870   47.0400 O.3   288  TYR288     -0.2866
     77  N        -35.7720    4.0060   44.8430 N.am  289  GLU289     -0.1979
     78  CA       -35.7670    3.5140   46.2110 C.3   289  GLU289      0.1602
     79  C        -34.7870    2.3650   46.4300 C.2   289  GLU289      0.2287
     80  O        -34.3530    2.1340   47.5530 O.2   289  GLU289     -0.2864
     81  CB       -37.1900    3.1290   46.6290 C.3   289  GLU289      0.0415
     82  CG       -38.0690    4.3620   46.8620 C.3   289  GLU289      0.1163
     83  CD       -39.5470    4.0420   47.0260 C.2   289  GLU289      0.3649
     84  OE1      -40.3460    4.9950   47.1630 O.co2 289  GLU289     -0.2457
     85  OE2      -39.9130    2.8460   47.0150 O.co2 289  GLU289     -0.2457
     86  N        -38.1730   12.6900   39.6530 N.3   296  ARG296     -0.1245
     87  CA       -38.8220   13.9620   39.3650 C.3   296  ARG296      0.1563
     88  C        -37.7850   15.0460   39.1850 C.2   296  ARG296      0.2260
     89  O        -37.1960   15.5240   40.1490 O.2   296  ARG296     -0.2867
     90  CB       -39.7650   14.3030   40.5100 C.3   296  ARG296      0.0307
     91  CG       -40.5820   13.0930   40.9210 C.3   296  ARG296      0.0489
     92  CD       -41.5940   13.4000   41.9960 C.3   296  ARG296      0.2205
     93  NE       -42.2610   12.1810   42.4420 N.pl3 296  ARG296     -0.0865
     94  CZ       -41.7680   11.3250   43.3320 C.cat 296  ARG296      0.5346
     95  NH1      -40.5920   11.5400   43.9030 N.pl3 296  ARG296      0.1354
     96  NH2      -42.4560   10.2360   43.6400 N.pl3 296  ARG296      0.1354
     97  N        -43.5400   16.2210   39.2400 N.3   456  SER456     -0.1217
     98  CA       -44.3350   15.4560   40.1890 C.3   456  SER456      0.1889
     99  C        -45.8400   15.5810   39.9860 C.2   456  SER456      0.2288
    100  O        -46.6100   14.9560   40.7070 O.2   456  SER456     -0.2866
    101  CB       -44.0000   15.8850   41.6220 C.3   456  SER456      0.2089
    102  OG       -44.5930   17.1400   41.9350 O.3   456  SER456     -0.2183
@<TRIPOS>BOND
     1    88    87    1
     2    88    89    2
     3    97    98    1
     4    87    86    1
     5    87    90    1
     6    99    98    1
     7    99   100    2
     8    98   101    1
     9    56    57    1
    10    90    91    1
    11    91    92    1
    12   101   102    1
    13    57    60    1
    14    57    58    1
    15    92    93    1
    16    65    66    1
    17    60    61    1
    18    58    59    2
    19    93    94    2
    20    69    66    1
    21    69    70    1
    22    66    67    1
    23    64    62   am
    24    94    96    1
    25    94    95    1
    26    61    62    1
    27    71    70   ar
    28    71    73   ar
    29    70    72   ar
    30    62    63    2
    31    67    77   am
    32    67    68    2
    33    77    78    1
    34    73    75   ar
    35    72    74   ar
    36    75    74   ar
    37    75    76    1
    38    78    79    1
    39    78    81    1
    40    79    80    2
    41    81    82    1
    42    82    83    1
    43    85    83   ar
    44    83    84   ar
    45    15    14    1
    46    27    24    1
    47    14    11    1
    48     9     7   ar
    49     8     7   ar
    50     7     6    1
    51    24    25    1
    52    24    23    1
    53    25    26    2
    54    11    10    1
    55    11    12    1
    56     5     6    1
    57     5     2    1
    58    10     3   am
    59    55    53    1
    60    23    18   am
    61    12    13    2
    62    12    16   am
    63    36    35    1
    64    36    37    1
    65     3     2    1
    66     3     4    2
    67    22    16    1
    68    22    21    1
    69    53    52    1
    70     2     1    1
    71    16    17    1
    72    35    30   am
    73    37    38    2
    74    18    17    1
    75    18    19    2
    76    31    30    2
    77    30    29    1
    78    17    20    1
    79    21    20    1
    80    33    32    1
    81    48    49    1
    82    52    49    1
    83    52    54    1
    84    29    32    1
    85    29    28    1
    86    49    50    1
    87    32    34    1
    88    47    46    1
    89    50    51    2
    90    46    45    1
    91    45    44    1
    92    44    43    1
    93    43    40    1
    94    39    40    1
    95    40    41    1
    96    41    42    2
