@<TRIPOS>MOLECULE
tmp/3px8A00.pdb
 127 124 0 0 0
SMALL
GASTEIGER

@<TRIPOS>ATOM
      1  N         -1.8740    4.6170   12.0230 N.3    77  TYR77      -0.1227
      2  CA        -0.5330    4.2780   11.5490 C.3    77  TYR77       0.1736
      3  C          0.1350    3.2770   12.4230 C.2    77  TYR77       0.2595
      4  O          0.0900    3.3370   13.6640 O.2    77  TYR77      -0.2718
      5  CB         0.3730    5.4990   11.4530 C.3    77  TYR77       0.0548
      6  CG         0.3630    6.2220   10.1900 C.ar   77  TYR77      -0.0200
      7  CD1       -0.8380    6.6130    9.6340 C.ar   77  TYR77      -0.0009
      8  CD2        1.5380    6.6100    9.5370 C.ar   77  TYR77      -0.0009
      9  CE1       -0.8880    7.3890    8.4330 C.ar   77  TYR77       0.0417
     10  CE2        1.5010    7.3480    8.3420 C.ar   77  TYR77       0.0417
     11  CZ         0.2820    7.7260    7.8100 C.ar   77  TYR77       0.1957
     12  OH         0.2300    8.4560    6.6330 O.3    77  TYR77      -0.2866
     13  N          0.8980    2.3640   11.7980 N.am   78  VAL78      -0.1980
     14  CA         1.8020    1.5080   12.5730 C.3    78  VAL78       0.1595
     15  C          3.0340    2.3250   12.9480 C.2    78  VAL78       0.2287
     16  O          3.8300    2.7420   12.0770 O.2    78  VAL78      -0.2864
     17  CB         2.2240    0.3330   11.7100 C.3    78  VAL78       0.0276
     18  CG1        3.1900   -0.5700   12.5000 C.3    78  VAL78       0.0022
     19  CG2        0.9600   -0.4970   11.3020 C.3    78  VAL78       0.0022
     20  N          9.5590    3.4470   14.1800 N.3    90  PHE90      -0.1241
     21  CA         9.9270    4.3280   13.0750 C.3    90  PHE90       0.1605
     22  C         10.3620    5.6340   13.6260 C.2    90  PHE90       0.2264
     23  O          9.9530    6.1220   14.7070 O.2    90  PHE90      -0.2867
     24  CB         8.7730    4.5100   12.0720 C.3    90  PHE90       0.0534
     25  CG         8.3840    3.2700   11.4280 C.ar   90  PHE90      -0.0203
     26  CD1        9.2510    2.5720   10.6120 C.ar   90  PHE90      -0.0042
     27  CD2        7.0710    2.7770   11.6290 C.ar   90  PHE90      -0.0042
     28  CE1        8.9290    1.3880    9.9960 C.ar   90  PHE90      -0.0003
     29  CE2        6.6950    1.6170   10.9730 C.ar   90  PHE90      -0.0003
     30  CZ         7.6040    0.8940   10.1940 C.ar   90  PHE90      -0.0000
     31  N          8.4290    5.7580    8.6730 N.3   118  GLY118     -0.1210
     32  CA         7.5700    4.6150    8.2750 C.3   118  GLY118      0.1956
     33  C          6.5760    4.8660    7.1740 C.2   118  GLY118      0.2612
     34  O          5.6570    4.0500    7.0510 O.2   118  GLY118     -0.2717
     35  N          6.6730    5.9880    6.4730 N.am  119  ASN119     -0.1960
     36  CA         5.7010    6.2660    5.3960 C.3   119  ASN119      0.1819
     37  C          5.9310    5.3100    4.2520 C.2   119  ASN119      0.2621
     38  O          7.0960    4.8220    4.0500 O.2   119  ASN119     -0.2715
     39  CB         5.7630    7.7410    4.9410 C.3   119  ASN119      0.1195
     40  CG         5.2940    8.6800    5.9770 C.2   119  ASN119      0.2630
     41  OD1        4.5570    8.3050    6.8780 O.2   119  ASN119     -0.2716
     42  ND2        5.7580    9.9130    5.9050 N.am  119  ASN119     -0.0877
     43  N          4.9710    5.1210    3.3520 N.am  120  TYR120     -0.1960
     44  CA         5.1810    4.2360    2.2250 C.3   120  TYR120      0.1771
     45  C          6.3690    4.6200    1.3760 C.2   120  TYR120      0.2619
     46  O          7.0930    3.7330    0.8910 O.2   120  TYR120     -0.2715
     47  CB         3.9640    4.0850    1.3140 C.3   120  TYR120      0.0574
     48  CG         2.7710    3.3830    1.9070 C.ar  120  TYR120     -0.0198
     49  CD1        2.8360    2.1430    2.5580 C.ar  120  TYR120     -0.0009
     50  CD2        1.5290    3.9450    1.7220 C.ar  120  TYR120     -0.0009
     51  CE1        1.6860    1.5250    3.0380 C.ar  120  TYR120      0.0417
     52  CE2        0.3800    3.2650    2.1750 C.ar  120  TYR120      0.0417
     53  CZ         0.4970    2.0640    2.8650 C.ar  120  TYR120      0.1957
     54  OH        -0.6440    1.3930    3.2960 O.3   120  TYR120     -0.2866
     55  N          6.5010    5.9110    1.0600 N.am  121  ASP121     -0.1971
     56  CA         7.6020    6.2640    0.1390 C.3   121  ASP121      0.1709
     57  C          8.9780    5.7880    0.6440 C.2   121  ASP121      0.2293
     58  O          9.7200    5.1250   -0.0870 O.2   121  ASP121     -0.2864
     59  CB         7.5600    7.8130   -0.2310 C.3   121  ASP121      0.1436
     60  CG         7.6050    8.7500    0.9550 C.2   121  ASP121      0.3671
     61  OD1        7.7180    8.3450    2.1530 O.co2 121  ASP121     -0.2456
     62  OD2        7.5340    9.9950    0.7160 O.co2 121  ASP121     -0.2456
     63  N          1.0040   -3.0850    7.1220 N.3   169  ILE169     -0.1245
     64  CA         0.2920   -1.8520    7.1330 C.3   169  ILE169      0.1561
     65  C         -0.9580   -1.9480    6.2450 C.2   169  ILE169      0.2260
     66  O         -2.0770   -1.5170    6.6300 O.2   169  ILE169     -0.2867
     67  CB         1.1670   -0.7100    6.5850 C.3   169  ILE169      0.0252
     68  CG1        2.2930   -0.3900    7.6290 C.3   169  ILE169      0.0019
     69  CG2        0.3190    0.5530    6.3670 C.3   169  ILE169      0.0019
     70  CD1        3.5620    0.3440    6.9710 C.3   169  ILE169      0.0001
     71  N         -3.9270   -1.7130    8.8800 N.3   173  SER173     -0.1202
     72  CA        -4.3430   -0.3130    8.9310 C.3   173  SER173      0.2020
     73  C         -5.1760    0.0560    7.7140 C.2   173  SER173      0.2618
     74  O         -6.2670    0.7120    7.8940 O.2   173  SER173     -0.2717
     75  CB        -3.1020    0.5970    8.9380 C.3   173  SER173      0.2103
     76  OG        -2.2690    0.2380   10.0100 O.3   173  SER173     -0.2182
     77  N         -4.7800   -0.2860    6.4980 N.am  174  GLU174     -0.1979
     78  CA        -5.5660    0.1010    5.3290 C.3   174  GLU174      0.1602
     79  C         -6.8910   -0.6340    5.3090 C.2   174  GLU174      0.2287
     80  O         -7.9530   -0.0830    4.9020 O.2   174  GLU174     -0.2864
     81  CB        -4.8160   -0.1180    4.0230 C.3   174  GLU174      0.0415
     82  CG        -3.5510    0.7310    3.8530 C.3   174  GLU174      0.1163
     83  CD        -3.7640    2.2290    3.6990 C.2   174  GLU174      0.3649
     84  OE1       -4.9040    2.7010    3.8610 O.co2 174  GLU174     -0.2457
     85  OE2       -2.7230    2.8790    3.4120 O.co2 174  GLU174     -0.2457
     86  N         -9.1350    1.1830    7.6190 N.3   177  ARG177     -0.1245
     87  CA        -9.6060    2.4230    7.0310 C.3   177  ARG177      0.1563
     88  C        -10.6380    2.2370    5.9350 C.2   177  ARG177      0.2260
     89  O        -11.5030    3.1190    5.7950 O.2   177  ARG177     -0.2867
     90  CB        -8.4410    3.1950    6.4100 C.3   177  ARG177      0.0307
     91  CG        -7.4120    3.7520    7.4080 C.3   177  ARG177      0.0489
     92  CD        -6.2010    4.2850    6.6520 C.3   177  ARG177      0.2205
     93  NE        -5.1810    4.6740    7.6070 N.pl3 177  ARG177     -0.0865
     94  CZ        -3.8780    4.3570    7.4770 C.cat 177  ARG177      0.5346
     95  NH1       -3.4170    3.6190    6.4280 N.pl3 177  ARG177      0.1354
     96  NH2       -3.0200    4.7250    8.4170 N.pl3 177  ARG177      0.1354
     97  N         -5.5660    4.1100   -0.9710 N.3   205  GLU205     -0.1231
     98  CA        -4.6240    4.2930    0.1810 C.3   205  GLU205      0.1699
     99  C         -4.0240    5.6720    0.0750 C.2   205  GLU205      0.2592
    100  O         -3.9360    6.4350    1.0360 O.2   205  GLU205     -0.2718
    101  CB        -3.4330    3.3010   -0.0050 C.3   205  GLU205      0.0402
    102  CG        -3.8740    1.8170    0.2270 C.3   205  GLU205      0.1161
    103  CD        -2.7860    0.8610   -0.0280 C.2   205  GLU205      0.3649
    104  OE1       -1.6830    1.2300   -0.4690 O.co2 205  GLU205     -0.2457
    105  OE2       -3.0130   -0.3390    0.2380 O.co2 205  GLU205     -0.2457
    106  N         -3.6340    6.0990   -1.1370 N.am  206  ASN206     -0.1974
    107  CA        -2.9350    7.3970   -1.3220 C.3   206  ASN206      0.1688
    108  C         -3.8880    8.5510   -1.0750 C.2   206  ASN206      0.2292
    109  O         -3.4410    9.6610   -0.7500 O.2   206  ASN206     -0.2864
    110  CB        -2.3590    7.5440   -2.7330 C.3   206  ASN206      0.1181
    111  CG        -1.1820    6.6590   -2.9700 C.2   206  ASN206      0.2629
    112  OD1       -0.5150    6.2170   -2.0190 O.2   206  ASN206     -0.2716
    113  ND2       -0.9020    6.3720   -4.2480 N.am  206  ASN206     -0.0877
    114  N         -6.4860    8.7030    1.1950 N.3   208  TRP208     -0.1241
    115  CA        -7.2370    8.7040    2.4630 C.3   208  TRP208      0.1605
    116  C         -7.3360   10.0440    3.1120 C.2   208  TRP208      0.2264
    117  O         -8.4540   10.4550    3.5280 O.2   208  TRP208     -0.2867
    118  CB        -6.6500    7.6440    3.3770 C.3   208  TRP208      0.0550
    119  CG        -7.4060    7.4720    4.6900 C.ar  208  TRP208      0.0003
    120  CD1       -8.7320    7.0910    4.8330 C.ar  208  TRP208      0.0946
    121  CD2       -6.9200    7.7120    6.0140 C.ar  208  TRP208      0.0152
    122  NE1       -9.0040    7.0410    6.1630 N.ar  208  TRP208     -0.2442
    123  CE2       -7.9360    7.3940    6.9000 C.ar  208  TRP208      0.0810
    124  CE3       -5.6740    8.0900    6.5300 C.ar  208  TRP208      0.0012
    125  CZ2       -7.7470    7.4650    8.3140 C.ar  208  TRP208      0.0191
    126  CZ3       -5.5010    8.0980    7.9050 C.ar  208  TRP208      0.0001
    127  CH2       -6.5160    7.7600    8.7500 C.ar  208  TRP208      0.0015
@<TRIPOS>BOND
     1   113   111   am
     2   111   110    1
     3   111   112    2
     4   110   107    1
     5   107   106    1
     6   107   108    1
     7   106    99   am
     8   108   109    2
     9    97    98    1
    10   104   103   ar
    11    59    56    1
    12    59    60    1
    13    58    57    2
    14   103   102    1
    15   103   105   ar
    16   101    98    1
    17   101   102    1
    18    99    98    1
    19    99   100    2
    20    56    57    1
    21    56    55    1
    22    62    60   ar
    23    46    45    2
    24    60    61   ar
    25    55    45   am
    26   114   115    1
    27    47    48    1
    28    47    44    1
    29    45    44    1
    30    50    48   ar
    31    50    52   ar
    32    48    49   ar
    33    52    53   ar
    34    44    43    1
    35   115   116    1
    36   115   118    1
    37    49    51   ar
    38    53    51   ar
    39    53    54    1
    40   116   117    2
    41    43    37   am
    42   118   119    1
    43    85    83   ar
    44    83    82    1
    45    83    84   ar
    46    82    81    1
    47    81    78    1
    48    38    37    2
    49    37    36    1
    50   119   120   ar
    51   119   121   ar
    52   120   122   ar
    53    80    79    2
    54    39    36    1
    55    39    40    1
    56    79    78    1
    57    78    77    1
    58    36    35    1
    59    89    88    2
    60    42    40   am
    61    88    87    1
    62    40    41    2
    63   121   124   ar
    64   121   123   ar
    65   122   123   ar
    66    65    66    2
    67    65    64    1
    68    69    67    1
    69    90    87    1
    70    90    91    1
    71    95    94    1
    72    35    33   am
    73    77    73   am
    74   124   126   ar
    75    67    64    1
    76    67    68    1
    77    12    11    1
    78    92    91    1
    79    92    93    1
    80   123   125   ar
    81    70    68    1
    82    87    86    1
    83    34    33    2
    84    63    64    1
    85    33    32    1
    86    94    93    2
    87    94    96    1
    88    73    74    2
    89    73    72    1
    90    11    10   ar
    91    11     9   ar
    92   126   127   ar
    93    32    31    1
    94   125   127   ar
    95    10     8   ar
    96     9     7   ar
    97    71    72    1
    98    72    75    1
    99    75    76    1
   100     8     6   ar
   101     7     6   ar
   102    28    30   ar
   103    28    26   ar
   104     6     5    1
   105    30    29   ar
   106    26    25   ar
   107    29    27   ar
   108    19    17    1
   109    25    27   ar
   110    25    24    1
   111     5     2    1
   112     2     1    1
   113     2     3    1
   114    17    18    1
   115    17    14    1
   116    13     3   am
   117    13    14    1
   118    24    21    1
   119    16    15    2
   120     3     4    2
   121    14    15    1
   122    21    22    1
   123    21    20    1
   124    22    23    2
