@<TRIPOS>MOLECULE
tmp/3px9A00.pdb
 142 138 0 0 0
SMALL
GASTEIGER

@<TRIPOS>ATOM
      1  N         -2.2500    4.7100   11.7300 N.3    77  TYR77      -0.1227
      2  CA        -0.8530    4.4060   11.3160 C.3    77  TYR77       0.1736
      3  C         -0.1800    3.3830   12.2060 C.2    77  TYR77       0.2595
      4  O         -0.3200    3.3440   13.4370 O.2    77  TYR77      -0.2718
      5  CB         0.0650    5.6960   11.1820 C.3    77  TYR77       0.0548
      6  CG        -0.0020    6.3080    9.8550 C.ar   77  TYR77      -0.0200
      7  CD1        1.1250    6.5540    9.0980 C.ar   77  TYR77      -0.0009
      8  CD2       -1.2600    6.7360    9.3480 C.ar   77  TYR77      -0.0009
      9  CE1        0.9860    7.1670    7.8190 C.ar   77  TYR77       0.0417
     10  CE2       -1.3970    7.3390    8.1150 C.ar   77  TYR77       0.0417
     11  CZ        -0.2880    7.5220    7.3340 C.ar   77  TYR77       0.1957
     12  OH        -0.4620    8.1500    6.0980 O.3    77  TYR77      -0.2866
     13  N          0.5390    2.4630   11.5680 N.am   78  VAL78      -0.1980
     14  CA         1.4310    1.5860   12.2960 C.3    78  VAL78       0.1595
     15  C          2.6820    2.3900   12.6370 C.2    78  VAL78       0.2287
     16  O          3.4400    2.8520   11.7600 O.2    78  VAL78      -0.2864
     17  CB         1.7680    0.3310   11.4660 C.3    78  VAL78       0.0276
     18  CG1        2.6840   -0.6680   12.2690 C.3    78  VAL78       0.0022
     19  CG2        0.4660   -0.3880   11.0170 C.3    78  VAL78       0.0022
     20  N          9.1570    3.4630   13.8540 N.3    90  PHE90      -0.1241
     21  CA         9.5750    4.3500   12.7560 C.3    90  PHE90       0.1605
     22  C         10.0200    5.7060   13.2980 C.2    90  PHE90       0.2264
     23  O          9.6020    6.1590   14.4150 O.2    90  PHE90      -0.2867
     24  CB         8.4370    4.5510   11.7690 C.3    90  PHE90       0.0534
     25  CG         7.9980    3.2960   11.1240 C.ar   90  PHE90      -0.0203
     26  CD1        8.8180    2.6470   10.2200 C.ar   90  PHE90      -0.0042
     27  CD2        6.7840    2.7200   11.4470 C.ar   90  PHE90      -0.0042
     28  CE1        8.4460    1.4910    9.6800 C.ar   90  PHE90      -0.0003
     29  CE2        6.3630    1.5850   10.8470 C.ar   90  PHE90      -0.0003
     30  CZ         7.1970    0.9520    9.9630 C.ar   90  PHE90      -0.0000
     31  N          7.9920    5.8010    8.4720 N.3   118  GLY118     -0.1210
     32  CA         7.0780    4.6830    8.0540 C.3   118  GLY118      0.1956
     33  C          6.0930    4.8590    6.8610 C.2   118  GLY118      0.2612
     34  O          5.2220    4.0090    6.6590 O.2   118  GLY118     -0.2717
     35  N          6.1610    5.9890    6.1150 N.am  119  ASN119     -0.1960
     36  CA         5.2900    6.1900    4.9530 C.3   119  ASN119      0.1819
     37  C          5.5920    5.2050    3.8130 C.2   119  ASN119      0.2621
     38  O          6.7120    4.6570    3.7220 O.2   119  ASN119     -0.2715
     39  CB         5.3970    7.6540    4.4200 C.3   119  ASN119      0.1195
     40  CG         4.8210    8.6740    5.4080 C.2   119  ASN119      0.2630
     41  OD1        4.0620    8.3230    6.3060 O.2   119  ASN119     -0.2716
     42  ND2        5.2180    9.9370    5.2610 N.am  119  ASN119     -0.0877
     43  N          4.6040    4.9300    2.9350 N.am  120  TYR120     -0.1960
     44  CA         4.8130    3.9850    1.8530 C.3   120  TYR120      0.1771
     45  C          6.0080    4.3870    0.9950 C.2   120  TYR120      0.2619
     46  O          6.7120    3.5060    0.5330 O.2   120  TYR120     -0.2715
     47  CB         3.6020    3.8900    0.9260 C.3   120  TYR120      0.0574
     48  CG         2.3440    3.1860    1.5280 C.ar  120  TYR120     -0.0198
     49  CD1        2.4540    2.0100    2.2710 C.ar  120  TYR120     -0.0009
     50  CD2        1.0590    3.6700    1.2640 C.ar  120  TYR120     -0.0009
     51  CE1        1.3150    1.3840    2.8310 C.ar  120  TYR120      0.0417
     52  CE2       -0.1000    3.0020    1.7950 C.ar  120  TYR120      0.0417
     53  CZ         0.0350    1.8710    2.5570 C.ar  120  TYR120      0.1957
     54  OH        -1.1270    1.2800    3.0720 O.3   120  TYR120     -0.2866
     55  N          6.2260    5.6790    0.7520 N.am  121  ASP121     -0.1971
     56  CA         7.2970    6.0930   -0.1360 C.3   121  ASP121      0.1709
     57  C          8.6490    5.6330    0.3170 C.2   121  ASP121      0.2293
     58  O          9.4280    5.0650   -0.4440 O.2   121  ASP121     -0.2864
     59  CB         7.2580    7.5880   -0.5430 C.3   121  ASP121      0.1436
     60  CG         7.0430    8.5460    0.6270 C.2   121  ASP121      0.3671
     61  OD1        7.1590    8.1480    1.8030 O.co2 121  ASP121     -0.2456
     62  OD2        6.7580    9.7330    0.3540 O.co2 121  ASP121     -0.2456
     63  N          4.2170   -0.9750   -3.9650 N.3   131  ARG131     -0.1245
     64  CA         3.0700   -1.6880   -3.5550 C.3   131  ARG131      0.1563
     65  C          2.4500   -2.4400   -4.7460 C.2   131  ARG131      0.2260
     66  O          1.8700   -3.5010   -4.5690 O.2   131  ARG131     -0.2867
     67  CB         2.0170   -0.7060   -2.9840 C.3   131  ARG131      0.0307
     68  CG         2.2520   -0.2900   -1.5720 C.3   131  ARG131      0.0489
     69  CD         1.3230    0.8730   -1.2660 C.3   131  ARG131      0.2205
     70  NE         1.7240    2.1250   -1.9170 N.pl3 131  ARG131     -0.0865
     71  CZ         0.9330    3.1890   -2.0320 C.cat 131  ARG131      0.5346
     72  NH1       -0.3570    3.1210   -1.6270 N.pl3 131  ARG131      0.1354
     73  NH2        1.4210    4.3380   -2.5520 N.pl3 131  ARG131      0.1354
     74  N          0.5920   -3.2120    6.8570 N.3   169  ILE169     -0.1245
     75  CA        -0.0920   -1.9010    6.8270 C.3   169  ILE169      0.1561
     76  C         -1.3570   -2.0400    5.9750 C.2   169  ILE169      0.2260
     77  O         -2.4340   -1.6350    6.3750 O.2   169  ILE169     -0.2867
     78  CB         0.8210   -0.7500    6.3620 C.3   169  ILE169      0.0252
     79  CG1        1.9450   -0.4800    7.3680 C.3   169  ILE169      0.0019
     80  CG2        0.0070    0.4920    6.1340 C.3   169  ILE169      0.0019
     81  CD1        3.0450    0.4300    6.7720 C.3   169  ILE169      0.0001
     82  N         -4.2560   -1.7180    8.6600 N.3   173  SER173     -0.1202
     83  CA        -4.7270   -0.3190    8.6090 C.3   173  SER173      0.2020
     84  C         -5.6170    0.0650    7.4220 C.2   173  SER173      0.2618
     85  O         -6.6660    0.6670    7.5900 O.2   173  SER173     -0.2717
     86  CB        -3.5480    0.6380    8.6660 C.3   173  SER173      0.2103
     87  OG        -2.7620    0.3210    9.8090 O.3   173  SER173     -0.2182
     88  N         -5.2030   -0.2600    6.2180 N.am  174  GLU174     -0.1979
     89  CA        -5.9860    0.0340    5.0570 C.3   174  GLU174      0.1602
     90  C         -7.3120   -0.7200    5.0300 C.2   174  GLU174      0.2287
     91  O         -8.3470   -0.1310    4.6470 O.2   174  GLU174     -0.2864
     92  CB        -5.1880   -0.2640    3.7990 C.3   174  GLU174      0.0415
     93  CG        -3.8860    0.6130    3.5840 C.3   174  GLU174      0.1163
     94  CD        -4.0760    2.1360    3.4670 C.2   174  GLU174      0.3649
     95  OE1       -5.1790    2.6420    3.6240 O.co2 174  GLU174     -0.2457
     96  OE2       -3.0840    2.8140    3.1800 O.co2 174  GLU174     -0.2457
     97  N         -9.5180    1.1400    7.3270 N.3   177  ARG177     -0.1245
     98  CA        -9.9520    2.3920    6.7100 C.3   177  ARG177      0.1563
     99  C        -11.0100    2.2220    5.6810 C.2   177  ARG177      0.2260
    100  O        -11.9010    3.1030    5.5580 O.2   177  ARG177     -0.2867
    101  CB        -8.7580    3.1490    6.0590 C.3   177  ARG177      0.0307
    102  CG        -7.7880    3.6730    7.0730 C.3   177  ARG177      0.0489
    103  CD        -6.5270    4.3030    6.3170 C.3   177  ARG177      0.2205
    104  NE        -5.4990    4.5880    7.3180 N.pl3 177  ARG177     -0.0865
    105  CZ        -4.2260    4.2350    7.2110 C.cat 177  ARG177      0.5346
    106  NH1       -3.8240    3.5530    6.1510 N.pl3 177  ARG177      0.1354
    107  NH2       -3.3850    4.5370    8.2030 N.pl3 177  ARG177      0.1354
    108  N         -5.9570    3.9680   -1.1750 N.3   205  GLU205     -0.1231
    109  CA        -4.9240    4.1830   -0.1360 C.3   205  GLU205      0.1699
    110  C         -4.3110    5.5660   -0.1870 C.2   205  GLU205      0.2592
    111  O         -4.2190    6.2340    0.8420 O.2   205  GLU205     -0.2718
    112  CB        -3.7940    3.1760   -0.2870 C.3   205  GLU205      0.0402
    113  CG        -4.1850    1.7440    0.0410 C.3   205  GLU205      0.1161
    114  CD        -3.0880    0.7570   -0.3130 C.2   205  GLU205      0.3649
    115  OE1       -2.0340    1.1710   -0.8000 O.co2 205  GLU205     -0.2457
    116  OE2       -3.3120   -0.4330   -0.0640 O.co2 205  GLU205     -0.2457
    117  N         -3.9240    5.9720   -1.3830 N.am  206  ASN206     -0.1974
    118  CA        -3.2780    7.2530   -1.6340 C.3   206  ASN206      0.1688
    119  C         -4.2050    8.4290   -1.3920 C.2   206  ASN206      0.2292
    120  O         -3.7450    9.5210   -1.0370 O.2   206  ASN206     -0.2864
    121  CB        -2.7800    7.3200   -3.0830 C.3   206  ASN206      0.1181
    122  CG        -1.5680    6.4270   -3.3400 C.2   206  ASN206      0.2629
    123  OD1       -0.9220    5.9410   -2.4070 O.2   206  ASN206     -0.2716
    124  ND2       -1.2750    6.1850   -4.6200 N.am  206  ASN206     -0.0877
    125  N         -6.8160    8.5470    0.8810 N.3   208  TRP208     -0.1227
    126  CA        -7.5420    8.5210    2.1350 C.3   208  TRP208      0.1737
    127  C         -7.6420    9.8970    2.7920 C.2   208  TRP208      0.2596
    128  O         -8.7420   10.3450    3.2900 O.2   208  TRP208     -0.2718
    129  CB        -6.9280    7.5710    3.1070 C.3   208  TRP208      0.0564
    130  CG        -7.7330    7.4030    4.3610 C.ar  208  TRP208      0.0003
    131  CD1       -9.0140    6.9910    4.4250 C.ar  208  TRP208      0.0946
    132  CD2       -7.2930    7.5790    5.7070 C.ar  208  TRP208      0.0152
    133  NE1       -9.4070    6.8840    5.7200 N.ar  208  TRP208     -0.2442
    134  CE2       -8.3680    7.2530    6.5330 C.ar  208  TRP208      0.0810
    135  CE3       -6.0660    7.9510    6.2990 C.ar  208  TRP208      0.0012
    136  CZ2       -8.3070    7.3370    7.9190 C.ar  208  TRP208      0.0191
    137  CZ3       -6.0090    8.0670    7.6600 C.ar  208  TRP208      0.0001
    138  CH2       -7.0730    7.7130    8.4650 C.ar  208  TRP208      0.0015
    139  N         -6.5270   10.6050    2.8530 N.am  209  GLY209     -0.1957
    140  CA        -6.5870   11.9550    3.4830 C.3   209  GLY209      0.1869
    141  C         -7.4400   12.9120    2.6710 C.2   209  GLY209      0.2309
    142  O         -8.2700   13.6630    3.2110 O.2   209  GLY209     -0.2863
@<TRIPOS>BOND
     1    65    66    2
     2    65    64    1
     3   124   122   am
     4    63    64    1
     5    64    67    1
     6   122   121    1
     7   122   123    2
     8   121   118    1
     9    67    68    1
    10    73    71    1
    11    71    70    2
    12    71    72    1
    13    70    69    1
    14   118   119    1
    15   118   117    1
    16    68    69    1
    17   119   120    2
    18   117   110   am
    19   108   109    1
    20   115   114   ar
    21    59    56    1
    22    59    60    1
    23    58    57    2
    24   114   116   ar
    25   114   113    1
    26   112   109    1
    27   112   113    1
    28   110   109    1
    29   110   111    2
    30    56    57    1
    31    56    55    1
    32    62    60   ar
    33    46    45    2
    34    60    61   ar
    35    55    45   am
    36   125   126    1
    37    47    48    1
    38    47    44    1
    39    45    44    1
    40    50    48   ar
    41    50    52   ar
    42    48    49   ar
    43    52    53   ar
    44    44    43    1
    45   126   127    1
    46   126   129    1
    47    49    51   ar
    48    53    51   ar
    49    53    54    1
    50   141   142    2
    51   141   140    1
    52   127   139   am
    53   127   128    2
    54   139   140    1
    55    43    37   am
    56   129   130    1
    57    96    94   ar
    58    94    93    1
    59    94    95   ar
    60    93    92    1
    61    38    37    2
    62    92    89    1
    63    37    36    1
    64   130   131   ar
    65   130   132   ar
    66    39    36    1
    67    39    40    1
    68   131   133   ar
    69    91    90    2
    70    36    35    1
    71    90    89    1
    72    89    88    1
    73    42    40   am
    74    40    41    2
    75   100    99    2
    76    99    98    1
    77   132   135   ar
    78   132   134   ar
    79   133   134   ar
    80    76    77    2
    81    76    75    1
    82   101    98    1
    83   101   102    1
    84    12    11    1
    85    35    33   am
    86    80    78    1
    87   106   105    1
    88    88    84   am
    89   135   137   ar
    90   103   102    1
    91   103   104    1
    92    78    75    1
    93    78    79    1
    94   134   136   ar
    95    34    33    2
    96    98    97    1
    97    81    79    1
    98    75    74    1
    99    33    32    1
   100   105   104    2
   101   105   107    1
   102    11     9   ar
   103    11    10   ar
   104    84    85    2
   105    84    83    1
   106   137   138   ar
   107     9     7   ar
   108   136   138   ar
   109    32    31    1
   110    10     8   ar
   111    83    82    1
   112    83    86    1
   113    86    87    1
   114     7     6   ar
   115     8     6   ar
   116    28    30   ar
   117    28    26   ar
   118     6     5    1
   119    30    29   ar
   120    26    25   ar
   121    29    27   ar
   122    19    17    1
   123    25    27   ar
   124    25    24    1
   125     5     2    1
   126     2     1    1
   127     2     3    1
   128    17    18    1
   129    17    14    1
   130    13     3   am
   131    13    14    1
   132    16    15    2
   133    24    21    1
   134     3     4    2
   135    14    15    1
   136    21    22    1
   137    21    20    1
   138    22    23    2
