@<TRIPOS>MOLECULE
tmp/3pxeB00.pdb
 145 139 0 0 0
SMALL
GASTEIGER

@<TRIPOS>ATOM
      1  N         -9.6550   11.6230    1.4670 N.3     8  VAL8       -0.1231
      2  CA        -8.2140   11.3760    1.3530 C.3     8  VAL8        0.1692
      3  C         -7.9740   10.1630    0.4530 C.2     8  VAL8        0.2593
      4  O         -8.8640    9.3290    0.2820 O.2     8  VAL8       -0.2718
      5  CB        -7.5590   11.1490    2.7370 C.3     8  VAL8        0.0266
      6  CG1       -7.8220   12.3440    3.6390 C.3     8  VAL8        0.0020
      7  CG2       -8.0830    9.8560    3.3670 C.3     8  VAL8        0.0020
      8  N         -6.7790   10.0810   -0.1260 N.am    9  SER9       -0.1938
      9  CA        -6.4260    8.9720   -0.9940 C.3     9  SER9        0.2055
     10  C         -4.9260    8.6720   -0.9320 C.2     9  SER9        0.2644
     11  O         -4.1000    9.5850   -1.0490 O.2     9  SER9       -0.2714
     12  CB        -6.8690    9.2590   -2.4300 C.3     9  SER9        0.2130
     13  OG        -6.5770    8.1660   -3.2750 O.3     9  SER9       -0.2179
     14  N         -4.5900    7.3910   -0.7410 N.am   10  GLY10      -0.1939
     15  CA        -3.2080    6.9390   -0.6970 C.3    10  GLY10       0.2014
     16  C         -2.5730    7.0980    0.6720 C.2    10  GLY10       0.2638
     17  O         -1.3460    7.0890    0.8070 O.2    10  GLY10      -0.2714
     18  N         -3.4040    7.2400    1.7000 N.am   11  LEU11      -0.1977
     19  CA        -2.8890    7.4650    3.0460 C.3    11  LEU11       0.1596
     20  C         -2.7600    6.1940    3.8940 C.2    11  LEU11       0.2287
     21  O         -3.5510    5.2590    3.7710 O.2    11  LEU11      -0.2864
     22  CB        -3.7470    8.4910    3.7860 C.3    11  LEU11       0.0297
     23  CG        -3.7640    9.9250    3.2710 C.3    11  LEU11       0.0022
     24  CD1       -4.5550   10.7680    4.2480 C.3    11  LEU11       0.0001
     25  CD2       -2.3510   10.4780    3.1080 C.3    11  LEU11       0.0001
     26  N          0.1890    9.0500   -6.9420 N.3    52  GLU52      -0.1231
     27  CA        -0.2110    7.8500   -7.6600 C.3    52  GLU52       0.1699
     28  C         -1.6600    8.0160   -8.0880 C.2    52  GLU52       0.2592
     29  O         -2.4230    8.7600   -7.4400 O.2    52  GLU52      -0.2718
     30  CB        -0.0930    6.6160   -6.7790 C.3    52  GLU52       0.0402
     31  CG         1.2950    6.3580   -6.2810 C.3    52  GLU52       0.1161
     32  CD         1.5660    4.8900   -6.1370 C.2    52  GLU52       0.3649
     33  OE1        2.0400    4.3140   -7.1350 O.co2  52  GLU52      -0.2457
     34  OE2        1.2960    4.3090   -5.0570 O.co2  52  GLU52      -0.2457
     35  N         -2.0360    7.3460   -9.1820 N.am   53  ARG53      -0.1966
     36  CA        -3.3870    7.4850   -9.7220 C.3    53  ARG53       0.1729
     37  C         -4.3410    6.4810   -9.0740 C.2    53  ARG53       0.2617
     38  O         -4.1640    5.2650   -9.1880 O.2    53  ARG53      -0.2715
     39  CB        -3.4090    7.3130  -11.2430 C.3    53  ARG53       0.0348
     40  CG        -2.4410    8.1870  -12.0130 C.3    53  ARG53       0.0492
     41  CD        -2.7520    8.1340  -13.5050 C.3    53  ARG53       0.2205
     42  NE        -2.8140    6.7710  -14.0150 N.pl3  53  ARG53      -0.0865
     43  CZ        -3.1940    6.4320  -15.2460 C.cat  53  ARG53       0.5346
     44  NH1       -3.5650    7.3470  -16.1310 N.pl3  53  ARG53       0.1354
     45  NH2       -3.2130    5.1570  -15.5920 N.pl3  53  ARG53       0.1354
     46  N         -5.3580    7.0010   -8.4020 N.am   54  THR54      -0.1937
     47  CA        -6.3490    6.1710   -7.7380 C.3    54  THR54       0.2028
     48  C         -7.7350    6.6510   -8.1330 C.2    54  THR54       0.2642
     49  O         -7.8770    7.7640   -8.6220 O.2    54  THR54      -0.2714
     50  CB        -6.2440    6.3260   -6.2330 C.3    54  THR54       0.1808
     51  OG1       -6.6680    7.6510   -5.8760 O.3    54  THR54      -0.2208
     52  CG2       -4.8030    6.0670   -5.7610 C.3    54  THR54       0.0379
     53  N         -8.7610    5.8340   -7.9110 N.am   55  LEU55      -0.1963
     54  CA       -10.1180    6.2370   -8.2790 C.3    55  LEU55       0.1728
     55  C        -10.4750    7.6390   -7.7540 C.2    55  LEU55       0.2616
     56  O        -11.1790    8.3980   -8.4190 O.2    55  LEU55      -0.2715
     57  CB       -11.1490    5.1900   -7.8270 C.3    55  LEU55       0.0311
     58  CG       -12.6190    5.5100   -8.1230 C.3    55  LEU55       0.0022
     59  CD1      -12.7930    5.9220   -9.5610 C.3    55  LEU55       0.0001
     60  CD2      -13.5200    4.3390   -7.8190 C.3    55  LEU55       0.0001
     61  N         -9.9880    7.9870   -6.5660 N.am   56  LYS56      -0.1977
     62  CA       -10.3180    9.2940   -5.9890 C.3    56  LYS56       0.1596
     63  C         -9.7040   10.4450   -6.7880 C.2    56  LYS56       0.2287
     64  O        -10.3450   11.4640   -7.0010 O.2    56  LYS56      -0.2864
     65  CB        -9.9210    9.3620   -4.5080 C.3    56  LYS56       0.0298
     66  CG       -11.0170    8.8700   -3.5650 C.3    56  LYS56       0.0038
     67  CD       -10.4700    8.5730   -2.1670 C.3    56  LYS56       0.0206
     68  CE       -11.5370    7.9520   -1.2800 C.3    56  LYS56       0.1093
     69  NZ       -10.9970    7.6270    0.0570 N.3    56  LYS56      -0.1314
     70  N         -8.8490   10.3680  -10.1160 N.3    58  PHE58      -0.1241
     71  CA        -9.6150   10.4890  -11.3540 C.3    58  PHE58       0.1605
     72  C        -10.9500   11.2020  -11.1560 C.2    58  PHE58       0.2264
     73  O        -11.3530   11.9890  -11.9890 O.2    58  PHE58      -0.2867
     74  CB        -9.8700    9.1220  -12.0000 C.3    58  PHE58       0.0534
     75  CG        -8.6330    8.4700  -12.5610 C.ar   58  PHE58      -0.0203
     76  CD1       -8.2520    7.2040  -12.1400 C.ar   58  PHE58      -0.0042
     77  CD2       -7.8470    9.1190  -13.5050 C.ar   58  PHE58      -0.0042
     78  CE1       -7.1030    6.6020  -12.6480 C.ar   58  PHE58      -0.0003
     79  CE2       -6.6990    8.5230  -14.0140 C.ar   58  PHE58      -0.0003
     80  CZ        -6.3270    7.2670  -13.5910 C.ar   58  PHE58      -0.0000
     81  N          2.4340    9.8070  -11.3100 N.3    94  VAL94      -0.1231
     82  CA         3.5540    8.9450  -11.7270 C.3    94  VAL94       0.1692
     83  C          3.4230    8.2630  -13.1140 C.2    94  VAL94       0.2591
     84  O          4.3870    7.6790  -13.6230 O.2    94  VAL94      -0.2718
     85  CB         3.8380    7.8580  -10.6700 C.3    94  VAL94       0.0266
     86  CG1        4.1200    8.5070   -9.3310 C.3    94  VAL94       0.0020
     87  CG2        2.6560    6.8880  -10.5650 C.3    94  VAL94       0.0020
     88  N          2.2360    8.3350  -13.7120 N.am   95  VAL95      -0.1980
     89  CA         1.9700    7.6550  -14.9780 C.3    95  VAL95       0.1595
     90  C          2.0510    8.6070  -16.1590 C.2    95  VAL95       0.2287
     91  O          2.7710    8.3520  -17.1220 O.2    95  VAL95      -0.2864
     92  CB         0.5670    7.0020  -14.9890 C.3    95  VAL95       0.0276
     93  CG1        0.1360    6.6750  -16.4190 C.3    95  VAL95       0.0022
     94  CG2        0.5420    5.7670  -14.1150 C.3    95  VAL95       0.0022
     95  N        -12.0660   -4.4340  -13.7250 N.3   127  THR127     -0.1203
     96  CA       -11.4870   -4.7750  -12.4350 C.3   127  THR127      0.1994
     97  C        -10.8330   -3.5550  -11.7880 C.2   127  THR127      0.2618
     98  O        -10.2630   -2.7130  -12.4920 O.2   127  THR127     -0.2717
     99  CB       -10.4010   -5.8360  -12.5960 C.3   127  THR127      0.1784
    100  OG1       -9.3380   -5.2990  -13.3960 O.3   127  THR127     -0.2211
    101  CG2      -10.9650   -7.0700  -13.2550 C.3   127  THR127      0.0376
    102  N        -10.9130   -3.4820  -10.4560 N.am  128  ASN128     -0.1960
    103  CA       -10.2690   -2.4360   -9.6510 C.3   128  ASN128      0.1819
    104  C        -10.9700   -1.0990   -9.7200 C.2   128  ASN128      0.2621
    105  O        -10.4900   -0.1090   -9.1640 O.2   128  ASN128     -0.2715
    106  CB        -8.7980   -2.2440  -10.0330 C.3   128  ASN128      0.1195
    107  CG        -7.9980   -3.5220   -9.9370 C.2   128  ASN128      0.2630
    108  OD1       -8.4210   -4.4920   -9.3070 O.2   128  ASN128     -0.2716
    109  ND2       -6.8260   -3.5290  -10.5560 N.am  128  ASN128     -0.0877
    110  N        -12.1030   -1.0740  -10.4040 N.am  129  MET129     -0.1977
    111  CA       -12.8240    0.1620  -10.6240 C.3   129  MET129      0.1605
    112  C        -14.1810   -0.1820  -11.1890 C.2   129  MET129      0.2287
    113  O        -14.2960   -0.4610  -12.3700 O.2   129  MET129     -0.2864
    114  CB       -12.0640    1.0500  -11.6050 C.3   129  MET129      0.0413
    115  CG       -12.7560    2.3820  -11.8310 C.3   129  MET129      0.0598
    116  SD       -12.0470    3.4530  -13.1080 S.3   129  MET129     -0.1393
    117  CE       -10.3130    3.5810  -12.6370 C.3   129  MET129      0.0692
    118  N         -9.3330    1.2070  -21.7020 N.3   189  ARG189     -0.1231
    119  CA        -9.7370    2.0910  -20.6310 C.3   189  ARG189      0.1694
    120  C         -8.6320    3.0890  -20.3880 C.2   189  ARG189      0.2591
    121  O         -8.8810    4.1580  -19.8240 O.2   189  ARG189     -0.2718
    122  CB       -10.0150    1.2590  -19.3730 C.3   189  ARG189      0.0321
    123  CG       -10.5320    2.0450  -18.1830 C.3   189  ARG189      0.0489
    124  CD       -10.7820    1.1510  -16.9730 C.3   189  ARG189      0.2205
    125  NE        -9.6000    0.3740  -16.6140 N.pl3 189  ARG189     -0.0865
    126  CZ        -9.5760   -0.5380  -15.6490 C.cat 189  ARG189      0.5346
    127  NH1      -10.6780   -0.7750  -14.9460 N.pl3 189  ARG189      0.1354
    128  NH2       -8.4520   -1.2090  -15.3990 N.pl3 189  ARG189      0.1354
    129  N         -7.4200    2.7580  -20.8270 N.am  190  LYS190     -0.1980
    130  CA        -6.3100    3.6760  -20.6570 C.3   190  LYS190      0.1596
    131  C         -6.5810    4.9720  -21.4050 C.2   190  LYS190      0.2287
    132  O         -6.0080    6.0170  -21.0950 O.2   190  LYS190     -0.2864
    133  CB        -5.0210    3.0230  -21.1290 C.3   190  LYS190      0.0298
    134  CG        -4.7580    1.6920  -20.4840 C.3   190  LYS190      0.0038
    135  CD        -3.4330    1.6600  -19.7290 C.3   190  LYS190      0.0206
    136  CE        -3.0650    0.2370  -19.3170 C.3   190  LYS190      0.1093
    137  NZ        -2.9960   -0.7140  -20.4670 N.3   190  LYS190     -0.1314
    138  N         -8.7030    6.9430  -18.7730 N.3   193  LEU193     -0.1245
    139  CA        -7.8080    7.2960  -17.6750 C.3   193  LEU193      0.1561
    140  C         -6.8180    8.3980  -18.0470 C.2   193  LEU193      0.2260
    141  O         -6.8270    9.4730  -17.4290 O.2   193  LEU193     -0.2867
    142  CB        -7.0750    6.0760  -17.1290 C.3   193  LEU193      0.0270
    143  CG        -8.0490    5.0880  -16.4930 C.3   193  LEU193      0.0019
    144  CD1       -7.3310    4.0590  -15.6130 C.3   193  LEU193      0.0001
    145  CD2       -9.1030    5.8500  -15.7110 C.3   193  LEU193      0.0001
@<TRIPOS>BOND
     1   118   119    1
     2   131   132    2
     3   131   130    1
     4   133   130    1
     5   133   134    1
     6   129   130    1
     7   129   120   am
     8   119   120    1
     9   119   122    1
    10   134   135    1
    11   137   136    1
    12   120   121    2
    13   135   136    1
    14   122   123    1
    15   138   139    1
    16   123   124    1
    17   140   139    1
    18   140   141    2
    19   139   142    1
    20   142   143    1
    21    91    90    2
    22   124   125    1
    23   125   126    2
    24   143   145    1
    25   143   144    1
    26    93    92    1
    27    90    89    1
    28    44    43    1
    29   126   128    1
    30   126   127    1
    31    45    43    1
    32    43    42    2
    33    92    89    1
    34    92    94    1
    35    89    88    1
    36    42    41    1
    37    79    80   ar
    38    79    77   ar
    39    95    96    1
    40    88    83   am
    41    84    83    2
    42    80    78   ar
    43    77    75   ar
    44    41    40    1
    45   100    99    1
    46   101    99    1
    47    83    82    1
    48   116   117    1
    49   116   115    1
    50    78    76   ar
    51    99    96    1
    52    75    76   ar
    53    75    74    1
    54    98    97    2
    55    96    97    1
    56   113   112    2
    57    40    39    1
    58    74    71    1
    59    73    72    2
    60   115   114    1
    61    97   102   am
    62    82    81    1
    63    82    85    1
    64   114   111    1
    65    71    72    1
    66    71    70    1
    67    39    36    1
    68   112   111    1
    69    85    87    1
    70    85    86    1
    71   111   110    1
    72   109   107   am
    73   102   103    1
    74   110   104   am
    75   106   107    1
    76   106   103    1
    77   107   108    2
    78    36    35    1
    79    36    37    1
    80   104   103    1
    81   104   105    2
    82    59    58    1
    83    38    37    2
    84    35    28   am
    85    37    46   am
    86    49    48    2
    87    56    55    2
    88    46    47    1
    89    54    53    1
    90    54    57    1
    91    54    55    1
    92    48    53   am
    93    48    47    1
    94    58    57    1
    95    58    60    1
    96    28    27    1
    97    28    29    2
    98    55    61   am
    99    47    50    1
   100    27    26    1
   101    27    30    1
   102    33    32   ar
   103    64    63    2
   104    63    62    1
   105    30    31    1
   106    61    62    1
   107    31    32    1
   108    50    51    1
   109    50    52    1
   110    32    34   ar
   111    62    65    1
   112    65    66    1
   113    66    67    1
   114    13    12    1
   115    12     9    1
   116    67    68    1
   117    68    69    1
   118    11    10    2
   119     9    10    1
   120     9     8    1
   121    10    14   am
   122    14    15    1
   123    15    16    1
   124     8     3   am
   125     4     3    2
   126     3     2    1
   127    16    17    2
   128    16    18   am
   129     2     1    1
   130     2     5    1
   131    18    19    1
   132     5     7    1
   133     5     6    1
   134    19    22    1
   135    19    20    1
   136    25    23    1
   137    23    22    1
   138    23    24    1
   139    21    20    2
