@<TRIPOS>MOLECULE
tmp/3pxkA00.pdb
 128 118 0 0 0
SMALL
GASTEIGER

@<TRIPOS>ATOM
      1  N         -1.6640   -0.3670   26.8000 N.3    14  ILE14      -0.1231
      2  CA        -2.7590   -0.8290   25.9400 C.3    14  ILE14       0.1692
      3  C         -2.9700   -2.3420   25.9530 C.2    14  ILE14       0.2593
      4  O         -3.7870   -2.8590   25.1930 O.2    14  ILE14      -0.2718
      5  CB        -2.6020   -0.2900   24.4910 C.3    14  ILE14       0.0266
      6  CG1       -1.2770   -0.7850   23.8340 C.3    14  ILE14       0.0019
      7  CG2       -2.7720    1.2470   24.4550 C.3    14  ILE14       0.0020
      8  CD1       -1.1390   -0.5720   22.3160 C.3    14  ILE14       0.0001
      9  N         -2.2170   -3.0420   26.7820 N.am   15  GLY15      -0.1942
     10  CA        -2.3150   -4.4900   26.8740 C.3    15  GLY15       0.2014
     11  C         -1.1820   -5.1200   27.6480 C.2    15  GLY15       0.2639
     12  O         -0.2280   -4.4470   28.0430 O.2    15  GLY15      -0.2714
     13  N         -1.2880   -6.4250   27.8720 N.am   16  GLU16      -0.1963
     14  CA        -0.2670   -7.1550   28.6170 C.3    16  GLU16       0.1733
     15  C          0.1830   -8.3360   27.7790 C.2    16  GLU16       0.2616
     16  O         -0.6350   -9.1960   27.4350 O.2    16  GLU16      -0.2715
     17  CB        -0.8140   -7.6020   29.9890 C.3    16  GLU16       0.0429
     18  CG         0.2270   -8.2700   30.8850 C.3    16  GLU16       0.1163
     19  CD         0.0450   -9.7520   31.1630 C.2    16  GLU16       0.3649
     20  OE1       -0.3970  -10.4910   30.2520 O.co2  16  GLU16      -0.2457
     21  OE2        0.3890  -10.1840   32.2870 O.co2  16  GLU16      -0.2457
     22  N          1.4650   -8.3350   27.4090 N.am   17  GLY17      -0.1955
     23  CA         2.0630   -9.4100   26.6390 C.3    17  GLY17       0.1869
     24  C          2.7130  -10.4120   27.5780 C.2    17  GLY17       0.2309
     25  O          2.7970  -10.1720   28.7930 O.2    17  GLY17      -0.2863
     26  N          2.3520   -3.7550   27.1030 N.3    22  VAL22      -0.1245
     27  CA         2.4230   -3.1910   25.7540 C.3    22  VAL22       0.1561
     28  C          1.8390   -1.8140   25.8990 C.2    22  VAL22       0.2260
     29  O          0.7950   -1.6360   26.5490 O.2    22  VAL22      -0.2867
     30  CB         1.6820   -4.0370   24.6770 C.3    22  VAL22       0.0252
     31  CG1        1.8220   -3.4110   23.2850 C.3    22  VAL22       0.0019
     32  CG2        2.1890   -5.4800   24.6740 C.3    22  VAL22       0.0019
     33  N          3.0860    1.0410   18.6160 N.3    38  ALA38      -0.1245
     34  CA         2.9260    0.1420   19.7710 C.3    38  ALA38       0.1562
     35  C          4.3310   -0.1990   20.2800 C.2    38  ALA38       0.2260
     36  O          5.2950   -0.3030   19.5000 O.2    38  ALA38      -0.2867
     37  CB         2.1900   -1.1220   19.3710 C.3    38  ALA38       0.0290
     38  N          6.2630   -2.8620   22.7460 N.3    40  LYS40      -0.1245
     39  CA         6.2920   -4.0610   23.5960 C.3    40  LYS40       0.1561
     40  C          7.4300   -3.9090   24.5770 C.2    40  LYS40       0.2260
     41  O          8.5660   -3.6650   24.1570 O.2    40  LYS40      -0.2867
     42  CB         6.5230   -5.3270   22.7700 C.3    40  LYS40       0.0271
     43  CG         5.3470   -5.6970   21.8720 C.3    40  LYS40       0.0035
     44  CD         5.5550   -7.0820   21.2320 C.3    40  LYS40       0.0206
     45  CE         4.5260   -8.0770   21.7380 C.3    40  LYS40       0.1093
     46  NZ         4.6240   -9.4150   21.1060 N.3    40  LYS40      -0.1314
     47  N          1.2730   -7.5950   11.0500 N.3    70  VAL70      -0.1245
     48  CA         1.8030   -6.4220   11.7610 C.3    70  VAL70       0.1561
     49  C          3.2750   -6.2180   11.3810 C.2    70  VAL70       0.2260
     50  O          4.0380   -7.1730   11.3140 O.2    70  VAL70      -0.2867
     51  CB         1.5890   -6.5030   13.3070 C.3    70  VAL70       0.0252
     52  CG1        2.3860   -7.6390   13.9310 C.3    70  VAL70       0.0019
     53  CG2        1.9610   -5.1970   13.9790 C.3    70  VAL70       0.0019
     54  N          6.5070   -1.5570   17.1300 N.3    85  MET85      -0.1230
     55  CA         5.6940   -2.0540   16.0240 C.3    85  MET85       0.1702
     56  C          4.5730   -1.1710   15.5980 C.2    85  MET85       0.2592
     57  O          4.1980   -0.2090   16.2750 O.2    85  MET85      -0.2718
     58  CB         5.1780   -3.4810   16.1930 C.3    85  MET85       0.0401
     59  CG         4.7640   -3.8850   17.5670 C.3    85  MET85       0.0596
     60  SD         4.8900   -5.6930   17.6900 S.3    85  MET85      -0.1393
     61  CE         6.4250   -5.9230   16.8670 C.3    85  MET85       0.0692
     62  N          4.0010   -1.5410   14.4680 N.am   86  GLU86      -0.1966
     63  CA         2.8360   -0.8800   13.9140 C.3    86  GLU86       0.1733
     64  C          1.6940   -0.9570   14.9560 C.2    86  GLU86       0.2616
     65  O          1.4630   -2.0120   15.5540 O.2    86  GLU86      -0.2715
     66  CB         2.4480   -1.5960   12.6110 C.3    86  GLU86       0.0429
     67  CG         1.0070   -1.3700   12.1960 C.3    86  GLU86       0.1163
     68  CD         0.5860   -2.1240   10.9550 C.2    86  GLU86       0.3649
     69  OE1        1.2970   -3.0730   10.5450 O.co2  86  GLU86      -0.2457
     70  OE2       -0.4810   -1.7710   10.4040 O.co2  86  GLU86      -0.2457
     71  N          1.0190    0.1630   15.1720 N.am   87  LEU87      -0.1963
     72  CA        -0.0890    0.2300   16.1070 C.3    87  LEU87       0.1728
     73  C         -1.3830   -0.2050   15.4370 C.2    87  LEU87       0.2616
     74  O         -1.7080    0.2830   14.3500 O.2    87  LEU87      -0.2715
     75  CB        -0.2150    1.6560   16.6990 C.3    87  LEU87       0.0311
     76  CG        -1.3570    1.8600   17.7020 C.3    87  LEU87       0.0022
     77  CD1       -1.0900    1.0680   19.0000 C.3    87  LEU87       0.0001
     78  CD2       -1.5610    3.3420   17.9870 C.3    87  LEU87       0.0001
     79  N         -2.1100   -1.1440   16.0740 N.am   88  CYS88      -0.1968
     80  CA        -3.4470   -1.6010   15.6440 C.3    88  CYS88       0.1712
     81  C         -4.3660   -1.0590   16.7050 C.2    88  CYS88       0.2296
     82  O         -4.4680   -1.6420   17.7900 O.2    88  CYS88      -0.2864
     83  CB        -3.5240   -3.1230   15.5480 C.3    88  CYS88       0.0983
     84  SG        -2.4480   -3.8100   14.2760 S.3    88  CYS88      -0.0798
     85  N         -7.0830   -2.8980   18.9680 N.3    91  GLY91      -0.1210
     86  CA        -6.5450   -3.8970   19.8850 C.3    91  GLY91       0.1956
     87  C         -6.7570   -5.3550   19.5520 C.2    91  GLY91       0.2611
     88  O         -6.8550   -5.7440   18.3780 O.2    91  GLY91      -0.2717
     89  N         -6.7410   -6.1820   20.6100 N.am   92  GLU92      -0.1979
     90  CA        -6.8370   -7.6490   20.5100 C.3    92  GLU92       0.1602
     91  C         -8.1890   -8.0960   19.9080 C.2    92  GLU92       0.2287
     92  O         -9.2350   -7.5870   20.2990 O.2    92  GLU92      -0.2864
     93  CB        -6.6000   -8.2640   21.8970 C.3    92  GLU92       0.0415
     94  CG        -6.5150   -9.7900   21.9400 C.3    92  GLU92       0.1163
     95  CD        -7.2820  -10.4570   23.0720 C.2    92  GLU92       0.3649
     96  OE1       -8.2450   -9.8440   23.5960 O.co2  92  GLU92      -0.2457
     97  OE2       -6.9330  -11.6100   23.4190 O.co2  92  GLU92      -0.2457
     98  N         -6.3090  -14.9530   19.8440 N.3   136  ARG136     -0.1245
     99  CA        -5.5250  -14.1380   20.8000 C.3   136  ARG136      0.1563
    100  C         -4.2790  -13.5080   20.1280 C.2   136  ARG136      0.2260
    101  O         -3.7390  -12.5320   20.6400 O.2   136  ARG136     -0.2867
    102  CB        -5.1060  -14.9830   22.0260 C.3   136  ARG136      0.0307
    103  CG        -4.1420  -16.1020   21.6970 C.3   136  ARG136      0.0489
    104  CD        -3.6670  -16.8610   22.9210 C.3   136  ARG136      0.2205
    105  NE        -2.8480  -17.9940   22.4890 N.pl3 136  ARG136     -0.0865
    106  CZ        -3.3160  -19.2110   22.2110 C.cat 136  ARG136      0.5346
    107  NH1       -4.6100  -19.4850   22.3580 N.pl3 136  ARG136      0.1354
    108  NH2       -2.4950  -20.1610   21.7890 N.pl3 136  ARG136      0.1354
    109  N         -4.7080   -8.9320   15.7820 N.3   139  LEU139     -0.1245
    110  CA        -4.9790   -7.5380   16.1610 C.3   139  LEU139      0.1561
    111  C         -5.9260   -6.8840   15.1850 C.2   139  LEU139      0.2260
    112  O         -6.0310   -7.3020   14.0280 O.2   139  LEU139     -0.2867
    113  CB        -3.6900   -6.7190   16.2810 C.3   139  LEU139      0.0270
    114  CG        -2.7040   -7.1900   17.3410 C.3   139  LEU139      0.0019
    115  CD1       -1.3330   -6.6160   17.0550 C.3   139  LEU139      0.0001
    116  CD2       -3.1670   -6.8290   18.7410 C.3   139  LEU139      0.0001
    117  N         -0.6270  -10.6840   14.5400 N.3   149  GLY149     -0.1210
    118  CA         0.1650   -9.7640   15.3390 C.3   149  GLY149      0.1956
    119  C          1.1900  -10.3000   16.2920 C.2   149  GLY149      0.2611
    120  O          1.8980   -9.5120   16.9220 O.2   149  GLY149     -0.2717
    121  N          1.2940  -11.6110   16.4040 N.am  150  ASP150     -0.1973
    122  CA         2.2280  -12.1850   17.3560 C.3   150  ASP150      0.1709
    123  C          2.9630  -13.3570   16.7320 C.2   150  ASP150      0.2293
    124  O          2.3480  -14.2040   16.0980 O.2   150  ASP150     -0.2864
    125  CB         1.4880  -12.6040   18.6280 C.3   150  ASP150      0.1436
    126  CG         2.4360  -12.9190   19.7720 C.2   150  ASP150      0.3671
    127  OD1        3.0790  -13.9880   19.7340 O.co2 150  ASP150     -0.2456
    128  OD2        2.5580  -12.0850   20.6720 O.co2 150  ASP150     -0.2456
@<TRIPOS>BOND
     1    70    68   ar
     2    69    68   ar
     3    68    67    1
     4    47    48    1
     5    50    49    2
     6    49    48    1
     7    48    51    1
     8    67    66    1
     9    66    63    1
    10    51    52    1
    11    51    53    1
    12    63    62    1
    13    63    64    1
    14   112   111    2
    15    84    83    1
    16    74    73    2
    17    62    56   am
    18   117   118    1
    19    64    71   am
    20    64    65    2
    21    71    72    1
    22   111   110    1
    23   118   119    1
    24    73    79   am
    25    73    72    1
    26    83    80    1
    27    56    55    1
    28    56    57    2
    29    80    79    1
    30    80    81    1
    31   109   110    1
    32    55    58    1
    33    55    54    1
    34   124   123    2
    35    72    75    1
    36   110   113    1
    37    58    59    1
    38   113   114    1
    39   119   121   am
    40   119   120    2
    41   121   122    1
    42    75    76    1
    43    81    82    2
    44   123   122    1
    45    61    60    1
    46   115   114    1
    47   114   116    1
    48   122   125    1
    49    59    60    1
    50    76    78    1
    51    76    77    1
    52    88    87    2
    53    33    34    1
    54   125   126    1
    55    85    86    1
    56    37    34    1
    57    36    35    2
    58    87    86    1
    59    87    89   am
    60   127   126   ar
    61    34    35    1
    62   126   128   ar
    63    98    99    1
    64    91    92    2
    65    91    90    1
    66   100   101    2
    67   100    99    1
    68    90    89    1
    69    90    93    1
    70    99   102    1
    71    46    45    1
    72    44    45    1
    73    44    43    1
    74   103   102    1
    75   103   104    1
    76   108   106    1
    77    43    42    1
    78    93    94    1
    79    94    95    1
    80   106   107    1
    81   106   105    2
    82     8     6    1
    83   105   104    1
    84    38    39    1
    85    42    39    1
    86    95    97   ar
    87    95    96   ar
    88    31    30    1
    89    39    40    1
    90     6     5    1
    91    41    40    2
    92     7     5    1
    93     5     2    1
    94    32    30    1
    95    30    27    1
    96     4     3    2
    97    27    28    1
    98    27    26    1
    99    28    29    2
   100     2     3    1
   101     2     1    1
   102     3     9   am
   103    23    22    1
   104    23    24    1
   105     9    10    1
   106    10    11    1
   107    22    15   am
   108    16    15    2
   109    24    25    2
   110    11    13   am
   111    11    12    2
   112    15    14    1
   113    13    14    1
   114    14    17    1
   115    17    18    1
   116    20    19   ar
   117    18    19    1
   118    19    21   ar
