@<TRIPOS>MOLECULE
tmp/3pxnA00.pdb
 112 109 0 0 0
SMALL
GASTEIGER

@<TRIPOS>ATOM
      1  N        -16.1790  -55.0540   37.7080 N.3    11  ARG11      -0.1231
      2  CA       -16.8570  -55.9620   36.8130 C.3    11  ARG11       0.1694
      3  C        -15.8750  -57.0590   36.4010 C.2    11  ARG11       0.2592
      4  O        -14.7320  -56.7870   36.0130 O.2    11  ARG11      -0.2718
      5  CB       -17.3640  -55.2250   35.5720 C.3    11  ARG11       0.0321
      6  CG       -18.1890  -56.1330   34.6440 C.3    11  ARG11       0.0489
      7  CD       -18.6080  -55.4380   33.3440 C.3    11  ARG11       0.2205
      8  NE       -19.7450  -56.1210   32.7250 N.pl3  11  ARG11      -0.0865
      9  CZ       -20.3020  -55.7660   31.5750 C.cat  11  ARG11       0.5346
     10  NH1      -19.8320  -54.7340   30.9050 N.pl3  11  ARG11       0.1354
     11  NH2      -21.3270  -56.4440   31.0930 N.pl3  11  ARG11       0.1354
     12  N        -16.3290  -58.3040   36.5030 N.am   12  GLU12      -0.1966
     13  CA       -15.5130  -59.4460   36.1400 C.3    12  GLU12       0.1733
     14  C        -15.7080  -59.7260   34.6590 C.2    12  GLU12       0.2616
     15  O        -16.8150  -59.6150   34.1200 O.2    12  GLU12      -0.2715
     16  CB       -15.9200  -60.6600   36.9680 C.3    12  GLU12       0.0429
     17  CG       -15.2400  -61.9480   36.5780 C.3    12  GLU12       0.1163
     18  CD       -15.8830  -63.1490   37.2480 C.2    12  GLU12       0.3649
     19  OE1      -17.1310  -63.1480   37.3610 O.co2  12  GLU12      -0.2457
     20  OE2      -15.1370  -64.0640   37.6800 O.co2  12  GLU12      -0.2457
     21  N        -14.6020  -60.0580   34.0070 N.am   13  ALA13      -0.1964
     22  CA       -14.5780  -60.3600   32.5850 C.3    13  ALA13       0.1713
     23  C        -14.9110  -61.8250   32.3680 C.2    13  ALA13       0.2458
     24  O        -14.7700  -62.6490   33.2750 O.2    13  ALA13      -0.2730
     25  CB       -13.2000  -60.0490   32.0120 C.3    13  ALA13       0.0333
     26  N        -15.3730  -62.1770   31.1580 N.am   14  PRO14      -0.2727
     27  CA       -15.7260  -63.5670   30.8320 C.3    14  PRO14       0.1402
     28  C        -14.5620  -64.5310   31.0570 C.2    14  PRO14       0.2269
     29  O        -13.4110  -64.1920   30.7890 O.2    14  PRO14      -0.2865
     30  CB       -16.1080  -63.4880   29.3600 C.3    14  PRO14       0.0296
     31  CG       -16.6700  -62.1170   29.2410 C.3    14  PRO14       0.0237
     32  CD       -15.6930  -61.2800   30.0320 C.3    14  PRO14       0.0939
     33  N        -19.2360  -61.7650   35.9510 N.3    46  ALA46      -0.1245
     34  CA       -19.2150  -61.9400   34.4990 C.3    46  ALA46       0.1562
     35  C        -20.5890  -62.1850   33.8680 C.2    46  ALA46       0.2260
     36  O        -20.7530  -61.9530   32.6830 O.2    46  ALA46      -0.2867
     37  CB       -18.2700  -63.0790   34.1380 C.3    46  ALA46       0.0290
     38  N        -23.3890  -60.5080   34.3640 N.3    48  ILE48      -0.1245
     39  CA       -24.1950  -59.2960   34.2720 C.3    48  ILE48       0.1561
     40  C        -24.1600  -58.6660   32.8970 C.2    48  ILE48       0.2260
     41  O        -23.0980  -58.4440   32.3350 O.2    48  ILE48      -0.2867
     42  CB       -23.7520  -58.2560   35.3080 C.3    48  ILE48       0.0252
     43  CG1      -23.8090  -58.8990   36.6940 C.3    48  ILE48       0.0019
     44  CG2      -24.6620  -57.0220   35.2530 C.3    48  ILE48       0.0019
     45  CD1      -25.1930  -59.3450   37.0920 C.3    48  ILE48       0.0001
     46  N         -5.4320  -54.9270   30.3390 N.3    79  THR79      -0.1203
     47  CA        -5.8770  -54.9880   28.9550 C.3    79  THR79       0.1994
     48  C         -6.6560  -56.2700   28.7120 C.2    79  THR79       0.2618
     49  O         -6.2650  -57.3390   29.1730 O.2    79  THR79      -0.2717
     50  CB        -4.6600  -54.9280   28.0040 C.3    79  THR79       0.1784
     51  OG1       -4.0270  -53.6490   28.1310 O.3    79  THR79      -0.2211
     52  CG2       -5.0660  -55.1720   26.5700 C.3    79  THR79       0.0376
     53  N         -7.7700  -56.1590   28.0040 N.am   80  GLY80      -0.1942
     54  CA        -8.5670  -57.3400   27.7270 C.3    80  GLY80       0.2014
     55  C         -9.5980  -57.6960   28.7900 C.2    80  GLY80       0.2640
     56  O        -10.1480  -58.7930   28.7670 O.2    80  GLY80      -0.2714
     57  N         -9.8780  -56.7750   29.7080 N.am   81  THR81      -0.1936
     58  CA       -10.8390  -57.0370   30.7740 C.3    81  THR81       0.2028
     59  C        -12.2500  -56.4990   30.4940 C.2    81  THR81       0.2643
     60  O        -13.1200  -56.5560   31.3510 O.2    81  THR81      -0.2714
     61  CB       -10.3110  -56.4800   32.1310 C.3    81  THR81       0.1808
     62  OG1       -9.9520  -55.1000   31.9900 O.3    81  THR81      -0.2208
     63  CG2       -9.0950  -57.2780   32.5790 C.3    81  THR81       0.0379
     64  N        -12.4630  -55.9830   29.2900 N.am   82  GLY82      -0.1939
     65  CA       -13.7740  -55.4850   28.9070 C.3    82  GLY82       0.2014
     66  C        -14.0000  -54.0000   29.1060 C.2    82  GLY82       0.2639
     67  O        -15.1310  -53.5410   29.1830 O.2    82  GLY82      -0.2714
     68  N        -12.9270  -53.2280   29.1870 N.am   83  LYS83      -0.1963
     69  CA       -13.0910  -51.8000   29.4000 C.3    83  LYS83       0.1728
     70  C        -13.7370  -51.1240   28.1980 C.2    83  LYS83       0.2617
     71  O        -14.7610  -50.4710   28.3320 O.2    83  LYS83      -0.2715
     72  CB       -11.7510  -51.1480   29.6860 C.3    83  LYS83       0.0311
     73  CG       -11.1110  -51.6420   30.9480 C.3    83  LYS83       0.0038
     74  CD        -9.7490  -51.0230   31.1440 C.3    83  LYS83       0.0206
     75  CE        -8.8360  -51.3970   29.9930 C.3    83  LYS83       0.1093
     76  NZ        -7.4570  -50.9670   30.3060 N.3    83  LYS83      -0.1314
     77  N        -13.1520  -51.2700   27.0180 N.am   84  SER84      -0.1936
     78  CA       -13.7310  -50.6350   25.8450 C.3    84  SER84       0.2055
     79  C        -15.1200  -51.1530   25.5410 C.2    84  SER84       0.2643
     80  O        -15.9980  -50.4040   25.1150 O.2    84  SER84      -0.2714
     81  CB       -12.8320  -50.8300   24.6480 C.3    84  SER84       0.2130
     82  OG       -11.8520  -49.8180   24.6510 O.3    84  SER84      -0.2179
     83  N        -15.3100  -52.4370   25.7810 N.am   85  TYR85      -0.1973
     84  CA       -16.5860  -53.0800   25.5640 C.3    85  TYR85       0.1639
     85  C        -17.6200  -52.4710   26.4950 C.2    85  TYR85       0.2290
     86  O        -18.7400  -52.1480   26.0830 O.2    85  TYR85      -0.2864
     87  CB       -16.4550  -54.5690   25.8720 C.3    85  TYR85       0.0560
     88  CG       -17.7610  -55.3260   25.9150 C.ar   85  TYR85      -0.0198
     89  CD1      -18.3680  -55.7800   24.7340 C.ar   85  TYR85      -0.0009
     90  CD2      -18.3870  -55.6020   27.1330 C.ar   85  TYR85      -0.0009
     91  CE1      -19.5610  -56.4980   24.7680 C.ar   85  TYR85       0.0417
     92  CE2      -19.5870  -56.3120   27.1770 C.ar   85  TYR85       0.0417
     93  CZ       -20.1640  -56.7570   25.9910 C.ar   85  TYR85       0.1957
     94  OH       -21.3470  -57.4530   26.0440 O.3    85  TYR85      -0.2866
     95  N        -25.0060  -55.9980   23.2500 N.3    99  HIS99      -0.1241
     96  CA       -23.6110  -55.6850   23.5520 C.3    99  HIS99       0.1621
     97  C        -23.2380  -54.1970   23.5260 C.2    99  HIS99       0.2264
     98  O        -22.0860  -53.8450   23.7740 O.2    99  HIS99      -0.2867
     99  CB       -22.6900  -56.4570   22.6010 C.3    99  HIS99       0.0745
    100  CG       -22.8170  -57.9460   22.7100 C.ar   99  HIS99       0.0817
    101  ND1      -22.6150  -58.6280   23.8920 N.ar   99  HIS99      -0.2268
    102  CD2      -23.1200  -58.8860   21.7820 C.ar   99  HIS99       0.1154
    103  CE1      -22.7870  -59.9220   23.6870 C.ar   99  HIS99       0.1986
    104  NE2      -23.0930  -60.1060   22.4160 N.ar   99  HIS99      -0.2212
    105  N        -12.0060  -44.1990   28.9280 N.3   206  ASP206     -0.1239
    106  CA       -11.6690  -45.5900   28.6850 C.3   206  ASP206      0.1674
    107  C        -10.1380  -45.6540   28.6670 C.2   206  ASP206      0.2266
    108  O         -9.5210  -45.5870   27.6040 O.2   206  ASP206     -0.2867
    109  CB       -12.2840  -45.9830   27.3400 C.3   206  ASP206      0.1410
    110  CG       -11.7680  -47.3110   26.8060 C.2   206  ASP206      0.3668
    111  OD1      -11.8310  -47.5060   25.5740 O.co2 206  ASP206     -0.2456
    112  OD2      -11.3310  -48.1700   27.5930 O.co2 206  ASP206     -0.2456
@<TRIPOS>BOND
     1   102   104   ar
     2   102   100   ar
     3   104   103   ar
     4    99   100    1
     5    99    96    1
     6   100   101   ar
     7    95    96    1
     8    97    96    1
     9    97    98    2
    10   103   101   ar
    11    81    82    1
    12    81    78    1
    13    89    91   ar
    14    89    88   ar
    15    91    93   ar
    16    80    79    2
    17    79    83   am
    18    79    78    1
    19    84    83    1
    20    84    87    1
    21    84    85    1
    22   111   110   ar
    23    78    77    1
    24    87    88    1
    25    88    90   ar
    26    93    94    1
    27    93    92   ar
    28    86    85    2
    29    52    50    1
    30   110   109    1
    31   110   112   ar
    32    77    70   am
    33    90    92   ar
    34   109   106    1
    35   108   107    2
    36    54    53    1
    37    54    55    1
    38    50    51    1
    39    50    47    1
    40    53    48   am
    41    70    71    2
    42    70    69    1
    43   107   106    1
    44   106   105    1
    45    48    47    1
    46    48    49    2
    47    56    55    2
    48    55    57   am
    49    65    66    1
    50    65    64    1
    51    47    46    1
    52    66    67    2
    53    66    68   am
    54    68    69    1
    55    31    30    1
    56    31    32    1
    57    64    59   am
    58    30    27    1
    59    69    72    1
    60    72    73    1
    61    57    58    1
    62    75    76    1
    63    75    74    1
    64    32    26    1
    65    59    58    1
    66    59    60    2
    67    58    61    1
    68    29    28    2
    69    27    28    1
    70    27    26    1
    71    10     9    1
    72    73    74    1
    73    11     9    1
    74    26    23   am
    75     9     8    2
    76    62    61    1
    77    25    22    1
    78    61    63    1
    79    41    40    2
    80    23    22    1
    81    23    24    2
    82    22    21    1
    83    36    35    2
    84     8     7    1
    85    40    39    1
    86     7     6    1
    87    35    34    1
    88    21    14   am
    89    15    14    2
    90    37    34    1
    91    39    38    1
    92    39    42    1
    93    34    33    1
    94     6     5    1
    95    14    13    1
    96    44    42    1
    97    42    43    1
    98     5     2    1
    99     4     3    2
   100    13    12    1
   101    13    16    1
   102     3    12   am
   103     3     2    1
   104    17    16    1
   105    17    18    1
   106    43    45    1
   107     2     1    1
   108    18    19   ar
   109    18    20   ar
