@<TRIPOS>MOLECULE
tmp/3pxpA00.pdb
 198 187 0 0 0
SMALL
GASTEIGER

@<TRIPOS>ATOM
      1  N         54.4720    1.6730   11.4890 N.3   110  PHE110     -0.1241
      2  CA        54.8630    0.3380   11.0670 C.3   110  PHE110      0.1605
      3  C         53.7360   -0.2960   10.2550 C.2   110  PHE110      0.2264
      4  O         52.6230    0.2410   10.2100 O.2   110  PHE110     -0.2867
      5  CB        55.2800   -0.5410   12.2580 C.3   110  PHE110      0.0534
      6  CG        54.2500   -0.7500   13.3420 C.ar  110  PHE110     -0.0203
      7  CD1       54.1460    0.1430   14.4090 C.ar  110  PHE110     -0.0042
      8  CD2       53.4210   -1.8640   13.3280 C.ar  110  PHE110     -0.0042
      9  CE1       53.2000   -0.0600   15.4090 C.ar  110  PHE110     -0.0003
     10  CE2       52.4780   -2.0650   14.3380 C.ar  110  PHE110     -0.0003
     11  CZ        52.3710   -1.1610   15.3690 C.ar  110  PHE110     -0.0000
     12  N         54.4940   -8.2340   11.8260 N.3   118  ILE118     -0.1245
     13  CA        55.0560   -6.9050   11.5220 C.3   118  ILE118      0.1561
     14  C         55.9730   -7.0710   10.3280 C.2   118  ILE118      0.2260
     15  O         56.9270   -7.8360   10.3840 O.2   118  ILE118     -0.2867
     16  CB        55.7310   -6.2320   12.7620 C.3   118  ILE118      0.0252
     17  CG1       54.7600   -6.2480   14.0020 C.3   118  ILE118      0.0019
     18  CG2       56.1800   -4.7890   12.4150 C.3   118  ILE118      0.0019
     19  CD1       55.4110   -6.0120   15.3970 C.3   118  ILE118      0.0001
     20  N         58.9760   -1.4140    9.7570 N.3   121  ALA121     -0.1245
     21  CA        58.8430   -0.3710   10.7600 C.3   121  ALA121      0.1562
     22  C         59.8750    0.6880   10.4910 C.2   121  ALA121      0.2260
     23  O         60.9900    0.3410   10.1080 O.2   121  ALA121     -0.2867
     24  CB        59.0410   -0.9650   12.1710 C.3   121  ALA121      0.0290
     25  N         59.9960    3.9470   15.3980 N.3   124  THR124     -0.1203
     26  CA        59.2740    2.9000   16.1240 C.3   124  THR124      0.1994
     27  C         60.2400    2.0800   16.9700 C.2   124  THR124      0.2617
     28  O         59.9830    1.8740   18.1560 O.2   124  THR124     -0.2717
     29  CB        58.4790    2.0090   15.1570 C.3   124  THR124      0.1784
     30  OG1       57.5620    2.8240   14.4280 O.3   124  THR124     -0.2211
     31  CG2       57.7040    0.8850   15.8850 C.3   124  THR124      0.0376
     32  N         61.3580    1.6600   16.3800 N.am  125  ILE125     -0.1979
     33  CA        62.3880    0.8520   17.0470 C.3   125  ILE125      0.1595
     34  C         62.9850    1.6180   18.2090 C.2   125  ILE125      0.2287
     35  O         63.0930    1.0620   19.2950 O.2   125  ILE125     -0.2864
     36  CB        63.4820    0.4010   16.0300 C.3   125  ILE125      0.0276
     37  CG1       62.8640   -0.3540   14.7980 C.3   125  ILE125      0.0022
     38  CG2       64.5990   -0.4030   16.7210 C.3   125  ILE125      0.0022
     39  CD1       62.3020   -1.7550   15.0920 C.3   125  ILE125      0.0001
     40  N         60.1200    2.2070   21.1230 N.3   128  PHE128     -0.1241
     41  CA        59.8170    1.0160   21.9100 C.3   128  PHE128      0.1605
     42  C         61.0650    0.4040   22.5190 C.2   128  PHE128      0.2264
     43  O         60.9310   -0.4260   23.4110 O.2   128  PHE128     -0.2867
     44  CB        59.0560   -0.0050   21.0540 C.3   128  PHE128      0.0534
     45  CG        57.6160    0.4050   20.8680 C.ar  128  PHE128     -0.0203
     46  CD1       56.7110    0.3210   21.9250 C.ar  128  PHE128     -0.0042
     47  CD2       57.1770    0.9410   19.6610 C.ar  128  PHE128     -0.0042
     48  CE1       55.3900    0.7460   21.7760 C.ar  128  PHE128     -0.0003
     49  CE2       55.8510    1.3500   19.5010 C.ar  128  PHE128     -0.0003
     50  CZ        54.9630    1.2510   20.5640 C.ar  128  PHE128     -0.0000
     51  N         63.3590   -1.6390   21.2990 N.3   130  ILE130     -0.1245
     52  CA        63.3400   -3.0730   21.0350 C.3   130  ILE130      0.1561
     53  C         64.8040   -3.5540   21.0040 C.2   130  ILE130      0.2260
     54  O         65.5720   -3.0180   20.1980 O.2   130  ILE130     -0.2867
     55  CB        62.5850   -3.3650   19.6940 C.3   130  ILE130      0.0252
     56  CG1       61.1410   -2.7720   19.6700 C.3   130  ILE130      0.0019
     57  CG2       62.6220   -4.8720   19.3340 C.3   130  ILE130      0.0019
     58  CD1       60.0410   -3.5650   20.4870 C.3   130  ILE130      0.0001
     59  N         66.6340   -9.3290   19.7830 N.3   133  LEU133     -0.1231
     60  CA        65.2650   -9.8780   19.6770 C.3   133  LEU133      0.1693
     61  C         64.7320   -9.7960   18.2310 C.2   133  LEU133      0.2591
     62  O         63.8990  -10.6170   17.8460 O.2   133  LEU133     -0.2718
     63  CB        64.3020   -9.1630   20.6290 C.3   133  LEU133      0.0284
     64  CG        63.9990   -9.8780   21.9480 C.3   133  LEU133      0.0019
     65  CD1       65.2440  -10.0050   22.8350 C.3   133  LEU133      0.0001
     66  CD2       62.9140   -9.1320   22.7290 C.3   133  LEU133      0.0001
     67  N         65.2030   -8.8110   17.4510 N.am  134  ILE134     -0.1980
     68  CA        64.8580   -8.6590   16.0400 C.3   134  ILE134      0.1595
     69  C         65.6250   -9.7370   15.2460 C.2   134  ILE134      0.2287
     70  O         65.0450  -10.3890   14.3760 O.2   134  ILE134     -0.2864
     71  CB        65.1780   -7.2100   15.5720 C.3   134  ILE134      0.0276
     72  CG1       64.1160   -6.2170   16.1260 C.3   134  ILE134      0.0022
     73  CG2       65.3040   -7.1080   14.0340 C.3   134  ILE134      0.0022
     74  CD1       64.5560   -4.7390   16.1800 C.3   134  ILE134      0.0001
     75  N         64.0150  -13.2380   15.8050 N.3   137  ALA137     -0.1245
     76  CA        62.5980  -13.3450   15.3970 C.3   137  ALA137      0.1562
     77  C         62.4090  -14.3290   14.2040 C.2   137  ALA137      0.2260
     78  O         61.4070  -15.0470   14.2180 O.2   137  ALA137     -0.2867
     79  CB        62.0340  -11.9640   15.0380 C.3   137  ALA137      0.0290
     80  N         57.5500  -15.1560   15.7110 N.3   143  GLY143     -0.1210
     81  CA        58.6660  -14.2380   15.9330 C.3   143  GLY143      0.1956
     82  C         58.4410  -12.7670   15.6370 C.2   143  GLY143      0.2611
     83  O         58.9330  -11.9190   16.3850 O.2   143  GLY143     -0.2717
     84  N         57.7080  -12.4460   14.5500 N.am  144  TYR144     -0.1976
     85  CA        57.4490  -11.0430   14.1770 C.3   144  TYR144      0.1639
     86  C         56.0190  -10.6020   14.4570 C.2   144  TYR144      0.2290
     87  O         55.6130   -9.5320   13.9870 O.2   144  TYR144     -0.2864
     88  CB        57.7010  -10.8460   12.6850 C.3   144  TYR144      0.0560
     89  CG        59.1400  -10.9850   12.2550 C.ar  144  TYR144     -0.0198
     90  CD1       60.0610   -9.9590   12.4840 C.ar  144  TYR144     -0.0009
     91  CD2       59.5690  -12.1040   11.5450 C.ar  144  TYR144     -0.0009
     92  CE1       61.3770  -10.0600   12.0470 C.ar  144  TYR144      0.0417
     93  CE2       60.8800  -12.2090   11.0940 C.ar  144  TYR144      0.0417
     94  CZ        61.7760  -11.1810   11.3430 C.ar  144  TYR144      0.1957
     95  OH        63.0740  -11.2520   10.9150 O.3   144  TYR144     -0.2866
     96  N         52.7150   -9.1140   16.1120 N.3   146  LEU146     -0.1245
     97  CA        52.4120   -7.9920   17.0050 C.3   146  LEU146      0.1561
     98  C         52.0250   -8.5030   18.4210 C.2   146  LEU146      0.2260
     99  O         52.3300   -7.8470   19.4090 O.2   146  LEU146     -0.2867
    100  CB        51.2760   -7.1410   16.3810 C.3   146  LEU146      0.0270
    101  CG        50.9260   -5.8130   17.0760 C.3   146  LEU146      0.0019
    102  CD1       52.1510   -4.9380   17.3150 C.3   146  LEU146      0.0001
    103  CD2       49.8570   -5.0620   16.3390 C.3   146  LEU146      0.0001
    104  N         53.2420  -11.1780   19.8390 N.3   147  ARG147     -0.1231
    105  CA        54.4490  -11.5910   20.5330 C.3   147  ARG147      0.1694
    106  C         55.0780  -10.3970   21.2360 C.2   147  ARG147      0.2592
    107  O         55.6090  -10.5520   22.3300 O.2   147  ARG147     -0.2718
    108  CB        55.4540  -12.2190   19.5930 C.3   147  ARG147      0.0321
    109  CG        56.6880  -12.7330   20.3380 C.3   147  ARG147      0.0489
    110  CD        57.8580  -12.8600   19.4280 C.3   147  ARG147      0.2205
    111  NE        59.0000  -13.3440   20.1750 N.pl3 147  ARG147     -0.0865
    112  CZ        60.2570  -13.1690   19.8010 C.cat 147  ARG147      0.5346
    113  NH1       60.5390  -12.5240   18.6750 N.pl3 147  ARG147      0.1354
    114  NH2       61.2450  -13.6520   20.5380 N.pl3 147  ARG147      0.1354
    115  N         54.9870   -9.2040   20.6310 N.am  148  VAL148     -0.1966
    116  CA        55.5140   -7.9730   21.2260 C.3   148  VAL148      0.1727
    117  C         54.6770   -7.6040   22.4660 C.2   148  VAL148      0.2616
    118  O         55.2440   -7.3480   23.5210 O.2   148  VAL148     -0.2715
    119  CB        55.5530   -6.8080   20.1830 C.3   148  VAL148      0.0290
    120  CG1       55.9460   -5.4820   20.8350 C.3   148  VAL148      0.0023
    121  CG2       56.4880   -7.1430   19.0300 C.3   148  VAL148      0.0023
    122  N         53.3440   -7.6210   22.3340 N.am  149  VAL149     -0.1977
    123  CA        52.3970   -7.2340   23.3740 C.3   149  VAL149      0.1596
    124  C         52.3240   -8.2800   24.5000 C.2   149  VAL149      0.2287
    125  O         52.4030   -7.8900   25.6590 O.2   149  VAL149     -0.2864
    126  CB        50.9990   -6.9320   22.7580 C.3   149  VAL149      0.0276
    127  CG1       49.9650   -6.5810   23.8320 C.3   149  VAL149      0.0022
    128  CG2       51.1050   -5.7920   21.7570 C.3   149  VAL149      0.0022
    129  N         56.4010   -5.5240   27.4680 N.3   156  PHE156     -0.1241
    130  CA        55.5060   -4.4480   27.0610 C.3   156  PHE156      0.1605
    131  C         54.6190   -4.0040   28.2260 C.2   156  PHE156      0.2264
    132  O         54.3490   -2.8060   28.3520 O.2   156  PHE156     -0.2867
    133  CB        54.6620   -4.8460   25.8410 C.3   156  PHE156      0.0534
    134  CG        53.8530   -3.7130   25.2550 C.ar  156  PHE156     -0.0203
    135  CD1       54.4770   -2.5680   24.7550 C.ar  156  PHE156     -0.0042
    136  CD2       52.4770   -3.7980   25.1690 C.ar  156  PHE156     -0.0042
    137  CE1       53.7260   -1.5110   24.2200 C.ar  156  PHE156     -0.0003
    138  CE2       51.7370   -2.7680   24.5880 C.ar  156  PHE156     -0.0003
    139  CZ        52.3610   -1.6270   24.1280 C.ar  156  PHE156     -0.0000
    140  N         45.2190   -1.6940   27.0800 N.3   166  VAL166     -0.1245
    141  CA        46.0780   -1.8460   25.9020 C.3   166  VAL166      0.1561
    142  C         46.0540   -3.3160   25.4080 C.2   166  VAL166      0.2260
    143  O         45.9360   -3.5500   24.1970 O.2   166  VAL166     -0.2867
    144  CB        47.5250   -1.3390   26.1860 C.3   166  VAL166      0.0252
    145  CG1       48.4570   -1.6580   25.0360 C.3   166  VAL166      0.0019
    146  CG2       47.5330    0.1630   26.4480 C.3   166  VAL166      0.0019
    147  N         44.4930   -4.6130   21.8260 N.3   170  ASN170     -0.1240
    148  CA        45.3320   -5.3780   20.8970 C.3   170  ASN170      0.1653
    149  C         44.7660   -6.7870   20.6330 C.2   170  ASN170      0.2266
    150  O         44.8510   -7.2590   19.4960 O.2   170  ASN170     -0.2867
    151  CB        46.7680   -5.4540   21.3920 C.3   170  ASN170      0.1155
    152  CG        47.5650   -4.2390   21.0080 C.2   170  ASN170      0.2627
    153  OD1       48.0070   -4.1030   19.8680 O.2   170  ASN170     -0.2716
    154  ND2       47.6970   -3.2880   21.9260 N.am  170  ASN170     -0.0877
    155  N         46.4710    6.6830   23.9010 N.3   219  TYR219     -0.1241
    156  CA        47.4040    6.3390   24.9780 C.3   219  TYR219      0.1605
    157  C         47.6920    7.5790   25.8220 C.2   219  TYR219      0.2264
    158  O         48.1120    8.6030   25.2890 O.2   219  TYR219     -0.2867
    159  CB        48.7320    5.7960   24.4180 C.3   219  TYR219      0.0534
    160  CG        48.6200    4.5070   23.6330 C.ar  219  TYR219     -0.0201
    161  CD1       48.2440    4.5140   22.2920 C.ar  219  TYR219     -0.0009
    162  CD2       48.9220    3.2820   24.2200 C.ar  219  TYR219     -0.0009
    163  CE1       48.1330    3.3310   21.5640 C.ar  219  TYR219      0.0417
    164  CE2       48.8300    2.0880   23.4940 C.ar  219  TYR219      0.0417
    165  CZ        48.4210    2.1200   22.1700 C.ar  219  TYR219      0.1957
    166  OH        48.3110    0.9590   21.4430 O.3   219  TYR219     -0.2866
    167  N         49.3480   10.1910   23.0970 N.3   231  TYR231     -0.1241
    168  CA        49.3450    9.9820   21.6520 C.3   231  TYR231      0.1605
    169  C         48.2150    9.0510   21.2430 C.2   231  TYR231      0.2264
    170  O         47.7220    8.2640   22.0540 O.2   231  TYR231     -0.2867
    171  CB        50.7120    9.4470   21.1380 C.3   231  TYR231      0.0534
    172  CG        51.1920    8.1780   21.8070 C.ar  231  TYR231     -0.0201
    173  CD1       51.9670    8.2270   22.9690 C.ar  231  TYR231     -0.0009
    174  CD2       50.9650    6.9350   21.2260 C.ar  231  TYR231     -0.0009
    175  CE1       52.4450    7.0640   23.5710 C.ar  231  TYR231      0.0417
    176  CE2       51.4500    5.7680   21.8080 C.ar  231  TYR231      0.0417
    177  CZ        52.2040    5.8360   22.9730 C.ar  231  TYR231      0.1957
    178  OH        52.7050    4.6730   23.5180 O.3   231  TYR231     -0.2866
    179  N         51.4390    6.6700   15.0440 N.3   248  TYR248     -0.1241
    180  CA        51.2280    7.1990   16.3910 C.3   248  TYR248      0.1605
    181  C         51.3610    8.7270   16.3300 C.2   248  TYR248      0.2264
    182  O         52.4630    9.2200   16.1110 O.2   248  TYR248     -0.2867
    183  CB        52.1970    6.5490   17.3900 C.3   248  TYR248      0.0534
    184  CG        51.9780    5.0550   17.5540 C.ar  248  TYR248     -0.0201
    185  CD1       52.4170    4.1530   16.5870 C.ar  248  TYR248     -0.0009
    186  CD2       51.3530    4.5400   18.6850 C.ar  248  TYR248     -0.0009
    187  CE1       52.2000    2.7830   16.7230 C.ar  248  TYR248      0.0417
    188  CE2       51.1940    3.1670   18.8660 C.ar  248  TYR248      0.0417
    189  CZ        51.6000    2.2910   17.8740 C.ar  248  TYR248      0.1957
    190  OH        51.3990    0.9380   18.0140 O.3   248  TYR248     -0.2866
    191  N         61.0700   -6.5290    8.3260 N.3   273  LEU273     -0.1245
    192  CA        60.9290   -7.5170    9.3710 C.3   273  LEU273      0.1561
    193  C         60.3620   -8.8260    8.8240 C.2   273  LEU273      0.2260
    194  O         61.1150   -9.5110    8.1530 O.2   273  LEU273     -0.2867
    195  CB        60.1310   -6.9150   10.5260 C.3   273  LEU273      0.0270
    196  CG        60.8620   -5.7070   11.2140 C.3   273  LEU273      0.0019
    197  CD1       59.8870   -4.7790   11.8740 C.3   273  LEU273      0.0001
    198  CD2       61.9600   -6.1710   12.2080 C.3   273  LEU273      0.0001
@<TRIPOS>BOND
     1   194   193    2
     2   191   192    1
     3   193   192    1
     4   192   195    1
     5    20    21    1
     6    23    22    2
     7     4     3    2
     8     3     2    1
     9    14    15    2
    10    14    13    1
    11    22    21    1
    12   195   196    1
    13    21    24    1
    14    95    94    1
    15     2     1    1
    16     2     5    1
    17    93    94   ar
    18    93    91   ar
    19   196   197    1
    20   196   198    1
    21    94    92   ar
    22    13    12    1
    23    13    16    1
    24    91    89   ar
    25    92    90   ar
    26    89    90   ar
    27    89    88    1
    28     5     6    1
    29    18    16    1
    30    88    85    1
    31    16    17    1
    32     8     6   ar
    33     8    10   ar
    34     6     7   ar
    35    87    86    2
    36    17    19    1
    37    73    71    1
    38    85    86    1
    39    85    84    1
    40    77    78    2
    41    77    76    1
    42    10    11   ar
    43    70    69    2
    44     7     9   ar
    45    30    29    1
    46    84    82   am
    47    37    39    1
    48    37    36    1
    49    79    76    1
    50   179   180    1
    51    29    31    1
    52    29    26    1
    53    69    68    1
    54    11     9   ar
    55    76    75    1
    56    25    26    1
    57    71    68    1
    58    71    72    1
    59    82    81    1
    60    82    83    2
    61    80    81    1
    62    36    38    1
    63    36    33    1
    64    68    67    1
    65   182   181    2
    66    96    97    1
    67    26    27    1
    68    72    74    1
    69   181   180    1
    70   103   101    1
    71    32    27   am
    72    32    33    1
    73   100    97    1
    74   100   101    1
    75   180   183    1
    76   185   187   ar
    77   185   184   ar
    78   187   189   ar
    79    27    28    2
    80    97    98    1
    81    33    34    1
    82   101   102    1
    83   183   184    1
    84    67    61   am
    85   184   186   ar
    86    62    61    2
    87   189   190    1
    88   189   188   ar
    89    34    35    2
    90    61    60    1
    91    98    99    2
    92   113   112    1
    93   186   188   ar
    94   121   119    1
    95    57    55    1
    96   110   111    1
    97   110   109    1
    98   150   149    2
    99    49    47   ar
   100    49    50   ar
   101   108   109    1
   102   108   105    1
   103    47    45   ar
   104    56    55    1
   105    56    58    1
   106    60    59    1
   107    60    63    1
   108    55    52    1
   109   112   111    2
   110   112   114    1
   111   104   105    1
   112   153   152    2
   113   119   120    1
   114   119   116    1
   115    54    53    2
   116   105   106    1
   117    50    48   ar
   118    63    64    1
   119   115   116    1
   120   115   106   am
   121   149   148    1
   122    45    44    1
   123    45    46   ar
   124   148   151    1
   125   148   147    1
   126    53    52    1
   127   152   151    1
   128   152   154   am
   129    52    51    1
   130    44    41    1
   131    40    41    1
   132   171   168    1
   133   171   172    1
   134   174   172   ar
   135   174   176   ar
   136   116   117    1
   137   106   107    2
   138   169   168    1
   139   169   170    2
   140   166   165    1
   141   163   165   ar
   142   163   161   ar
   143   168   167    1
   144   128   126    1
   145    48    46   ar
   146   172   173   ar
   147   176   177   ar
   148    41    42    1
   149    64    66    1
   150    64    65    1
   151   165   164   ar
   152   161   160   ar
   153   122   117   am
   154   122   123    1
   155   117   118    2
   156    42    43    2
   157   126   123    1
   158   126   127    1
   159   173   175   ar
   160   177   178    1
   161   177   175   ar
   162   123   124    1
   163   164   162   ar
   164   160   162   ar
   165   160   159    1
   166   155   156    1
   167   139   137   ar
   168   139   138   ar
   169   143   142    2
   170   137   135   ar
   171   159   156    1
   172   124   125    2
   173   138   136   ar
   174   135   134   ar
   175   156   157    1
   176   145   144    1
   177   136   134   ar
   178   134   133    1
   179   158   157    2
   180   142   141    1
   181   133   130    1
   182   141   144    1
   183   141   140    1
   184   144   146    1
   185   130   129    1
   186   130   131    1
   187   131   132    2
