@<TRIPOS>MOLECULE
tmp/3pxqA00.pdb
 155 146 0 0 0
SMALL
GASTEIGER

@<TRIPOS>ATOM
      1  N        103.3250   90.5490   33.8700 N.3    14  ILE14      -0.1231
      2  CA       102.4130   91.2760   32.9980 C.3    14  ILE14       0.1696
      3  C        102.5240   90.7630   31.5740 C.2    14  ILE14       0.2632
      4  O        101.5200   90.5970   30.8880 O.2    14  ILE14      -0.2714
      5  CB       102.7250   92.7820   32.9410 C.3    14  ILE14       0.0266
      6  CG1      102.5620   93.4270   34.3080 C.3    14  ILE14       0.0019
      7  CG2      101.7880   93.4470   31.9500 C.3    14  ILE14       0.0020
      8  CD1      103.0650   94.8630   34.3400 C.3    14  ILE14       0.0001
      9  N        103.7530   90.5250   31.1300 N.am   15  GLY15      -0.1718
     10  CA       103.9480   90.0570   29.7760 C.2    15  GLY15       0.1480
     11  C        105.3510   89.6080   29.4350 C.2    15  GLY15       0.2820
     12  O        106.2380   89.5730   30.2920 O.2    15  GLY15      -0.2669
     13  N        105.5410   89.2970   28.1560 N.am   16  GLU16      -0.1929
     14  CA       106.8020   88.7920   27.6290 C.3    16  GLU16       0.1736
     15  C        107.4250   89.6910   26.5590 C.2    16  GLU16       0.2617
     16  O        107.1780   89.5090   25.3640 O.2    16  GLU16      -0.2715
     17  CB       106.5500   87.4100   27.0310 C.3    16  GLU16       0.0429
     18  CG       107.7840   86.6870   26.5610 C.3    16  GLU16       0.1163
     19  CD       108.5250   86.0420   27.7050 C.2    16  GLU16       0.3649
     20  OE1      108.9380   86.7700   28.6370 O.co2  16  GLU16      -0.2457
     21  OE2      108.6840   84.8050   27.6690 O.co2  16  GLU16      -0.2457
     22  N        108.2270   90.6590   26.9780 N.am   17  GLY17      -0.1955
     23  CA       108.8680   91.5270   26.0100 C.3    17  GLY17       0.1869
     24  C        109.8580   90.7140   25.1900 C.2    17  GLY17       0.2309
     25  O        110.2680   89.6220   25.5930 O.2    17  GLY17      -0.2863
     26  N        108.4210   91.1830   31.7950 N.3    22  VAL22      -0.1245
     27  CA       107.9380   92.3630   32.4720 C.3    22  VAL22       0.1561
     28  C        107.0190   91.9700   33.6150 C.2    22  VAL22       0.2260
     29  O        106.0670   91.2350   33.4220 O.2    22  VAL22      -0.2867
     30  CB       107.1680   93.2970   31.5200 C.3    22  VAL22       0.0252
     31  CG1      106.8920   94.6110   32.2170 C.3    22  VAL22       0.0019
     32  CG2      107.9800   93.5320   30.2510 C.3    22  VAL22       0.0019
     33  N        106.1860   98.9950   36.0780 N.3    35  ALA35      -0.1245
     34  CA       106.3850   97.8170   35.2550 C.3    35  ALA35       0.1562
     35  C        107.9000   97.6620   35.1620 C.2    35  ALA35       0.2260
     36  O        108.6020   98.5900   34.7380 O.2    35  ALA35      -0.2867
     37  CB       105.8020   98.0330   33.8780 C.3    35  ALA35       0.0290
     38  N        111.1160   95.5760   33.6480 N.3    37  LYS37      -0.1245
     39  CA       111.5580   94.6840   32.5970 C.3    37  LYS37       0.1561
     40  C        112.9890   94.3050   32.9260 C.2    37  LYS37       0.2260
     41  O        113.8540   95.1770   33.0680 O.2    37  LYS37      -0.2867
     42  CB       111.5150   95.3800   31.2440 C.3    37  LYS37       0.0271
     43  CG       112.3620   94.6860   30.1940 C.3    37  LYS37       0.0035
     44  CD       111.6940   94.6190   28.8370 C.3    37  LYS37       0.0206
     45  CE       111.0940   95.9390   28.4130 C.3    37  LYS37       0.1093
     46  NZ       110.4560   95.8440   27.0680 N.3    37  LYS37      -0.1314
     47  N        105.9800  104.6180   25.7670 N.3    64  VAL64      -0.1245
     48  CA       105.9580  104.2210   27.1700 C.3    64  VAL64       0.1561
     49  C        107.1150  104.9220   27.9010 C.2    64  VAL64       0.2260
     50  O        108.2520  104.9840   27.4200 O.2    64  VAL64      -0.2867
     51  CB       106.0320  102.6830   27.3180 C.3    64  VAL64       0.0252
     52  CG1      107.3650  102.1860   26.8240 C.3    64  VAL64       0.0019
     53  CG2      105.7380  102.2670   28.7580 C.3    64  VAL64       0.0019
     54  N        109.5530  101.0530   34.2780 N.3    80  PHE80      -0.1227
     55  CA       108.6360  101.7900   33.4120 C.3    80  PHE80       0.1736
     56  C        107.3660  102.1350   34.1460 C.2    80  PHE80       0.2595
     57  O        107.0620  101.5650   35.1960 O.2    80  PHE80      -0.2718
     58  CB       108.2130  100.9380   32.2160 C.3    80  PHE80       0.0547
     59  CG       109.2890  100.7130   31.2030 C.ar   80  PHE80      -0.0202
     60  CD1      109.5480  101.6720   30.2210 C.ar   80  PHE80      -0.0042
     61  CD2      110.0050   99.5230   31.1940 C.ar   80  PHE80      -0.0042
     62  CE1      110.5150  101.4380   29.2250 C.ar   80  PHE80      -0.0003
     63  CE2      110.9700   99.2750   30.2110 C.ar   80  PHE80      -0.0003
     64  CZ       111.2250  100.2350   29.2240 C.ar   80  PHE80      -0.0000
     65  N        106.6110  103.0570   33.5650 N.am   81  GLU81      -0.1979
     66  CA       105.3240  103.4200   34.1210 C.3    81  GLU81       0.1602
     67  C        104.5250  102.1190   34.0130 C.2    81  GLU81       0.2287
     68  O        104.7870  101.2850   33.1300 O.2    81  GLU81      -0.2864
     69  CB       104.6690  104.5150   33.2720 C.3    81  GLU81       0.0415
     70  CG       104.4480  104.1120   31.8100 C.3    81  GLU81       0.1163
     71  CD       103.6330  105.1340   31.0260 C.2    81  GLU81       0.3649
     72  OE1      102.5780  105.5440   31.5330 O.co2  81  GLU81      -0.2457
     73  OE2      104.0290  105.5180   29.9040 O.co2  81  GLU81      -0.2457
     74  N        101.5010   99.8280   33.0420 N.3    83  LEU83      -0.1231
     75  CA       100.4230   99.6920   32.0820 C.3    83  LEU83       0.1693
     76  C        100.3280   98.1810   32.0830 C.2    83  LEU83       0.2592
     77  O        101.2790   97.5110   32.4960 O.2    83  LEU83      -0.2718
     78  CB       100.8200  100.2260   30.7100 C.3    83  LEU83       0.0284
     79  CG       101.0510  101.7400   30.7140 C.3    83  LEU83       0.0019
     80  CD1      101.7220  102.1870   29.4180 C.3    83  LEU83       0.0001
     81  CD2       99.7370  102.4430   30.9280 C.3    83  LEU83       0.0001
     82  N         99.2050   97.6360   31.6550 N.am   84  HIS84      -0.1962
     83  CA        99.0640   96.1900   31.6720 C.3    84  HIS84       0.1787
     84  C         98.0250   95.7520   30.6640 C.2    84  HIS84       0.2620
     85  O         97.5170   94.6340   30.7310 O.2    84  HIS84      -0.2715
     86  CB        98.6470   95.7290   33.0620 C.3    84  HIS84       0.0785
     87  CG        97.2850   96.1980   33.4630 C.ar   84  HIS84       0.0821
     88  ND1       96.1640   95.4050   33.3530 N.ar   84  HIS84      -0.2267
     89  CD2       96.8600   97.3880   33.9490 C.ar   84  HIS84       0.1154
     90  CE1       95.1070   96.0860   33.7550 C.ar   84  HIS84       0.1986
     91  NE2       95.5020   97.2920   34.1220 N.ar   84  HIS84      -0.2212
     92  N         97.6880   96.6540   29.7560 N.am   85  GLN85      -0.1963
     93  CA        96.7330   96.3460   28.7060 C.3    85  GLN85       0.1733
     94  C         97.4540   96.6440   27.3970 C.2    85  GLN85       0.2616
     95  O         98.2670   97.5520   27.3460 O.2    85  GLN85      -0.2715
     96  CB        95.5090   97.2430   28.8320 C.3    85  GLN85       0.0408
     97  CG        94.4090   96.8470   27.9060 C.3    85  GLN85       0.0908
     98  CD        94.0360   95.3960   28.0630 C.2    85  GLN85       0.2608
     99  OE1       93.8970   94.6780   27.0770 O.2    85  GLN85      -0.2717
    100  NE2       93.8710   94.9530   29.3100 N.am   85  GLN85      -0.0878
    101  N         97.1620   95.8880   26.3450 N.am   86  ASP86      -0.1971
    102  CA        97.8160   96.1400   25.0610 C.3    86  ASP86       0.1709
    103  C         96.8120   95.9250   23.9340 C.2    86  ASP86       0.2293
    104  O         95.7590   95.2990   24.1340 O.2    86  ASP86      -0.2864
    105  CB        99.0370   95.2330   24.8930 C.3    86  ASP86       0.1436
    106  CG        98.6670   93.7640   24.8060 C.2    86  ASP86       0.3671
    107  OD1       97.9740   93.3910   23.8450 O.co2  86  ASP86      -0.2456
    108  OD2       99.0650   92.9830   25.7000 O.co2  86  ASP86      -0.2456
    109  N         95.7140   92.1480   23.3000 N.3    89  LYS89      -0.1245
    110  CA        94.7610   91.6620   24.2910 C.3    89  LYS89       0.1561
    111  C         93.4130   92.3410   24.0760 C.2    89  LYS89       0.2260
    112  O         92.3630   91.6980   24.1410 O.2    89  LYS89      -0.2867
    113  CB        95.2610   91.9520   25.7140 C.3    89  LYS89       0.0271
    114  CG        96.4980   91.1680   26.1280 C.3    89  LYS89       0.0035
    115  CD        97.0250   91.6430   27.4920 C.3    89  LYS89       0.0206
    116  CE        95.9300   91.5990   28.5620 C.3    89  LYS89       0.1093
    117  NZ        96.3870   92.1520   29.8840 N.3    89  LYS89      -0.1314
    118  N        100.8410   93.4140   20.0770 N.3   131  GLN131     -0.1231
    119  CA       101.3020   93.0370   21.4100 C.3   131  GLN131      0.1698
    120  C        102.1080   94.1180   22.1410 C.2   131  GLN131      0.2592
    121  O        101.9690   94.3000   23.3540 O.2   131  GLN131     -0.2718
    122  CB       102.1630   91.7690   21.3080 C.3   131  GLN131      0.0381
    123  CG       102.8110   91.3340   22.6080 C.3   131  GLN131      0.0905
    124  CD       103.7100   90.1240   22.4310 C.2   131  GLN131      0.2608
    125  OE1      103.2540   89.0520   22.0350 O.2   131  GLN131     -0.2717
    126  NE2      104.9950   90.2920   22.7240 N.am  131  GLN131     -0.0878
    127  N        102.9540   94.8460   21.4290 N.am  132  ASN132     -0.1974
    128  CA       103.7560   95.8320   22.1490 C.3   132  ASN132      0.1688
    129  C        103.2080   97.2550   22.1960 C.2   132  ASN132      0.2292
    130  O        103.9350   98.1890   22.5260 O.2   132  ASN132     -0.2864
    131  CB       105.2110   95.8170   21.6300 C.3   132  ASN132      0.1181
    132  CG       105.3360   96.1170   20.1370 C.2   132  ASN132      0.2629
    133  OD1      106.1900   95.5500   19.4610 O.2   132  ASN132     -0.2716
    134  ND2      104.5130   97.0160   19.6280 N.am  132  ASN132     -0.0877
    135  N        100.8790   99.5140   24.1420 N.3   134  LEU134     -0.1245
    136  CA       100.2140   99.5770   25.4270 C.3   134  LEU134      0.1561
    137  C         99.1580  100.6320   25.5360 C.2   134  LEU134      0.2260
    138  O         99.3430  101.7600   25.0880 O.2   134  LEU134     -0.2867
    139  CB       101.2690   99.7760   26.5200 C.3   134  LEU134      0.0270
    140  CG       102.5410   98.9420   26.2630 C.3   134  LEU134      0.0019
    141  CD1      103.5710   99.2460   27.3300 C.3   134  LEU134      0.0001
    142  CD2      102.2090   97.4820   26.2300 C.3   134  LEU134      0.0001
    143  N        106.0900  100.5390   22.5310 N.3   144  ALA144     -0.1231
    144  CA       106.9300   99.8240   23.4940 C.3   144  ALA144      0.1694
    145  C        107.5700   98.6470   22.7580 C.2   144  ALA144      0.2592
    146  O        107.2030   98.3590   21.6200 O.2   144  ALA144     -0.2718
    147  CB       106.0720   99.3030   24.6630 C.3   144  ALA144      0.0304
    148  N        108.5010   97.9630   23.4280 N.am  145  ASP145     -0.1974
    149  CA       109.1800   96.8010   22.8570 C.3   145  ASP145      0.1709
    150  C        109.8610   97.1420   21.5380 C.2   145  ASP145      0.2293
    151  O        109.6990   96.4280   20.5350 O.2   145  ASP145     -0.2864
    152  CB       108.1910   95.6610   22.6320 C.3   145  ASP145      0.1436
    153  CG       108.8830   94.3110   22.4590 C.2   145  ASP145      0.3671
    154  OD1      108.3500   93.4530   21.7270 O.co2 145  ASP145     -0.2456
    155  OD2      109.9470   94.1010   23.0720 O.co2 145  ASP145     -0.2456
@<TRIPOS>BOND
     1   133   132    2
     2   134   132   am
     3   118   119    1
     4   132   131    1
     5   151   150    2
     6   122   119    1
     7   122   123    1
     8   119   120    1
     9   127   120   am
    10   127   128    1
    11   150   149    1
    12   146   145    2
    13   131   128    1
    14   154   153   ar
    15   125   124    2
    16   120   121    2
    17   128   129    1
    18   129   130    2
    19   124   123    1
    20   124   126   am
    21   153   152    1
    22   153   155   ar
    23   143   144    1
    24   152   149    1
    25   145   148   am
    26   145   144    1
    27   149   148    1
    28   109   110    1
    29   144   147    1
    30   107   106   ar
    31   103   104    2
    32   103   102    1
    33   111   112    2
    34   111   110    1
    35   135   136    1
    36   110   113    1
    37   106   105    1
    38   106   108   ar
    39   105   102    1
    40   102   101    1
    41   138   137    2
    42    24    25    2
    43    24    23    1
    44    16    15    2
    45   136   137    1
    46   136   139    1
    47   113   114    1
    48    47    48    1
    49    23    22    1
    50   114   115    1
    51   142   140    1
    52   140   139    1
    53   140   141    1
    54   101    94   am
    55    15    22   am
    56    15    14    1
    57    18    17    1
    58    18    19    1
    59    52    51    1
    60    17    14    1
    61    46    45    1
    62    99    98    2
    63    48    51    1
    64    48    49    1
    65    51    53    1
    66    95    94    2
    67    94    93    1
    68    50    49    2
    69   115   116    1
    70    14    13    1
    71    21    19   ar
    72    19    20   ar
    73    97    98    1
    74    97    96    1
    75    98   100   am
    76    13    11   am
    77    45    44    1
    78   116   117    1
    79    93    96    1
    80    93    92    1
    81    44    43    1
    82    64    62   ar
    83    64    63   ar
    84    62    60   ar
    85    80    79    1
    86    11    10    1
    87    11    12    2
    88    92    84   am
    89    10     9    2
    90    73    71   ar
    91    43    42    1
    92    63    61   ar
    93    60    59   ar
    94    32    30    1
    95    84    85    2
    96    84    83    1
    97    78    79    1
    98    78    75    1
    99    79    81    1
   100     4     3    2
   101    71    72   ar
   102    71    70    1
   103     9     3    1
   104    61    59   ar
   105    59    58    1
   106    42    39    1
   107    30    31    1
   108    30    27    1
   109     3     2    1
   110    82    83    1
   111    82    76   am
   112    83    86    1
   113    26    27    1
   114    70    69    1
   115     7     5    1
   116    75    76    1
   117    75    74    1
   118    76    77    2
   119    58    55    1
   120    27    28    1
   121    39    40    1
   122    39    38    1
   123    40    41    2
   124     5     2    1
   125     5     6    1
   126     2     1    1
   127    86    87    1
   128    68    67    2
   129    69    66    1
   130    88    87   ar
   131    88    90   ar
   132    55    56    1
   133    55    54    1
   134    29    28    2
   135    87    89   ar
   136    65    66    1
   137    65    56   am
   138    90    91   ar
   139    37    34    1
   140    89    91   ar
   141    67    66    1
   142    56    57    2
   143     6     8    1
   144    36    35    2
   145    35    34    1
   146    34    33    1
