@<TRIPOS>MOLECULE
tmp/3pxvB01.pdb
 139 133 0 0 0
SMALL
GASTEIGER

@<TRIPOS>ATOM
      1  N         49.2190   42.2300   99.1010 N.3    11  ARG11      -0.1231
      2  CA        48.8840   42.9540  100.3020 C.3    11  ARG11       0.1694
      3  C         48.0820   42.0370  101.1760 C.2    11  ARG11       0.2592
      4  O         47.1330   41.4400  100.7290 O.2    11  ARG11      -0.2718
      5  CB        48.0670   44.1820  100.0010 C.3    11  ARG11       0.0321
      6  CG        47.6200   44.9670  101.2710 C.3    11  ARG11       0.0489
      7  CD        46.1610   45.4840  101.1750 C.3    11  ARG11       0.2205
      8  NE        45.3150   44.3490  100.8270 N.pl3  11  ARG11      -0.0865
      9  CZ        44.9000   43.4020  101.6680 C.cat  11  ARG11       0.5346
     10  NH1       45.1600   43.4470  102.9680 N.pl3  11  ARG11       0.1354
     11  NH2       44.1610   42.4240  101.2040 N.pl3  11  ARG11       0.1354
     12  N         48.4660   41.9410  102.4410 N.am   12  TYR12      -0.1962
     13  CA        47.8180   41.0350  103.3760 C.3    12  TYR12       0.1771
     14  C         47.7160   41.7630  104.7260 C.2    12  TYR12       0.2620
     15  O         48.4260   42.7550  104.9550 O.2    12  TYR12      -0.2715
     16  CB        48.6680   39.7460  103.5230 C.3    12  TYR12       0.0574
     17  CG        49.9800   39.9410  104.2930 C.ar   12  TYR12      -0.0198
     18  CD1       51.1290   40.3780  103.6530 C.ar   12  TYR12      -0.0009
     19  CD2       50.0580   39.6740  105.6670 C.ar   12  TYR12      -0.0009
     20  CE1       52.3240   40.5730  104.3520 C.ar   12  TYR12       0.0417
     21  CE2       51.2540   39.8590  106.3790 C.ar   12  TYR12       0.0417
     22  CZ        52.3830   40.3130  105.7130 C.ar   12  TYR12       0.1957
     23  OH        53.5660   40.4950  106.3950 O.3    12  TYR12      -0.2866
     24  N         46.8590   41.2560  105.6130 N.am   13  SER13      -0.1950
     25  CA        46.7070   41.8310  106.9390 C.3    13  SER13       0.1924
     26  C         47.7270   41.2480  107.9040 C.2    13  SER13       0.2314
     27  O         47.6530   40.0810  108.2650 O.2    13  SER13      -0.2863
     28  CB        45.3030   41.5980  107.4680 C.3    13  SER13       0.2116
     29  OG        44.3760   42.4210  106.8050 O.3    13  SER13      -0.2180
     30  N         49.3630   40.5600  111.4680 N.3    15  ARG15      -0.1245
     31  CA        48.9450   40.5680  112.8690 C.3    15  ARG15       0.1563
     32  C         50.0660   40.1710  113.8640 C.2    15  ARG15       0.2260
     33  O         49.8150   39.5640  114.9010 O.2    15  ARG15      -0.2867
     34  CB        47.7230   39.6750  113.0490 C.3    15  ARG15       0.0307
     35  CG        46.5070   40.2380  112.3810 C.3    15  ARG15       0.0489
     36  CD        45.2540   39.4740  112.7590 C.3    15  ARG15       0.2205
     37  NE        44.1160   40.0590  112.0600 N.pl3  15  ARG15      -0.0865
     38  CZ        43.6390   39.6230  110.9000 C.cat  15  ARG15       0.5346
     39  NH1       44.1620   38.5470  110.3040 N.pl3  15  ARG15       0.1354
     40  NH2       42.6060   40.2530  110.3420 N.pl3  15  ARG15       0.1354
     41  N         43.6600   35.0840  120.8770 N.3    77  ARG77      -0.1245
     42  CA        44.4490   35.3170  119.6710 C.3    77  ARG77       0.1563
     43  C         45.7940   36.0200  119.9810 C.2    77  ARG77       0.2260
     44  O         46.5900   36.2500  119.0800 O.2    77  ARG77      -0.2867
     45  CB        43.5700   36.1170  118.6770 C.3    77  ARG77       0.0307
     46  CG        44.2420   36.6220  117.4120 C.3    77  ARG77       0.0489
     47  CD        43.2390   37.0490  116.3070 C.3    77  ARG77       0.2205
     48  NE        42.5540   38.3420  116.5050 N.pl3  77  ARG77      -0.0865
     49  CZ        41.2390   38.5390  116.6910 C.cat  77  ARG77       0.5346
     50  NH1       40.3710   37.5300  116.7200 N.pl3  77  ARG77       0.1354
     51  NH2       40.7750   39.7820  116.8300 N.pl3  77  ARG77       0.1354
     52  N         45.5590   44.3540  120.3780 N.3    81  LEU81      -0.1245
     53  CA        44.6360   44.9880  119.4750 C.3    81  LEU81       0.1561
     54  C         45.5070   45.5600  118.3260 C.2    81  LEU81       0.2260
     55  O         45.1240   45.4940  117.1700 O.2    81  LEU81      -0.2867
     56  CB        43.8840   46.0480  120.2810 C.3    81  LEU81       0.0270
     57  CG        42.3930   46.3250  120.1670 C.3    81  LEU81       0.0019
     58  CD1       41.5500   45.0670  120.1840 C.3    81  LEU81       0.0001
     59  CD2       41.9830   47.2810  121.3040 C.3    81  LEU81       0.0001
     60  N         48.7080   44.4060  117.6930 N.3    83  TYR83      -0.1241
     61  CA        49.6740   43.3700  117.3550 C.3    83  TYR83       0.1605
     62  C         51.1550   43.7830  117.4610 C.2    83  TYR83       0.2264
     63  O         52.0080   43.3230  116.7000 O.2    83  TYR83      -0.2867
     64  CB        49.3510   42.8340  115.9600 C.3    83  TYR83       0.0534
     65  CG        47.8850   42.4540  115.7860 C.ar   83  TYR83      -0.0201
     66  CD1       47.3550   41.2960  116.3760 C.ar   83  TYR83      -0.0009
     67  CD2       47.0300   43.2490  115.0190 C.ar   83  TYR83      -0.0009
     68  CE1       46.0120   40.9580  116.2020 C.ar   83  TYR83       0.0417
     69  CE2       45.6780   42.9200  114.8600 C.ar   83  TYR83       0.0417
     70  CZ        45.1810   41.7770  115.4480 C.ar   83  TYR83       0.1957
     71  OH        43.8530   41.4720  115.2700 O.3    83  TYR83      -0.2866
     72  N         42.3640   54.7470  103.2230 N.3   108  CYS108     -0.1235
     73  CA        43.0270   53.6870  103.9760 C.3   108  CYS108      0.1677
     74  C         43.6300   52.6500  103.0540 C.2   108  CYS108      0.2270
     75  O         44.7130   52.1620  103.3270 O.2   108  CYS108     -0.2867
     76  CB        42.1170   53.0820  105.0460 C.3   108  CYS108      0.0956
     77  SG        41.8770   54.2950  106.3920 S.3   108  CYS108     -0.0801
     78  N         47.9990   46.7180  108.4170 N.3   123  ILE123     -0.1245
     79  CA        46.6810   46.1690  108.6220 C.3   123  ILE123      0.1561
     80  C         45.7060   47.3020  108.9540 C.2   123  ILE123      0.2260
     81  O         46.0480   48.1860  109.7540 O.2   123  ILE123     -0.2867
     82  CB        46.6360   45.1240  109.7670 C.3   123  ILE123      0.0252
     83  CG1       45.2790   44.4340  109.7780 C.3   123  ILE123      0.0019
     84  CG2       46.8760   45.7780  111.1700 C.3   123  ILE123      0.0019
     85  CD1       45.1350   43.3530  110.8500 C.3   123  ILE123      0.0001
     86  N         42.7220   48.7500  110.9400 N.3   124  CYS124     -0.1221
     87  CA        42.3040   48.3830  112.2650 C.3   124  CYS124      0.1808
     88  C         41.2190   49.3000  112.7030 C.2   124  CYS124      0.2602
     89  O         41.4630   50.4360  113.0250 O.2   124  CYS124     -0.2717
     90  CB        43.4850   48.4380  113.2020 C.3   124  CYS124      0.0970
     91  SG        43.1140   48.0220  114.8530 S.3   124  CYS124     -0.0800
     92  N         40.0010   48.7910  112.7020 N.am  125  GLY125     -0.1942
     93  CA        38.8470   49.5530  113.1470 C.3   125  GLY125      0.2014
     94  C         38.7720   49.5730  114.6600 C.2   125  GLY125      0.2638
     95  O         38.0470   50.4080  115.2350 O.2   125  GLY125     -0.2714
     96  N         39.5170   48.6540  115.2940 N.am  126  TYR126     -0.1973
     97  CA        39.5190   48.5270  116.7510 C.3   126  TYR126      0.1639
     98  C         40.1740   49.7060  117.4680 C.2   126  TYR126      0.2290
     99  O         39.8760   49.9550  118.6320 O.2   126  TYR126     -0.2864
    100  CB        40.0950   47.1770  117.2370 C.3   126  TYR126      0.0560
    101  CG        39.1280   45.9990  117.2300 C.ar  126  TYR126     -0.0198
    102  CD1       37.7740   46.1510  117.5270 C.ar  126  TYR126     -0.0009
    103  CD2       39.5970   44.7080  117.0360 C.ar  126  TYR126     -0.0009
    104  CE1       36.9170   45.0610  117.5540 C.ar  126  TYR126      0.0417
    105  CE2       38.7570   43.6160  117.0770 C.ar  126  TYR126      0.0417
    106  CZ        37.4210   43.7880  117.3440 C.ar  126  TYR126      0.1957
    107  OH        36.6080   42.6790  117.3740 O.3   126  TYR126     -0.2866
    108  N         39.0090   55.2920  110.5830 N.3   154  CYS154     -0.1235
    109  CA        39.6810   54.0090  110.5100 C.3   154  CYS154      0.1677
    110  C         41.1500   54.2500  110.7920 C.2   154  CYS154      0.2270
    111  O         41.5580   55.3800  111.0450 O.2   154  CYS154     -0.2867
    112  CB        39.4690   53.3450  109.1560 C.3   154  CYS154      0.0956
    113  SG        39.8590   51.5920  109.1460 S.3   154  CYS154     -0.0801
    114  N         51.2870   36.0950  106.7150 N.3   165  LYS165     -0.1245
    115  CA        49.9840   35.4870  106.4600 C.3   165  LYS165      0.1561
    116  C         49.6360   35.6540  104.9690 C.2   165  LYS165      0.2260
    117  O         49.9420   36.6810  104.3720 O.2   165  LYS165     -0.2867
    118  CB        48.9290   36.1450  107.3360 C.3   165  LYS165      0.0271
    119  CG        47.5130   36.0040  106.8530 C.3   165  LYS165      0.0035
    120  CD        46.5650   36.8660  107.6280 C.3   165  LYS165      0.0206
    121  CE        45.1630   36.7650  107.0600 C.3   165  LYS165      0.1093
    122  NZ        45.0630   37.1570  105.6200 N.3   165  LYS165     -0.1314
    123  N         47.3200   36.5610  101.8320 N.3   167  PRO167     -0.2102
    124  CA        46.1020   37.3630  101.7680 C.3   167  PRO167      0.1504
    125  C         44.8830   36.4630  101.5640 C.2   167  PRO167      0.2575
    126  O         45.0290   35.3060  101.2380 O.2   167  PRO167     -0.2718
    127  CB        46.3220   38.2690  100.5570 C.3   167  PRO167      0.0282
    128  CG        47.4990   37.6990   99.8300 C.3   167  PRO167      0.0208
    129  CD        48.2820   36.8590  100.7700 C.3   167  PRO167      0.0893
    130  N         43.6950   37.0050  101.7780 N.am  168  HIS168     -0.1976
    131  CA        42.4530   36.2830  101.5400 C.3   168  HIS168      0.1656
    132  C         42.4310   35.8370  100.0770 C.2   168  HIS168      0.2291
    133  O         42.9510   36.5360   99.1900 O.2   168  HIS168     -0.2864
    134  CB        41.2480   37.1870  101.8470 C.3   168  HIS168      0.0771
    135  CG        41.0300   38.2710  100.8400 C.ar  168  HIS168      0.0820
    136  ND1       41.7610   39.4380  100.8310 N.ar  168  HIS168     -0.2267
    137  CD2       40.1550   38.3650   99.8090 C.ar  168  HIS168      0.1154
    138  CE1       41.3460   40.2060   99.8380 C.ar  168  HIS168      0.1986
    139  NE2       40.3750   39.5770   99.1970 N.ar  168  HIS168     -0.2212
@<TRIPOS>BOND
     1     1     2    1
     2   133   132    2
     3   139   137   ar
     4   139   138   ar
     5   137   135   ar
     6   128   127    1
     7   128   129    1
     8   138   136   ar
     9     5     2    1
    10     5     6    1
    11   132   131    1
    12     2     3    1
    13   127   124    1
    14     4     3    2
    15   129   123    1
    16     8     7    1
    17     8     9    2
    18   136   135   ar
    19   135   134    1
    20     7     6    1
    21     3    12   am
    22    11     9    1
    23   126   125    2
    24   131   130    1
    25   131   134    1
    26   125   124    1
    27   125   130   am
    28     9    10    1
    29   124   123    1
    30    12    13    1
    31    74    75    2
    32    74    73    1
    33    72    73    1
    34    13    16    1
    35    13    14    1
    36    16    17    1
    37    18    17   ar
    38    18    20   ar
    39    73    76    1
    40    17    19   ar
    41    20    22   ar
    42   117   116    2
    43    14    15    2
    44    14    24   am
    45   116   115    1
    46    76    77    1
    47    24    25    1
    48   122   121    1
    49    19    21   ar
    50    22    21   ar
    51    22    23    1
    52   115   114    1
    53   115   118    1
    54    29    28    1
    55   119   118    1
    56   119   120    1
    57    25    28    1
    58    25    26    1
    59   121   120    1
    60    26    27    2
    61    78    79    1
    62    79    80    1
    63    79    82    1
    64    80    81    2
    65   113   112    1
    66   112   109    1
    67    82    83    1
    68    82    84    1
    69    83    85    1
    70    39    38    1
    71    40    38    1
    72   109   108    1
    73   109   110    1
    74   110   111    2
    75    38    37    2
    76    86    87    1
    77    30    31    1
    78    37    36    1
    79    87    88    1
    80    87    90    1
    81    35    36    1
    82    35    34    1
    83    92    88   am
    84    92    93    1
    85    88    89    2
    86    31    34    1
    87    31    32    1
    88    93    94    1
    89    90    91    1
    90    32    33    2
    91    94    95    2
    92    94    96   am
    93    69    67   ar
    94    69    70   ar
    95    67    65   ar
    96    71    70    1
    97    96    97    1
    98    70    68   ar
    99    65    64    1
   100    65    66   ar
   101    64    61    1
   102    68    66   ar
   103    47    48    1
   104    47    46    1
   105    48    49    2
   106    49    50    1
   107    49    51    1
   108    63    62    2
   109    97   100    1
   110    97    98    1
   111   103   105   ar
   112   103   101   ar
   113   105   106   ar
   114    55    54    2
   115   101   100    1
   116   101   102   ar
   117   106   107    1
   118   106   104   ar
   119    61    62    1
   120    61    60    1
   121    46    45    1
   122    98    99    2
   123   102   104   ar
   124    54    53    1
   125    45    42    1
   126    44    43    2
   127    53    56    1
   128    53    52    1
   129    42    43    1
   130    42    41    1
   131    57    58    1
   132    57    56    1
   133    57    59    1
