@<TRIPOS>MOLECULE
tmp/3pxzA02.pdb
 145 139 0 0 0
SMALL
GASTEIGER

@<TRIPOS>ATOM
      1  N        103.1620   90.3820   34.1690 N.3    14  ILE14      -0.1231
      2  CA       102.1580   91.0040   33.3150 C.3    14  ILE14       0.1692
      3  C        102.4130   90.7550   31.8380 C.2    14  ILE14       0.2593
      4  O        101.5830   91.0790   30.9880 O.2    14  ILE14      -0.2718
      5  CB       102.0780   92.5270   33.5680 C.3    14  ILE14       0.0266
      6  CG1      103.4500   93.1740   33.3670 C.3    14  ILE14       0.0019
      7  CG2      101.5680   92.7790   34.9700 C.3    14  ILE14       0.0020
      8  CD1      103.4700   94.6770   33.6690 C.3    14  ILE14       0.0001
      9  N        103.5640   90.1730   31.5320 N.am   15  GLY15      -0.1942
     10  CA       103.8820   89.8940   30.1480 C.3    15  GLY15       0.2014
     11  C        105.2550   89.2850   29.9870 C.2    15  GLY15       0.2638
     12  O        105.8730   88.8510   30.9560 O.2    15  GLY15      -0.2714
     13  N        105.7250   89.2520   28.7460 N.am   16  GLU16      -0.1977
     14  CA       107.0380   88.7170   28.4220 C.3    16  GLU16       0.1602
     15  C        107.3820   89.1570   27.0140 C.2    16  GLU16       0.2287
     16  O        106.9540   88.5430   26.0380 O.2    16  GLU16      -0.2864
     17  CB       107.0480   87.1900   28.5230 C.3    16  GLU16       0.0415
     18  CG       105.9630   86.4860   27.7280 C.3    16  GLU16       0.1163
     19  CD       106.0670   84.9790   27.8390 C.2    16  GLU16       0.3649
     20  OE1      107.0820   84.4210   27.3700 O.co2  16  GLU16      -0.2457
     21  OE2      105.1430   84.3520   28.4000 O.co2  16  GLU16      -0.2457
     22  N        108.0040   90.3440   32.1710 N.3    22  VAL22      -0.1245
     23  CA       107.8420   91.7290   32.6080 C.3    22  VAL22       0.1561
     24  C        107.0160   91.6030   33.8680 C.2    22  VAL22       0.2260
     25  O        105.9710   90.9580   33.8620 O.2    22  VAL22      -0.2867
     26  CB       107.0520   92.5930   31.5990 C.3    22  VAL22       0.0252
     27  CG1      106.8060   93.9780   32.1970 C.3    22  VAL22       0.0019
     28  CG2      107.8280   92.7200   30.3020 C.3    22  VAL22       0.0019
     29  N        106.5290   98.8020   36.2940 N.3    35  ALA35      -0.1245
     30  CA       106.7360   97.5970   35.5130 C.3    35  ALA35       0.1562
     31  C        108.2520   97.4500   35.4670 C.2    35  ALA35       0.2260
     32  O        108.9640   98.4230   35.1890 O.2    35  ALA35      -0.2867
     33  CB       106.1820   97.7550   34.1160 C.3    35  ALA35       0.0290
     34  N        111.6360   95.3450   33.9840 N.3    37  LYS37      -0.1245
     35  CA       112.1320   94.4840   32.9290 C.3    37  LYS37       0.1561
     36  C        113.5350   94.0580   33.3630 C.2    37  LYS37       0.2260
     37  O        114.3340   94.8920   33.7980 O.2    37  LYS37      -0.2867
     38  CB       112.1650   95.2680   31.6150 C.3    37  LYS37       0.0271
     39  CG       112.5330   94.4560   30.3990 C.3    37  LYS37       0.0035
     40  CD       112.2790   95.2420   29.1190 C.3    37  LYS37       0.0206
     41  CE       110.7930   95.4890   28.8970 C.3    37  LYS37       0.1093
     42  NZ       110.5590   96.0620   27.5300 N.3    37  LYS37      -0.1314
     43  N        106.5510  104.5270   26.0610 N.3    68  VAL68      -0.1245
     44  CA       106.5260  104.1530   27.4670 C.3    68  VAL68       0.1561
     45  C        107.6800  104.8320   28.2080 C.2    68  VAL68       0.2260
     46  O        108.8200  104.8650   27.7380 O.2    68  VAL68      -0.2867
     47  CB       106.5750  102.6090   27.6490 C.3    68  VAL68       0.0252
     48  CG1      107.9200  102.0520   27.2060 C.3    68  VAL68       0.0019
     49  CG2      106.2750  102.2570   29.0850 C.3    68  VAL68       0.0019
     50  N        109.9440  100.9610   34.5830 N.3    84  PHE84      -0.1227
     51  CA       109.0520  101.7070   33.6920 C.3    84  PHE84       0.1736
     52  C        107.7510  102.0400   34.3920 C.2    84  PHE84       0.2595
     53  O        107.4050  101.4230   35.3900 O.2    84  PHE84      -0.2718
     54  CB       108.6490  100.8480   32.4910 C.3    84  PHE84       0.0547
     55  CG       109.7500  100.5840   31.5180 C.ar   84  PHE84      -0.0202
     56  CD1      110.0310  101.5100   30.5140 C.ar   84  PHE84      -0.0042
     57  CD2      110.4800   99.3940   31.5770 C.ar   84  PHE84      -0.0042
     58  CE1      111.0240  101.2570   29.5710 C.ar   84  PHE84      -0.0003
     59  CE2      111.4780   99.1300   30.6370 C.ar   84  PHE84      -0.0003
     60  CZ       111.7470  100.0620   29.6360 C.ar   84  PHE84      -0.0000
     61  N        107.0300  103.0110   33.8410 N.am   85  GLU85      -0.1965
     62  CA       105.7130  103.3560   34.3450 C.3    85  GLU85       0.1733
     63  C        104.9030  102.0690   34.0920 C.2    85  GLU85       0.2616
     64  O        105.2210  101.2960   33.1750 O.2    85  GLU85      -0.2715
     65  CB       105.1130  104.5060   33.5270 C.3    85  GLU85       0.0429
     66  CG       104.9570  104.1610   32.0490 C.3    85  GLU85       0.1163
     67  CD       104.1730  105.1880   31.2640 C.2    85  GLU85       0.3649
     68  OE1      103.1130  105.6240   31.7610 O.co2  85  GLU85      -0.2457
     69  OE2      104.6100  105.5420   30.1450 O.co2  85  GLU85      -0.2457
     70  N        103.8730  101.8300   34.8990 N.am   86  PHE86      -0.1960
     71  CA       103.0580  100.6370   34.7250 C.3    86  PHE86       0.1771
     72  C        101.8630  100.9020   33.8130 C.2    86  PHE86       0.2619
     73  O        101.1390  101.8760   33.9890 O.2    86  PHE86      -0.2715
     74  CB       102.5570  100.1290   36.0800 C.3    86  PHE86       0.0574
     75  CG       101.4960   99.0790   35.9680 C.ar   86  PHE86      -0.0200
     76  CD1      100.1630   99.3880   36.2130 C.ar   86  PHE86      -0.0042
     77  CD2      101.8220   97.7910   35.5780 C.ar   86  PHE86      -0.0042
     78  CE1       99.1620   98.4170   36.0660 C.ar   86  PHE86      -0.0003
     79  CE2      100.8300   96.8100   35.4280 C.ar   86  PHE86      -0.0003
     80  CZ        99.5050   97.1230   35.6710 C.ar   86  PHE86      -0.0000
     81  N        101.6830  100.0280   32.8290 N.am   87  LEU87      -0.1963
     82  CA       100.5770  100.1190   31.8860 C.3    87  LEU87       0.1728
     83  C         99.8070   98.8150   32.0130 C.2    87  LEU87       0.2616
     84  O        100.4020   97.7530   32.1100 O.2    87  LEU87      -0.2715
     85  CB       101.1130  100.3140   30.4710 C.3    87  LEU87       0.0311
     86  CG       101.6450  101.7380   30.3040 C.3    87  LEU87       0.0022
     87  CD1      102.6060  101.8390   29.1400 C.3    87  LEU87       0.0001
     88  CD2      100.4650  102.6580   30.1340 C.3    87  LEU87       0.0001
     89  N         98.4810   98.9070   32.0150 N.am   88  HIS88      -0.1959
     90  CA        97.6220   97.7400   32.2160 C.3    88  HIS88       0.1787
     91  C         97.6130   96.5860   31.2170 C.2    88  HIS88       0.2620
     92  O         97.4970   95.4230   31.6100 O.2    88  HIS88      -0.2715
     93  CB        96.1730   98.2020   32.4190 C.3    88  HIS88       0.0785
     94  CG        95.8810   98.7070   33.7990 C.ar   88  HIS88       0.0821
     95  ND1       95.5960  100.0290   34.0660 N.ar   88  HIS88      -0.2267
     96  CD2       95.8140   98.0620   34.9880 C.ar   88  HIS88       0.1154
     97  CE1       95.3630  100.1760   35.3580 C.ar   88  HIS88       0.1986
     98  NE2       95.4900   98.9970   35.9410 N.ar   88  HIS88      -0.2212
     99  N         97.7460   96.8770   29.9330 N.am   89  GLN89      -0.1963
    100  CA        97.6600   95.8020   28.9610 C.3    89  GLN89       0.1733
    101  C         98.2450   96.2060   27.6100 C.2    89  GLN89       0.2616
    102  O         98.5340   97.3770   27.3910 O.2    89  GLN89      -0.2715
    103  CB        96.1800   95.4340   28.8450 C.3    89  GLN89       0.0408
    104  CG        95.7580   94.5320   27.7160 C.3    89  GLN89       0.0908
    105  CD        94.3250   94.0640   27.9030 C.2    89  GLN89       0.2608
    106  OE1       94.0720   93.0380   28.5470 O.2    89  GLN89      -0.2717
    107  NE2       93.3770   94.8280   27.3710 N.am   89  GLN89      -0.0878
    108  N         98.4440   95.2320   26.7280 N.am   90  ASP90      -0.1971
    109  CA        98.9680   95.5240   25.4000 C.3    90  ASP90       0.1709
    110  C         97.8540   95.4380   24.3510 C.2    90  ASP90       0.2293
    111  O         96.7530   94.9280   24.6190 O.2    90  ASP90      -0.2864
    112  CB       100.1420   94.5910   25.0470 C.3    90  ASP90       0.1436
    113  CG        99.7530   93.1250   24.9980 C.2    90  ASP90       0.3671
    114  OD1       98.9640   92.7340   24.1160 O.co2  90  ASP90      -0.2456
    115  OD2      100.2500   92.3520   25.8440 O.co2  90  ASP90      -0.2456
    116  N        101.6760   93.0900   20.1790 N.3   135  GLN135     -0.1245
    117  CA       102.2240   92.6840   21.4690 C.3   135  GLN135      0.1566
    118  C        103.1340   93.7180   22.1200 C.2   135  GLN135      0.2260
    119  O        103.2610   93.7460   23.3450 O.2   135  GLN135     -0.2867
    120  CB       102.9940   91.3680   21.3260 C.3   135  GLN135      0.0367
    121  CG       103.4320   90.7610   22.6470 C.3   135  GLN135      0.0905
    122  CD       104.2700   89.5080   22.4750 C.2   135  GLN135      0.2608
    123  OE1      103.8600   88.5580   21.8070 O.2   135  GLN135     -0.2717
    124  NE2      105.4490   89.4970   23.0860 N.am  135  GLN135     -0.0878
    125  N        101.4780   99.3260   24.3130 N.3   138  LEU138     -0.1245
    126  CA       100.7880   99.4240   25.5940 C.3   138  LEU138      0.1561
    127  C         99.6760  100.4500   25.6800 C.2   138  LEU138      0.2260
    128  O         99.8220  101.5690   25.2140 O.2   138  LEU138     -0.2867
    129  CB       101.8230   99.7250   26.6670 C.3   138  LEU138      0.0270
    130  CG       103.0540   98.8290   26.5450 C.3   138  LEU138      0.0019
    131  CD1      104.1170   99.3190   27.5140 C.3   138  LEU138      0.0001
    132  CD2      102.6770   97.3840   26.8160 C.3   138  LEU138      0.0001
    133  N        106.6470  100.3640   22.8330 N.3   148  ALA148     -0.1231
    134  CA       107.4960   99.6580   23.7900 C.3   148  ALA148      0.1694
    135  C        108.1500   98.5020   23.0740 C.2   148  ALA148      0.2592
    136  O        107.7600   98.1610   21.9570 O.2   148  ALA148     -0.2718
    137  CB       106.6530   99.1340   24.9760 C.3   148  ALA148      0.0304
    138  N        109.1610   97.9200   23.7070 N.am  149  ASP149     -0.1974
    139  CA       109.8440   96.7710   23.1330 C.3   149  ASP149      0.1709
    140  C        110.4760   97.0980   21.7810 C.2   149  ASP149      0.2293
    141  O        110.2910   96.3830   20.7930 O.2   149  ASP149     -0.2864
    142  CB       108.8470   95.6210   23.0020 C.3   149  ASP149      0.1436
    143  CG       109.5070   94.3030   22.7400 C.2   149  ASP149      0.3671
    144  OD1      108.8250   93.4070   22.1860 O.co2 149  ASP149     -0.2456
    145  OD2      110.6930   94.1490   23.1010 O.co2 149  ASP149     -0.2456
@<TRIPOS>BOND
     1   116   117    1
     2   141   140    2
     3   120   117    1
     4   120   121    1
     5   117   118    1
     6   140   139    1
     7   123   122    2
     8   136   135    2
     9   118   119    2
    10   144   143   ar
    11   122   121    1
    12   122   124   am
    13   143   142    1
    14   143   145   ar
    15   133   134    1
    16   142   139    1
    17   135   138   am
    18   135   134    1
    19   139   138    1
    20   134   137    1
    21   114   113   ar
    22   125   126    1
    23   110   111    2
    24   110   109    1
    25   113   112    1
    26   113   115   ar
    27   112   109    1
    28   128   127    2
    29   109   108    1
    30   126   127    1
    31   126   129    1
    32    16    15    2
    33    43    44    1
    34   130   129    1
    35   130   132    1
    36   130   131    1
    37   108   101   am
    38    15    14    1
    39    48    47    1
    40    20    19   ar
    41   107   105   am
    42   102   101    2
    43    44    47    1
    44    44    45    1
    45    42    41    1
    46   101   100    1
    47    47    49    1
    48   104   105    1
    49   104   103    1
    50    18    19    1
    51    18    17    1
    52    46    45    2
    53    19    21   ar
    54   105   106    2
    55    14    17    1
    56    14    13    1
    57    13    11   am
    58   103   100    1
    59    41    40    1
    60   100    99    1
    61    40    39    1
    62    87    86    1
    63    58    60   ar
    64    58    56   ar
    65    60    59   ar
    66    99    91   am
    67    11    10    1
    68    11    12    2
    69    88    86    1
    70    69    67   ar
    71    10     9    1
    72    28    26    1
    73    86    85    1
    74    39    38    1
    75    85    82    1
    76    56    55   ar
    77    59    57   ar
    78     4     3    2
    79    91    92    2
    80    91    90    1
    81    67    68   ar
    82    67    66    1
    83    55    57   ar
    84    55    54    1
    85     9     3   am
    86    26    27    1
    87    26    23    1
    88    38    35    1
    89     3     2    1
    90    82    83    1
    91    82    81    1
    92    83    89   am
    93    83    84    2
    94    89    90    1
    95    66    65    1
    96    22    23    1
    97    90    93    1
    98    93    94    1
    99    54    51    1
   100    23    24    1
   101    81    72   am
   102    35    36    1
   103    35    34    1
   104    64    63    2
   105     2     5    1
   106     2     1    1
   107    36    37    2
   108     6     5    1
   109     6     8    1
   110    65    62    1
   111     5     7    1
   112    51    52    1
   113    51    50    1
   114    94    95   ar
   115    94    96   ar
   116    72    73    2
   117    72    71    1
   118    61    62    1
   119    61    52   am
   120    25    24    2
   121    95    97   ar
   122    63    62    1
   123    63    70   am
   124    33    30    1
   125    52    53    2
   126    71    70    1
   127    71    74    1
   128    96    98   ar
   129    32    31    2
   130    97    98   ar
   131    79    77   ar
   132    79    80   ar
   133    31    30    1
   134    30    29    1
   135    77    75   ar
   136    80    78   ar
   137    75    74    1
   138    75    76   ar
   139    78    76   ar
