@<TRIPOS>MOLECULE
tmp/3py0A00.pdb
 153 145 0 0 0
SMALL
GASTEIGER

@<TRIPOS>ATOM
      1  N        -94.0980   84.2580   78.8020 N.3    10  ILE10      -0.1245
      2  CA       -92.9260   83.4770   79.1270 C.3    10  ILE10       0.1561
      3  C        -93.0610   81.9880   78.8710 C.2    10  ILE10       0.2260
      4  O        -92.1440   81.2190   79.1740 O.2    10  ILE10      -0.2867
      5  CB       -92.4920   83.7490   80.5900 C.3    10  ILE10       0.0252
      6  CG1      -93.6100   83.3850   81.5650 C.3    10  ILE10       0.0019
      7  CG2      -92.1370   85.2320   80.7440 C.3    10  ILE10       0.0019
      8  CD1      -93.3100   83.7820   83.0220 C.3    10  ILE10       0.0001
      9  N        -98.1360   76.4440   78.2600 N.3    13  GLY13      -0.1225
     10  CA       -98.2370   75.1010   78.7990 C.3    13  GLY13       0.1811
     11  C        -99.4000   74.3510   78.1780 C.2    13  GLY13       0.2280
     12  O       -100.2320   74.9430   77.4910 O.2    13  GLY13      -0.2866
     13  N        -98.5400   81.3980   80.0290 N.3    18  VAL18      -0.1245
     14  CA       -98.0850   82.0830   81.2360 C.3    18  VAL18       0.1561
     15  C        -97.3350   83.3430   80.8410 C.2    18  VAL18       0.2260
     16  O        -96.5240   83.3200   79.9180 O.2    18  VAL18      -0.2867
     17  CB       -97.1540   81.1700   82.0770 C.3    18  VAL18       0.0252
     18  CG1      -96.7450   81.8760   83.3660 C.3    18  VAL18       0.0019
     19  CG2      -97.8730   79.8600   82.4020 C.3    18  VAL18       0.0019
     20  N        -95.9680   85.5970   87.8900 N.3    31  ALA31      -0.1245
     21  CA       -96.1770   84.8090   86.6750 C.3    31  ALA31       0.1562
     22  C        -97.6870   84.5660   86.6610 C.2    31  ALA31       0.2260
     23  O        -98.2330   83.9890   87.5950 O.2    31  ALA31      -0.2867
     24  CB       -95.4450   83.4740   86.7480 C.3    31  ALA31       0.0290
     25  N       -100.8100   82.7470   84.8120 N.3    33  LYS33      -0.1245
     26  CA      -101.2320   81.7180   83.8720 C.3    33  LYS33       0.1561
     27  C       -102.7090   81.9890   83.6310 C.2    33  LYS33       0.2260
     28  O       -103.4750   82.1620   84.5830 O.2    33  LYS33      -0.2867
     29  CB      -101.0800   80.3210   84.4710 C.3    33  LYS33       0.0271
     30  CG      -101.4080   79.1880   83.4940 C.3    33  LYS33       0.0035
     31  CD      -101.3490   77.8270   84.1840 C.3    33  LYS33       0.0206
     32  CE      -101.3710   76.6620   83.1760 C.3    33  LYS33       0.1093
     33  NZ      -100.0880   76.5220   82.4060 N.3    33  LYS33      -0.1314
     34  N        -93.0800   75.9960   93.4980 N.3    60  VAL60      -0.1245
     35  CA       -93.3980   77.3790   93.1600 C.3    60  VAL60       0.1561
     36  C        -94.7030   77.7380   93.8790 C.2    60  VAL60       0.2260
     37  O        -95.6730   76.9730   93.8810 O.2    60  VAL60      -0.2867
     38  CB       -93.5130   77.5620   91.6200 C.3    60  VAL60       0.0252
     39  CG1      -93.9500   78.9590   91.2740 C.3    60  VAL60       0.0019
     40  CG2      -92.1570   77.3290   90.9820 C.3    60  VAL60       0.0019
     41  N        -98.8050   83.1540   90.2050 N.3    76  PHE76      -0.1227
     42  CA       -97.6770   82.4610   90.8150 C.3    76  PHE76       0.1736
     43  C        -96.5270   83.3850   91.1040 C.2    76  PHE76       0.2595
     44  O        -96.4080   84.4370   90.4890 O.2    76  PHE76      -0.2718
     45  CB       -97.1140   81.4390   89.8480 C.3    76  PHE76       0.0547
     46  CG       -98.0160   80.2950   89.5630 C.ar   76  PHE76      -0.0202
     47  CD1      -98.0130   79.1810   90.3910 C.ar   76  PHE76      -0.0042
     48  CD2      -98.7740   80.2780   88.4040 C.ar   76  PHE76      -0.0042
     49  CE1      -98.7510   78.0380   90.0540 C.ar   76  PHE76      -0.0003
     50  CE2      -99.5100   79.1500   88.0600 C.ar   76  PHE76      -0.0003
     51  CZ       -99.4940   78.0320   88.8820 C.ar   76  PHE76      -0.0000
     52  N        -95.6470   82.9610   92.0110 N.am   77  GLU77      -0.1965
     53  CA       -94.4590   83.7510   92.2710 C.3    77  GLU77       0.1733
     54  C        -93.6550   83.5950   90.9780 C.2    77  GLU77       0.2616
     55  O        -93.8210   82.6100   90.2350 O.2    77  GLU77      -0.2715
     56  CB       -93.6610   83.1950   93.4510 C.3    77  GLU77       0.0429
     57  CG       -93.0770   81.8440   93.1880 C.3    77  GLU77       0.1163
     58  CD       -92.1600   81.3760   94.3000 C.2    77  GLU77       0.3649
     59  OE1      -91.2740   82.1490   94.7220 O.co2  77  GLU77      -0.2457
     60  OE2      -92.3070   80.2290   94.7480 O.co2  77  GLU77      -0.2457
     61  N        -92.7880   84.5590   90.7140 N.am   78  PHE78      -0.1960
     62  CA       -91.9770   84.5540   89.5160 C.3    78  PHE78       0.1771
     63  C        -90.5600   84.1570   89.8570 C.2    78  PHE78       0.2619
     64  O        -89.9810   84.6520   90.8340 O.2    78  PHE78      -0.2715
     65  CB       -91.9740   85.9550   88.8740 C.3    78  PHE78       0.0574
     66  CG       -91.0030   86.1180   87.7330 C.ar   78  PHE78      -0.0200
     67  CD1      -89.7180   86.6300   87.9470 C.ar   78  PHE78      -0.0042
     68  CD2      -91.3830   85.7860   86.4280 C.ar   78  PHE78      -0.0042
     69  CE1      -88.8490   86.8080   86.8890 C.ar   78  PHE78      -0.0003
     70  CE2      -90.5270   85.9600   85.3690 C.ar   78  PHE78      -0.0003
     71  CZ       -89.2500   86.4730   85.5850 C.ar   78  PHE78      -0.0000
     72  N        -90.0200   83.2350   89.0710 N.am   79  LEU79      -0.1963
     73  CA       -88.6430   82.8140   89.2630 C.3    79  LEU79       0.1728
     74  C        -87.8840   83.2490   88.0420 C.2    79  LEU79       0.2616
     75  O        -88.4420   83.4700   86.9780 O.2    79  LEU79      -0.2715
     76  CB       -88.5100   81.3010   89.4630 C.3    79  LEU79       0.0311
     77  CG       -88.3580   80.9850   90.9560 C.3    79  LEU79       0.0022
     78  CD1      -89.7440   80.9250   91.5710 C.3    79  LEU79       0.0001
     79  CD2      -87.6190   79.6790   91.1780 C.3    79  LEU79       0.0001
     80  N        -86.5780   83.3220   88.2230 N.am   80  HIS80      -0.1959
     81  CA       -85.6510   83.8040   87.2440 C.3    80  HIS80       0.1787
     82  C        -85.5980   83.1720   85.8460 C.2    80  HIS80       0.2620
     83  O        -85.6700   83.8780   84.8430 O.2    80  HIS80      -0.2715
     84  CB       -84.2800   83.8080   87.9490 C.3    80  HIS80       0.0785
     85  CG       -84.3310   84.4300   89.3210 C.ar   80  HIS80       0.0821
     86  ND1      -83.2360   84.5130   90.1620 N.ar   80  HIS80      -0.2267
     87  CD2      -85.3520   85.0280   89.9810 C.ar   80  HIS80       0.1154
     88  CE1      -83.5820   85.1310   91.2770 C.ar   80  HIS80       0.1986
     89  NE2      -84.8620   85.4600   91.1910 N.ar   80  HIS80      -0.2212
     90  N        -85.5440   81.8480   85.7690 N.am   81  GLN81      -0.1963
     91  CA       -85.4180   81.2000   84.4690 C.3    81  GLN81       0.1733
     92  C        -85.9540   79.7830   84.6030 C.2    81  GLN81       0.2616
     93  O        -86.0530   79.2820   85.7190 O.2    81  GLN81      -0.2715
     94  CB       -83.9220   81.1720   84.1260 C.3    81  GLN81       0.0408
     95  CG       -83.5280   80.6270   82.7690 C.3    81  GLN81       0.0908
     96  CD       -82.1220   81.0950   82.4120 C.2    81  GLN81       0.2608
     97  OE1      -81.9070   82.2740   82.0680 O.2    81  GLN81      -0.2717
     98  NE2      -81.1640   80.2010   82.5200 N.am   81  GLN81      -0.0878
     99  N        -86.3380   79.1620   83.4870 N.am   82  ASP82      -0.1971
    100  CA       -86.7960   77.7710   83.5610 C.3    82  ASP82       0.1709
    101  C        -85.6630   76.8760   83.1190 C.2    82  ASP82       0.2293
    102  O        -84.7140   77.3270   82.4750 O.2    82  ASP82      -0.2864
    103  CB       -88.0860   77.5040   82.7450 C.3    82  ASP82       0.1436
    104  CG       -87.9110   77.6460   81.2330 C.2    82  ASP82       0.3671
    105  OD1      -87.0410   77.0070   80.6210 O.co2  82  ASP82      -0.2456
    106  OD2      -88.7030   78.4010   80.6410 O.co2  82  ASP82      -0.2456
    107  N        -84.6480   76.6280   79.3170 N.3    85  LYS85      -0.1245
    108  CA       -83.7830   77.7070   78.8430 C.3    85  LYS85       0.1561
    109  C        -82.3640   77.5270   79.3850 C.2    85  LYS85       0.2260
    110  O        -81.3930   77.7220   78.6680 O.2    85  LYS85      -0.2867
    111  CB       -84.3530   79.0740   79.2650 C.3    85  LYS85       0.0271
    112  CG       -83.4600   80.2580   78.8630 C.3    85  LYS85       0.0035
    113  CD       -84.2290   81.5720   78.9490 C.3    85  LYS85       0.0206
    114  CE       -83.4020   82.7330   78.3990 C.3    85  LYS85       0.1093
    115  NZ       -82.2950   83.0890   79.3260 N.3    85  LYS85      -0.1314
    116  N        -89.6380   72.8660   81.1250 N.3   127  GLN127     -0.1231
    117  CA       -90.2870   74.1790   81.1980 C.3   127  GLN127      0.1698
    118  C        -91.0860   74.3970   82.4970 C.2   127  GLN127      0.2592
    119  O        -91.4190   75.5430   82.8510 O.2   127  GLN127     -0.2718
    120  CB       -91.1890   74.3960   79.9720 C.3   127  GLN127      0.0381
    121  CG       -90.4880   74.1070   78.6680 C.3   127  GLN127      0.0905
    122  CD       -90.8630   72.7390   78.1190 C.2   127  GLN127      0.2608
    123  OE1      -91.8110   72.6270   77.3380 O.2   127  GLN127     -0.2717
    124  NE2      -90.1360   71.6810   78.5410 N.am  127  GLN127     -0.0878
    125  N        -91.3880   73.3190   83.2160 N.am  128  ASN128     -0.1974
    126  CA       -92.1260   73.4260   84.4640 C.3   128  ASN128      0.1688
    127  C        -91.2220   73.4310   85.6840 C.2   128  ASN128      0.2292
    128  O        -91.7100   73.3540   86.8130 O.2   128  ASN128     -0.2864
    129  CB       -93.1350   72.2820   84.6080 C.3   128  ASN128      0.1181
    130  CG       -94.2500   72.3900   83.6330 C.2   128  ASN128      0.2629
    131  OD1      -94.6180   73.4960   83.2040 O.2   128  ASN128     -0.2716
    132  ND2      -94.8120   71.2660   83.2710 N.am  128  ASN128     -0.0877
    133  N        -88.3320   75.5980   87.6330 N.3   130  LEU130     -0.1245
    134  CA       -87.8020   76.9700   87.6340 C.3   130  LEU130      0.1561
    135  C        -86.6070   77.1450   88.5650 C.2   130  LEU130      0.2260
    136  O        -86.5790   76.5850   89.6520 O.2   130  LEU130     -0.2867
    137  CB       -88.9010   77.9190   88.0870 C.3   130  LEU130      0.0270
    138  CG       -90.2280   77.7040   87.3690 C.3   130  LEU130      0.0019
    139  CD1      -91.2960   78.6390   87.9610 C.3   130  LEU130      0.0001
    140  CD2      -90.0290   77.9460   85.8900 C.3   130  LEU130      0.0001
    141  N        -93.2300   73.5870   89.2490 N.3   140  ALA140     -0.1231
    142  CA       -94.3240   74.5160   88.9770 C.3   140  ALA140      0.1694
    143  C        -95.4730   73.8790   88.2180 C.2   140  ALA140      0.2592
    144  O        -95.2840   72.9630   87.4170 O.2   140  ALA140     -0.2718
    145  CB       -93.8130   75.7040   88.1980 C.3   140  ALA140      0.0304
    146  N        -96.6640   74.3950   88.5010 N.am  141  ASP141     -0.1974
    147  CA       -97.9110   73.9850   87.8570 C.3   141  ASP141      0.1709
    148  C        -98.3960   72.5530   88.0670 C.2   141  ASP141      0.2293
    149  O        -98.5180   71.7980   87.1130 O.2   141  ASP141     -0.2864
    150  CB       -97.8130   74.2820   86.3610 C.3   141  ASP141      0.1436
    151  CG       -99.1610   74.6420   85.7530 C.2   141  ASP141      0.3671
    152  OD1      -99.2180   74.8550   84.5220 O.co2 141  ASP141     -0.2456
    153  OD2     -100.1500   74.7120   86.5270 O.co2 141  ASP141     -0.2456
@<TRIPOS>BOND
     1   123   122    2
     2    12    11    2
     3   122   124   am
     4   122   121    1
     5    11    10    1
     6     9    10    1
     7   114   113    1
     8   114   115    1
     9   110   109    2
    10   121   120    1
    11     1     2    1
    12   108   111    1
    13   108   107    1
    14   108   109    1
    15   112   113    1
    16   112   111    1
    17     3     2    1
    18     3     4    2
    19     2     5    1
    20    16    15    2
    21   120   117    1
    22    13    14    1
    23     5     7    1
    24     5     6    1
    25   105   104   ar
    26   106   104   ar
    27    15    14    1
    28   116   117    1
    29   117   118    1
    30   104   103    1
    31    14    17    1
    32     6     8    1
    33    97    96    2
    34    17    19    1
    35    17    18    1
    36    33    32    1
    37    96    98   am
    38    96    95    1
    39   102   101    2
    40   118   119    2
    41   118   125   am
    42   103   100    1
    43    95    94    1
    44   101   100    1
    45    32    31    1
    46   131   130    2
    47   125   126    1
    48   132   130   am
    49    99   100    1
    50    99    92   am
    51    30    31    1
    52    30    29    1
    53    27    26    1
    54    27    28    2
    55   130   129    1
    56    26    29    1
    57    26    25    1
    58    94    91    1
    59   126   129    1
    60   126   127    1
    61    91    92    1
    62    91    90    1
    63   152   151   ar
    64    92    93    2
    65    83    82    2
    66    70    71   ar
    67    70    68   ar
    68    71    69   ar
    69   127   128    2
    70   151   150    1
    71   151   153   ar
    72    90    82   am
    73    82    81    1
    74   140   138    1
    75   150   147    1
    76    68    66   ar
    77    22    21    1
    78    22    23    2
    79    21    24    1
    80    21    20    1
    81    69    67   ar
    82    75    74    2
    83   149   148    2
    84    81    84    1
    85    81    80    1
    86   138   139    1
    87   138   137    1
    88   144   143    2
    89   133   134    1
    90   134   137    1
    91   134   135    1
    92    66    67   ar
    93    66    65    1
    94   147   148    1
    95   147   146    1
    96    84    85    1
    97    74    80   am
    98    74    73    1
    99    50    48   ar
   100    50    51   ar
   101   145   142    1
   102   143   146   am
   103   143   142    1
   104    48    46   ar
   105   135   136    2
   106    65    62    1
   107    51    49   ar
   108   142   141    1
   109    72    73    1
   110    72    63   am
   111    73    76    1
   112    85    87   ar
   113    85    86   ar
   114    76    77    1
   115    62    63    1
   116    62    61    1
   117    46    45    1
   118    46    47   ar
   119    45    42    1
   120    63    64    2
   121    87    89   ar
   122    49    47   ar
   123    86    88   ar
   124    41    42    1
   125    55    54    2
   126    44    43    2
   127    61    54   am
   128    42    43    1
   129    77    79    1
   130    77    78    1
   131    54    53    1
   132    40    38    1
   133    43    52   am
   134    89    88   ar
   135    39    38    1
   136    38    35    1
   137    52    53    1
   138    53    56    1
   139    35    34    1
   140    35    36    1
   141    57    56    1
   142    57    58    1
   143    36    37    2
   144    58    59   ar
   145    58    60   ar
