@<TRIPOS>MOLECULE
tmp/3py1A02.pdb
 155 145 0 0 0
SMALL
GASTEIGER

@<TRIPOS>ATOM
      1  N        -87.4200  -92.0800   24.1250 N.3    19  TYR19      -0.1241
      2  CA       -88.3390  -91.6430   25.1710 C.3    19  TYR19       0.1605
      3  C        -87.6870  -90.7270   26.1910 C.2    19  TYR19       0.2264
      4  O        -88.1120  -90.6680   27.3490 O.2    19  TYR19      -0.2867
      5  CB       -88.9310  -92.8580   25.8720 C.3    19  TYR19       0.0534
      6  CG       -89.9270  -93.5740   25.0030 C.ar   19  TYR19      -0.0201
      7  CD1      -91.2800  -93.2390   25.0490 C.ar   19  TYR19      -0.0009
      8  CD2      -89.5160  -94.5530   24.0980 C.ar   19  TYR19      -0.0009
      9  CE1      -92.2030  -93.8590   24.2160 C.ar   19  TYR19       0.0417
     10  CE2      -90.4340  -95.1810   23.2620 C.ar   19  TYR19       0.0417
     11  CZ       -91.7760  -94.8260   23.3280 C.ar   19  TYR19       0.1957
     12  OH       -92.6900  -95.4340   22.5070 O.3    19  TYR19      -0.2866
     13  N        -85.8340  -96.6730   31.9330 N.3    37  LYS37      -0.1245
     14  CA       -86.4590  -96.0110   30.7980 C.3    37  LYS37       0.1561
     15  C        -87.8460  -95.5970   31.3020 C.2    37  LYS37       0.2260
     16  O        -88.6090  -96.4410   31.7890 O.2    37  LYS37      -0.2867
     17  CB       -86.5720  -96.9990   29.6390 C.3    37  LYS37       0.0271
     18  CG       -87.2650  -96.4920   28.4000 C.3    37  LYS37       0.0035
     19  CD       -87.3270  -97.6030   27.3620 C.3    37  LYS37       0.0206
     20  CE       -88.0320  -97.1310   26.0910 C.3    37  LYS37       0.1093
     21  NZ       -88.0910  -98.2070   25.0740 N.3    37  LYS37      -0.1314
     22  N        -91.5810  -93.9440   30.5500 N.3    39  ILE39      -0.1245
     23  CA       -92.5220  -93.6960   29.4700 C.3    39  ILE39       0.1561
     24  C        -93.8000  -93.0620   29.9990 C.2    39  ILE39       0.2260
     25  O        -94.5160  -93.6550   30.8000 O.2    39  ILE39      -0.2867
     26  CB       -92.8660  -95.0080   28.7410 C.3    39  ILE39       0.0252
     27  CG1      -91.6100  -95.5500   28.0540 C.3    39  ILE39       0.0019
     28  CG2      -93.9700  -94.7730   27.7210 C.3    39  ILE39       0.0019
     29  CD1      -91.7980  -96.9130   27.4430 C.3    39  ILE39       0.0001
     30  N        -95.1050 -104.4890   21.1090 N.3    56  ILE56      -0.1245
     31  CA       -94.4100 -104.6050   22.3770 C.3    56  ILE56       0.1561
     32  C        -94.4050 -106.0370   22.8890 C.2    56  ILE56       0.2260
     33  O        -93.4590 -106.4690   23.5530 O.2    56  ILE56      -0.2867
     34  CB       -95.0700 -103.6550   23.4170 C.3    56  ILE56       0.0252
     35  CG1      -94.4980 -102.2490   23.2340 C.3    56  ILE56       0.0019
     36  CG2      -94.8540 -104.1530   24.8350 C.3    56  ILE56       0.0019
     37  CD1      -95.5360 -101.2010   23.0840 C.3    56  ILE56       0.0001
     38  N        -91.6960 -107.8040   21.1610 N.3    59  LEU59      -0.1231
     39  CA       -90.4150 -107.3880   21.6940 C.3    59  LEU59       0.1693
     40  C        -90.1740 -108.0960   23.0170 C.2    59  LEU59       0.2591
     41  O        -89.0750 -108.5730   23.2700 O.2    59  LEU59      -0.2718
     42  CB       -90.3890 -105.8780   21.9110 C.3    59  LEU59       0.0284
     43  CG       -90.4720 -104.9950   20.6710 C.3    59  LEU59       0.0019
     44  CD1      -90.4910 -103.5300   21.1120 C.3    59  LEU59       0.0001
     45  CD2      -89.2970 -105.2780   19.7540 C.3    59  LEU59       0.0001
     46  N        -91.2110 -108.1510   23.8480 N.am   60  LYS60      -0.1980
     47  CA       -91.1430 -108.7880   25.1530 C.3    60  LYS60       0.1596
     48  C        -90.7160 -110.2380   25.0640 C.2    60  LYS60       0.2287
     49  O        -90.0170 -110.7280   25.9470 O.2    60  LYS60      -0.2864
     50  CB       -92.5040 -108.7450   25.8520 C.3    60  LYS60       0.0298
     51  CG       -92.9190 -107.3710   26.3370 C.3    60  LYS60       0.0038
     52  CD       -94.2550 -107.4280   27.0540 C.3    60  LYS60       0.0206
     53  CE       -94.1930 -108.3510   28.2640 C.3    60  LYS60       0.1093
     54  NZ       -95.5260 -108.4080   28.9460 N.3    60  LYS60      -0.1314
     55  N        -88.7530 -111.5830   22.8020 N.3    62  LEU62      -0.1245
     56  CA       -87.3740 -111.7360   22.3630 C.3    62  LEU62       0.1561
     57  C        -86.4700 -112.1620   23.5060 C.2    62  LEU62       0.2260
     58  O        -86.5390 -111.6430   24.6190 O.2    62  LEU62      -0.2867
     59  CB       -86.8540 -110.4290   21.7430 C.3    62  LEU62       0.0270
     60  CG       -87.5840 -109.9970   20.4760 C.3    62  LEU62       0.0019
     61  CD1      -87.1230 -108.6200   20.0600 C.3    62  LEU62       0.0001
     62  CD2      -87.3260 -110.9910   19.3760 C.3    62  LEU62       0.0001
     63  N        -79.4690 -108.8500   22.7860 N.3    67  ILE67      -0.1231
     64  CA       -80.6070 -107.9640   22.9600 C.3    67  ILE67       0.1692
     65  C        -80.6360 -107.7010   24.4600 C.2    67  ILE67       0.2591
     66  O        -80.6530 -108.6420   25.2540 O.2    67  ILE67      -0.2718
     67  CB       -81.9430 -108.5990   22.5150 C.3    67  ILE67       0.0266
     68  CG1      -81.8970 -108.9290   21.0220 C.3    67  ILE67       0.0019
     69  CG2      -83.1010 -107.5900   22.7830 C.3    67  ILE67       0.0020
     70  CD1      -83.1720 -109.6320   20.4960 C.3    67  ILE67       0.0001
     71  N        -80.5960 -106.4280   24.8560 N.am   68  VAL68      -0.1980
     72  CA       -80.5900 -106.0580   26.2640 C.3    68  VAL68       0.1595
     73  C        -81.7450 -106.7470   27.0320 C.2    68  VAL68       0.2287
     74  O        -82.8490 -106.9130   26.5080 O.2    68  VAL68      -0.2864
     75  CB       -80.6540 -104.5080   26.3910 C.3    68  VAL68       0.0276
     76  CG1      -82.0630 -104.0110   26.0400 C.3    68  VAL68       0.0022
     77  CG2      -80.2160 -104.0630   27.7630 C.3    68  VAL68       0.0022
     78  N        -84.6300 -107.1590   29.8460 N.3    70  LEU70      -0.1245
     79  CA       -85.5930 -106.3680   30.6170 C.3    70  LEU70       0.1561
     80  C        -85.7140 -107.0920   31.9630 C.2    70  LEU70       0.2260
     81  O        -86.0450 -108.2740   31.9910 O.2    70  LEU70      -0.2867
     82  CB       -86.9410 -106.3680   29.8930 C.3    70  LEU70       0.0270
     83  CG       -88.1240 -105.7420   30.6360 C.3    70  LEU70       0.0019
     84  CD1      -87.8980 -104.2560   30.8280 C.3    70  LEU70       0.0001
     85  CD2      -89.3840 -105.9830   29.8410 C.3    70  LEU70       0.0001
     86  N        -94.8190  -95.4200   33.0470 N.3    80  LEU80      -0.1245
     87  CA       -94.3150  -96.7690   32.8960 C.3    80  LEU80       0.1561
     88  C        -92.8070  -96.6700   33.0040 C.2    80  LEU80       0.2260
     89  O        -92.1970  -95.8620   32.3150 O.2    80  LEU80      -0.2867
     90  CB       -94.7060  -97.2960   31.5200 C.3    80  LEU80       0.0270
     91  CG       -94.3480  -98.7220   31.1230 C.3    80  LEU80       0.0019
     92  CD1      -94.9730  -99.7420   32.0610 C.3    80  LEU80       0.0001
     93  CD2      -94.8700  -98.9290   29.7240 C.3    80  LEU80       0.0001
     94  N        -89.3160  -98.9290   32.8380 N.3    82  LEU82      -0.1245
     95  CA       -88.7700 -100.2230   32.5050 C.3    82  LEU82       0.1561
     96  C        -87.4130 -100.3090   33.1790 C.2    82  LEU82       0.2260
     97  O        -86.5910  -99.3870   33.0780 O.2    82  LEU82      -0.2867
     98  CB       -88.6540 -100.3790   30.9910 C.3    82  LEU82       0.0270
     99  CG       -89.9770 -100.3320   30.2080 C.3    82  LEU82       0.0019
    100  CD1      -89.6890 -100.5540   28.7490 C.3    82  LEU82       0.0001
    101  CD2      -90.9410 -101.4090   30.7150 C.3    82  LEU82       0.0001
    102  N        -84.0040 -102.1680   33.2700 N.3    84  PHE84      -0.1241
    103  CA       -83.1480 -102.9720   32.4080 C.3    84  PHE84       0.1605
    104  C        -81.8240 -103.3000   33.0530 C.2    84  PHE84       0.2264
    105  O        -81.3980 -102.6430   33.9960 O.2    84  PHE84      -0.2867
    106  CB       -82.8300 -102.2040   31.1140 C.3    84  PHE84       0.0534
    107  CG       -83.9950 -102.0280   30.1840 C.ar   84  PHE84      -0.0203
    108  CD1      -84.3520 -103.0320   29.2960 C.ar   84  PHE84      -0.0042
    109  CD2      -84.7120 -100.8420   30.1750 C.ar   84  PHE84      -0.0042
    110  CE1      -85.4100 -102.8560   28.4040 C.ar   84  PHE84      -0.0003
    111  CE2      -85.7740 -100.6550   29.2840 C.ar   84  PHE84      -0.0003
    112  CZ       -86.1200 -101.6680   28.3980 C.ar   84  PHE84      -0.0000
    113  N        -80.7320 -102.2040   21.7620 N.3   148  ALA148     -0.1231
    114  CA       -81.6130 -101.5690   22.7380 C.3   148  ALA148      0.1694
    115  C        -82.3590 -100.3930   22.0830 C.2   148  ALA148      0.2592
    116  O        -81.9810  -99.9450   21.0050 O.2   148  ALA148     -0.2718
    117  CB       -80.7950 -101.0730   23.9300 C.3   148  ALA148      0.0304
    118  N        -83.4140  -99.9110   22.7440 N.am  149  ASP149     -0.1960
    119  CA       -84.2250  -98.7900   22.2470 C.3   149  ASP149      0.1840
    120  C        -84.7920  -99.0320   20.8360 C.2   149  ASP149      0.2622
    121  O        -84.5680  -98.2280   19.9120 O.2   149  ASP149     -0.2715
    122  CB       -83.3940  -97.5060   22.2480 C.3   149  ASP149      0.1450
    123  CG       -84.2200  -96.2730   22.5660 C.2   149  ASP149      0.3671
    124  OD1      -83.6830  -95.1590   22.4060 O.co2 149  ASP149     -0.2456
    125  OD2      -85.3930  -96.4190   22.9850 O.co2 149  ASP149     -0.2456
    126  N        -85.5110 -100.1470   20.6880 N.am  150  PHE150     -0.1974
    127  CA       -86.1690 -100.5420   19.4440 C.3   150  PHE150      0.1639
    128  C        -87.2350  -99.5040   19.0860 C.2   150  PHE150      0.2290
    129  O        -87.8800  -98.9400   19.9720 O.2   150  PHE150     -0.2864
    130  CB       -86.8800 -101.8930   19.6350 C.3   150  PHE150      0.0560
    131  CG       -85.9470 -103.0760   19.6870 C.ar  150  PHE150     -0.0200
    132  CD1      -85.8400 -103.9360   18.5960 C.ar  150  PHE150     -0.0042
    133  CD2      -85.1370 -103.2890   20.7860 C.ar  150  PHE150     -0.0042
    134  CE1      -84.9340 -104.9800   18.5990 C.ar  150  PHE150     -0.0003
    135  CE2      -84.2070 -104.3490   20.8040 C.ar  150  PHE150     -0.0003
    136  CZ       -84.1070 -105.1860   19.7110 C.ar  150  PHE150     -0.0000
    137  N        -90.8590  -98.5360   17.4160 N.3   152  LEU152     -0.1245
    138  CA       -92.1110  -99.2090   17.1070 C.3   152  LEU152      0.1561
    139  C        -92.6500  -98.6720   15.7840 C.2   152  LEU152      0.2260
    140  O        -92.3870  -97.5300   15.4090 O.2   152  LEU152     -0.2867
    141  CB       -93.1240  -98.9640   18.2240 C.3   152  LEU152      0.0270
    142  CG       -92.7400  -99.5100   19.6080 C.3   152  LEU152      0.0019
    143  CD1      -93.8580  -99.2230   20.6240 C.3   152  LEU152      0.0001
    144  CD2      -92.5050 -101.0080   19.5070 C.3   152  LEU152      0.0001
    145  N        -96.4350  -95.3720   20.6600 N.3   156  PHE156     -0.1241
    146  CA       -96.9840  -95.9790   21.8660 C.3   156  PHE156      0.1605
    147  C        -97.4340  -94.9430   22.8890 C.2   156  PHE156      0.2264
    148  O        -98.6400  -94.7280   23.0770 O.2   156  PHE156     -0.2867
    149  CB       -95.9590  -96.9190   22.5090 C.3   156  PHE156      0.0534
    150  CG       -96.3730  -97.4240   23.8570 C.ar  156  PHE156     -0.0203
    151  CD1      -97.5850  -98.0890   24.0210 C.ar  156  PHE156     -0.0042
    152  CD2      -95.5750  -97.2030   24.9710 C.ar  156  PHE156     -0.0042
    153  CE1      -97.9970  -98.5230   25.2810 C.ar  156  PHE156     -0.0003
    154  CE2      -95.9790  -97.6340   26.2370 C.ar  156  PHE156     -0.0003
    155  CZ       -97.1910  -98.2930   26.3900 C.ar  156  PHE156     -0.0000
@<TRIPOS>BOND
     1   140   139    2
     2   139   138    1
     3   138   137    1
     4   138   141    1
     5   141   142    1
     6   132   134   ar
     7   132   131   ar
     8   134   136   ar
     9   128   127    1
    10   128   129    2
    11    62    60    1
    12   127   130    1
    13   127   126    1
    14   144   142    1
    15   142   143    1
    16   130   131    1
    17   131   133   ar
    18   136   135   ar
    19    45    43    1
    20   121   120    2
    21    61    60    1
    22    60    59    1
    23    70    68    1
    24   145   146    1
    25    43    44    1
    26    43    42    1
    27   126   120   am
    28   133   135   ar
    29   120   119    1
    30   116   115    2
    31    68    67    1
    32    30    31    1
    33    38    39    1
    34    39    42    1
    35    39    40    1
    36    59    56    1
    37   113   114    1
    38   146   149    1
    39   146   147    1
    40   115   114    1
    41   115   118   am
    42   119   122    1
    43   119   118    1
    44   122   123    1
    45    56    55    1
    46    56    57    1
    47    31    32    1
    48    31    34    1
    49   124   123   ar
    50    12    11    1
    51   149   150    1
    52    67    69    1
    53    67    64    1
    54   123   125   ar
    55   114   117    1
    56    63    64    1
    57   147   148    2
    58    32    33    2
    59    64    65    1
    60    40    41    2
    61    40    46   am
    62    37    35    1
    63    35    34    1
    64    10    11   ar
    65    10     8   ar
    66    11     9   ar
    67    34    36    1
    68    57    58    2
    69    46    47    1
    70   150   151   ar
    71   150   152   ar
    72   151   153   ar
    73     8     6   ar
    74     1     2    1
    75     9     7   ar
    76    65    71   am
    77    65    66    2
    78    71    72    1
    79   152   154   ar
    80     6     7   ar
    81     6     5    1
    82    48    47    1
    83    48    49    2
    84    21    20    1
    85    47    50    1
    86     2     5    1
    87     2     3    1
    88   153   155   ar
    89    50    51    1
    90    76    75    1
    91    20    19    1
    92     3     4    2
    93   154   155   ar
    94    72    75    1
    95    72    73    1
    96    51    52    1
    97    75    77    1
    98    74    73    2
    99    52    53    1
   100    19    18    1
   101    29    27    1
   102    28    26    1
   103    27    26    1
   104    53    54    1
   105   112   110   ar
   106   112   111   ar
   107    18    17    1
   108   110   108   ar
   109    26    23    1
   110   100    99    1
   111   111   109   ar
   112   108   107   ar
   113    23    24    1
   114    23    22    1
   115    17    14    1
   116    93    91    1
   117    85    83    1
   118    78    79    1
   119    82    79    1
   120    82    83    1
   121    24    25    2
   122   109   107   ar
   123   107   106    1
   124    99   101    1
   125    99    98    1
   126    79    80    1
   127    83    84    1
   128    14    15    1
   129    14    13    1
   130    98    95    1
   131   106   103    1
   132    91    90    1
   133    91    92    1
   134    15    16    2
   135    90    87    1
   136    80    81    2
   137    89    88    2
   138   103   104    1
   139   103   102    1
   140    95    94    1
   141    95    96    1
   142    87    88    1
   143    87    86    1
   144   104   105    2
   145    97    96    2
