@<TRIPOS>MOLECULE
tmp/3py1A01.pdb
 100 90 0 0 0
SMALL
GASTEIGER

@<TRIPOS>ATOM
      1  N        -91.5810  -93.9440   30.5500 N.3    39  ILE39      -0.1245
      2  CA       -92.5220  -93.6960   29.4700 C.3    39  ILE39       0.1561
      3  C        -93.8000  -93.0620   29.9990 C.2    39  ILE39       0.2260
      4  O        -94.5160  -93.6550   30.8000 O.2    39  ILE39      -0.2867
      5  CB       -92.8660  -95.0080   28.7410 C.3    39  ILE39       0.0252
      6  CG1      -91.6100  -95.5500   28.0540 C.3    39  ILE39       0.0019
      7  CG2      -93.9700  -94.7730   27.7210 C.3    39  ILE39       0.0019
      8  CD1      -91.7980  -96.9130   27.4430 C.3    39  ILE39       0.0001
      9  N        -97.5160  -92.0440   29.8240 N.3    41  LEU41      -0.1245
     10  CA       -98.7260  -92.5200   29.1650 C.3    41  LEU41       0.1561
     11  C        -99.7780  -91.4160   29.0670 C.2    41  LEU41       0.2260
     12  O        -99.9800  -90.6410   30.0050 O.2    41  LEU41      -0.2867
     13  CB       -99.2900  -93.7180   29.9290 C.3    41  LEU41       0.0270
     14  CG       -98.3640  -94.9390   29.9730 C.3    41  LEU41       0.0019
     15  CD1      -98.8620  -95.9270   31.0170 C.3    41  LEU41       0.0001
     16  CD2      -98.2950  -95.5840   28.5860 C.3    41  LEU41       0.0001
     17  N       -104.9290  -96.9590   26.0620 N.3    48  VAL48      -0.1245
     18  CA      -103.7770  -97.5850   25.4160 C.3    48  VAL48       0.1561
     19  C       -104.2310  -98.4610   24.2430 C.2    48  VAL48       0.2260
     20  O       -105.0270  -99.3890   24.4200 O.2    48  VAL48      -0.2867
     21  CB      -102.9820  -98.4560   26.4120 C.3    48  VAL48       0.0252
     22  CG1     -101.7410  -99.0060   25.7360 C.3    48  VAL48       0.0019
     23  CG2     -102.6020  -97.6360   27.6340 C.3    48  VAL48       0.0019
     24  N        -99.5070 -102.3080   21.7700 N.3    53  ILE53      -0.1245
     25  CA       -99.2000 -103.3870   22.7050 C.3    53  ILE53       0.1561
     26  C        -98.7790 -104.6640   21.9830 C.2    53  ILE53       0.2260
     27  O        -97.9660 -105.4260   22.4900 O.2    53  ILE53      -0.2867
     28  CB      -100.4000 -103.6960   23.6400 C.3    53  ILE53       0.0252
     29  CG1     -100.9180 -102.4000   24.2740 C.3    53  ILE53       0.0019
     30  CG2      -99.9750 -104.6440   24.7460 C.3    53  ILE53       0.0019
     31  CD1      -99.8520 -101.5910   24.9980 C.3    53  ILE53       0.0001
     32  N        -95.1050 -104.4890   21.1090 N.3    56  ILE56      -0.1245
     33  CA       -94.4100 -104.6050   22.3770 C.3    56  ILE56       0.1561
     34  C        -94.4050 -106.0370   22.8890 C.2    56  ILE56       0.2260
     35  O        -93.4590 -106.4690   23.5530 O.2    56  ILE56      -0.2867
     36  CB       -95.0700 -103.6550   23.4170 C.3    56  ILE56       0.0252
     37  CG1      -94.4980 -102.2490   23.2340 C.3    56  ILE56       0.0019
     38  CG2      -94.8540 -104.1530   24.8350 C.3    56  ILE56       0.0019
     39  CD1      -95.5360 -101.2010   23.0840 C.3    56  ILE56       0.0001
     40  N        -91.2110 -108.1510   23.8480 N.3    60  LYS60      -0.1245
     41  CA       -91.1430 -108.7880   25.1530 C.3    60  LYS60       0.1561
     42  C        -90.7160 -110.2380   25.0640 C.2    60  LYS60       0.2260
     43  O        -90.0170 -110.7280   25.9470 O.2    60  LYS60      -0.2867
     44  CB       -92.5040 -108.7450   25.8520 C.3    60  LYS60       0.0271
     45  CG       -92.9190 -107.3710   26.3370 C.3    60  LYS60       0.0035
     46  CD       -94.2550 -107.4280   27.0540 C.3    60  LYS60       0.0206
     47  CE       -94.1930 -108.3510   28.2640 C.3    60  LYS60       0.1093
     48  NZ       -95.5260 -108.4080   28.9460 N.3    60  LYS60      -0.1314
     49  N        -84.6300 -107.1590   29.8460 N.3    70  LEU70      -0.1245
     50  CA       -85.5930 -106.3680   30.6170 C.3    70  LEU70       0.1561
     51  C        -85.7140 -107.0920   31.9630 C.2    70  LEU70       0.2260
     52  O        -86.0450 -108.2740   31.9910 O.2    70  LEU70      -0.2867
     53  CB       -86.9410 -106.3680   29.8930 C.3    70  LEU70       0.0270
     54  CG       -88.1240 -105.7420   30.6360 C.3    70  LEU70       0.0019
     55  CD1      -87.8980 -104.2560   30.8280 C.3    70  LEU70       0.0001
     56  CD2      -89.3840 -105.9830   29.8410 C.3    70  LEU70       0.0001
     57  N        -90.8370 -104.2950   35.0920 N.3    73  VAL73      -0.1245
     58  CA       -91.6820 -103.2280   34.5800 C.3    73  VAL73       0.1561
     59  C        -92.4380 -102.6370   35.7640 C.2    73  VAL73       0.2260
     60  O        -92.9830 -103.3730   36.5960 O.2    73  VAL73      -0.2867
     61  CB       -92.6940 -103.7660   33.5520 C.3    73  VAL73       0.0252
     62  CG1      -93.4820 -102.6150   32.9270 C.3    73  VAL73       0.0019
     63  CG2      -91.9600 -104.5480   32.4850 C.3    73  VAL73       0.0019
     64  N        -95.4550  -99.9540   36.8700 N.3    75  HIS75      -0.1241
     65  CA       -96.5810  -99.1080   36.5010 C.3    75  HIS75       0.1621
     66  C        -96.9630  -98.1800   37.6480 C.2    75  HIS75       0.2264
     67  O        -96.8860  -98.5590   38.8080 O.2    75  HIS75      -0.2867
     68  CB       -97.8010  -99.9620   36.1370 C.3    75  HIS75       0.0745
     69  CG       -97.5510 -100.9340   35.0290 C.ar   75  HIS75       0.0817
     70  ND1      -97.0210 -102.1900   35.2420 N.ar   75  HIS75      -0.2268
     71  CD2      -97.7280 -100.8230   33.6910 C.ar   75  HIS75       0.1154
     72  CE1      -96.8790 -102.8080   34.0840 C.ar   75  HIS75       0.1986
     73  NE2      -97.2980 -101.9990   33.1270 N.ar   75  HIS75      -0.2212
     74  N        -94.8190  -95.4200   33.0470 N.3    80  LEU80      -0.1245
     75  CA       -94.3150  -96.7690   32.8960 C.3    80  LEU80       0.1561
     76  C        -92.8070  -96.6700   33.0040 C.2    80  LEU80       0.2260
     77  O        -92.1970  -95.8620   32.3150 O.2    80  LEU80      -0.2867
     78  CB       -94.7060  -97.2960   31.5200 C.3    80  LEU80       0.0270
     79  CG       -94.3480  -98.7220   31.1230 C.3    80  LEU80       0.0019
     80  CD1      -94.9730  -99.7420   32.0610 C.3    80  LEU80       0.0001
     81  CD2      -94.8700  -98.9290   29.7240 C.3    80  LEU80       0.0001
     82  N        -89.3160  -98.9290   32.8380 N.3    82  LEU82      -0.1245
     83  CA       -88.7700 -100.2230   32.5050 C.3    82  LEU82       0.1561
     84  C        -87.4130 -100.3090   33.1790 C.2    82  LEU82       0.2260
     85  O        -86.5910  -99.3870   33.0780 O.2    82  LEU82      -0.2867
     86  CB       -88.6540 -100.3790   30.9910 C.3    82  LEU82       0.0270
     87  CG       -89.9770 -100.3320   30.2080 C.3    82  LEU82       0.0019
     88  CD1      -89.6890 -100.5540   28.7490 C.3    82  LEU82       0.0001
     89  CD2      -90.9410 -101.4090   30.7150 C.3    82  LEU82       0.0001
     90  N        -96.4350  -95.3720   20.6600 N.3   156  PHE156     -0.1241
     91  CA       -96.9840  -95.9790   21.8660 C.3   156  PHE156      0.1605
     92  C        -97.4340  -94.9430   22.8890 C.2   156  PHE156      0.2264
     93  O        -98.6400  -94.7280   23.0770 O.2   156  PHE156     -0.2867
     94  CB       -95.9590  -96.9190   22.5090 C.3   156  PHE156      0.0534
     95  CG       -96.3730  -97.4240   23.8570 C.ar  156  PHE156     -0.0203
     96  CD1      -97.5850  -98.0890   24.0210 C.ar  156  PHE156     -0.0042
     97  CD2      -95.5750  -97.2030   24.9710 C.ar  156  PHE156     -0.0042
     98  CE1      -97.9970  -98.5230   25.2810 C.ar  156  PHE156     -0.0003
     99  CE2      -95.9790  -97.6340   26.2370 C.ar  156  PHE156     -0.0003
    100  CZ       -97.1910  -98.2930   26.3900 C.ar  156  PHE156     -0.0000
@<TRIPOS>BOND
     1    90    91    1
     2    32    33    1
     3    24    25    1
     4    91    94    1
     5    91    92    1
     6    26    27    2
     7    26    25    1
     8    33    34    1
     9    33    36    1
    10    94    95    1
    11    25    28    1
    12    92    93    2
    13    34    35    2
    14    39    37    1
    15    37    36    1
    16    36    38    1
    17    28    29    1
    18    28    30    1
    19    40    41    1
    20    95    96   ar
    21    95    97   ar
    22    96    98   ar
    23    19    20    2
    24    19    18    1
    25    29    31    1
    26    97    99   ar
    27    42    41    1
    28    42    43    2
    29    41    44    1
    30    98   100   ar
    31    18    17    1
    32    18    21    1
    33    22    21    1
    34    44    45    1
    35    99   100   ar
    36    45    46    1
    37    21    23    1
    38    46    47    1
    39     8     6    1
    40     7     5    1
    41     6     5    1
    42    47    48    1
    43    16    14    1
    44     5     2    1
    45    88    87    1
    46    11    10    1
    47    11    12    2
    48    10     9    1
    49    10    13    1
    50     2     3    1
    51     2     1    1
    52    81    79    1
    53    56    54    1
    54    49    50    1
    55    53    50    1
    56    53    54    1
    57    13    14    1
    58    14    15    1
    59     3     4    2
    60    87    89    1
    61    87    86    1
    62    50    51    1
    63    54    55    1
    64    86    83    1
    65    79    78    1
    66    79    80    1
    67    78    75    1
    68    51    52    2
    69    77    76    2
    70    63    61    1
    71    83    82    1
    72    83    84    1
    73    75    76    1
    74    75    74    1
    75    62    61    1
    76    85    84    2
    77    73    71   ar
    78    73    72   ar
    79    61    58    1
    80    71    69   ar
    81    72    70   ar
    82    58    57    1
    83    58    59    1
    84    69    70   ar
    85    69    68    1
    86    59    60    2
    87    68    65    1
    88    65    64    1
    89    65    66    1
    90    66    67    2
