@<TRIPOS>MOLECULE
tmp/3py4A05.pdb
 112 110 0 0 0
SMALL
GASTEIGER

@<TRIPOS>ATOM
      1  N          9.3870    1.9130   18.2690 N.3   105  GLN105     -0.1245
      2  CA         8.4090    1.9750   19.3870 C.3   105  GLN105      0.1566
      3  C          7.0120    1.5510   18.9110 C.2   105  GLN105      0.2260
      4  O          6.3200    0.7710   19.5610 O.2   105  GLN105     -0.2867
      5  CB         8.3920    3.3740   20.0090 C.3   105  GLN105      0.0367
      6  CG         7.4630    3.5200   21.1600 C.3   105  GLN105      0.0905
      7  CD         7.5220    4.9050   21.7610 C.2   105  GLN105      0.2608
      8  OE1        7.5650    5.9220   21.0510 O.2   105  GLN105     -0.2717
      9  NE2        7.5230    4.9650   23.0610 N.am  105  GLN105     -0.0878
     10  N          6.9320   -2.1180   18.3790 N.3   108  ASP108     -0.1225
     11  CA         7.0780   -2.6610   19.7020 C.3   108  ASP108      0.1805
     12  C          5.7540   -2.6790   20.4360 C.2   108  ASP108      0.2597
     13  O          5.3170   -3.7160   20.9500 O.2   108  ASP108     -0.2718
     14  CB         7.8920   -2.0730   20.8520 C.3   108  ASP108      0.1424
     15  CG         8.0180   -2.1630   22.3290 C.2   108  ASP108      0.3668
     16  OD1        7.0680   -1.8200   23.0700 O.co2 108  ASP108     -0.2456
     17  OD2        9.0950   -2.6090   22.7380 O.co2 108  ASP108     -0.2456
     18  N          5.0100   -1.5780   20.3250 N.am  109  HIS109     -0.1975
     19  CA         3.7050   -1.4910   20.9450 C.3   109  HIS109      0.1656
     20  C          2.6780   -2.3800   20.2650 C.2   109  HIS109      0.2291
     21  O          1.6520   -2.7300   20.8550 O.2   109  HIS109     -0.2864
     22  CB         3.2570   -0.0320   20.9820 C.3   109  HIS109      0.0771
     23  CG         3.9890    0.7890   21.9980 C.ar  109  HIS109      0.0820
     24  ND1        3.6820    2.1100   22.2570 N.ar  109  HIS109     -0.2267
     25  CD2        5.0140    0.4720   22.8260 C.ar  109  HIS109      0.1154
     26  CE1        4.4870    2.5710   23.1980 C.ar  109  HIS109      0.1986
     27  NE2        5.3040    1.5970   23.5610 N.ar  109  HIS109     -0.2212
     28  N          2.7990   -5.8330   25.5400 N.3   113  PHE113     -0.1241
     29  CA         2.4390   -4.9240   26.6170 C.3   113  PHE113      0.1605
     30  C          2.1440   -5.7420   27.8680 C.2   113  PHE113      0.2264
     31  O          1.2010   -6.5320   27.9100 O.2   113  PHE113     -0.2867
     32  CB         1.2190   -4.0680   26.2540 C.3   113  PHE113      0.0534
     33  CG         0.9090   -2.9850   27.2640 C.ar  113  PHE113     -0.0203
     34  CD1        1.9360   -2.2820   27.8900 C.ar  113  PHE113     -0.0042
     35  CD2       -0.4090   -2.6320   27.5450 C.ar  113  PHE113     -0.0042
     36  CE1        1.6590   -1.2420   28.7780 C.ar  113  PHE113     -0.0003
     37  CE2       -0.6980   -1.5910   28.4270 C.ar  113  PHE113     -0.0003
     38  CZ         0.3380   -0.8930   29.0460 C.ar  113  PHE113     -0.0000
     39  N         -3.0250    1.5110   24.5120 N.3   253  PHE253     -0.1227
     40  CA        -3.0370    2.3790   25.6880 C.3   253  PHE253      0.1736
     41  C         -2.0060    3.5370   25.6940 C.2   253  PHE253      0.2595
     42  O         -2.3470    4.6970   25.9380 O.2   253  PHE253     -0.2718
     43  CB        -2.8030    1.4690   26.9070 C.3   253  PHE253      0.0547
     44  CG        -3.0470    2.1190   28.2290 C.ar  253  PHE253     -0.0202
     45  CD1       -4.3380    2.1990   28.7520 C.ar  253  PHE253     -0.0042
     46  CD2       -1.9830    2.6340   28.9710 C.ar  253  PHE253     -0.0042
     47  CE1       -4.5710    2.7880   30.0080 C.ar  253  PHE253     -0.0003
     48  CE2       -2.2000    3.2230   30.2240 C.ar  253  PHE253     -0.0003
     49  CZ        -3.4980    3.3010   30.7440 C.ar  253  PHE253     -0.0000
     50  N         -0.7540    3.2040   25.4030 N.am  254  ARG254     -0.1980
     51  CA         0.3860    4.1290   25.4380 C.3   254  ARG254      0.1597
     52  C          0.5560    5.1970   24.3490 C.2   254  ARG254      0.2287
     53  O          1.5230    5.9670   24.3780 O.2   254  ARG254     -0.2864
     54  CB         1.6650    3.2880   25.4900 C.3   254  ARG254      0.0334
     55  CG         1.6340    2.1890   26.5530 C.3   254  ARG254      0.0492
     56  CD         2.5730    1.0150   26.2360 C.3   254  ARG254      0.2205
     57  NE         2.1070    0.2060   25.1150 N.pl3 254  ARG254     -0.0865
     58  CZ         2.6090   -0.9770   24.7720 C.cat 254  ARG254      0.5346
     59  NH1        3.6100   -1.5110   25.4630 N.pl3 254  ARG254      0.1354
     60  NH2        2.0940   -1.6380   23.7400 N.pl3 254  ARG254      0.1354
     61  N         -0.2790    8.2100   23.7340 N.3   256  SER256     -0.1202
     62  CA         0.0420    9.5970   24.0730 C.3   256  SER256      0.2020
     63  C          1.3330    9.8240   24.8790 C.2   256  SER256      0.2618
     64  O          1.7140   10.9680   25.1770 O.2   256  SER256     -0.2717
     65  CB        -1.1590   10.1820   24.8160 C.3   256  SER256      0.2103
     66  OG        -2.3750    9.8200   24.1500 O.3   256  SER256     -0.2182
     67  N          2.0680    8.7620   25.1560 N.am  257  GLU257     -0.1979
     68  CA         3.2430    8.8340   26.0160 C.3   257  GLU257      0.1602
     69  C          4.2730    9.8670   25.6350 C.2   257  GLU257      0.2287
     70  O          4.8940   10.4520   26.4760 O.2   257  GLU257     -0.2864
     71  CB         4.0410    7.5330   26.1950 C.3   257  GLU257      0.0415
     72  CG         5.3650    7.6170   26.9730 C.3   257  GLU257      0.1163
     73  CD         6.6400    7.6000   26.1950 C.2   257  GLU257      0.3649
     74  OE1        6.5900    7.4140   24.9940 O.co2 257  GLU257     -0.2457
     75  OE2        7.6860    7.7780   26.7740 O.co2 257  GLU257     -0.2457
     76  N         15.5750    2.2770   23.4930 N.3   350  HIS350     -0.1241
     77  CA        15.6500    3.3390   24.4850 C.3   350  HIS350      0.1621
     78  C         16.9240    4.1650   24.3650 C.2   350  HIS350      0.2264
     79  O         16.9290    5.3470   24.7000 O.2   350  HIS350     -0.2867
     80  CB        15.5100    2.7430   25.8900 C.3   350  HIS350      0.0745
     81  CG        14.1240    2.2620   26.1990 C.ar  350  HIS350      0.0817
     82  ND1       13.8190    1.5140   27.3180 N.ar  350  HIS350     -0.2268
     83  CD2       12.9590    2.4200   25.5260 C.ar  350  HIS350      0.1154
     84  CE1       12.5300    1.2290   27.3160 C.ar  350  HIS350      0.1986
     85  NE2       11.9870    1.7660   26.2400 N.ar  350  HIS350     -0.2212
     86  N          3.3520   12.6600   27.3870 N.3   380  PHE380     -0.1241
     87  CA         1.8950   12.8660   27.4910 C.3   380  PHE380      0.1605
     88  C          1.4680   14.2810   27.0980 C.2   380  PHE380      0.2264
     89  O          0.5660   14.8610   27.7070 O.2   380  PHE380     -0.2867
     90  CB         1.4300   12.5610   28.9180 C.3   380  PHE380      0.0534
     91  CG         1.6760   11.1460   29.3230 C.ar  380  PHE380     -0.0203
     92  CD1        0.8970   10.1270   28.8020 C.ar  380  PHE380     -0.0042
     93  CD2        2.7400   10.8220   30.1550 C.ar  380  PHE380     -0.0042
     94  CE1        1.1720    8.7980   29.0990 C.ar  380  PHE380     -0.0003
     95  CE2        3.0320    9.4920   30.4580 C.ar  380  PHE380     -0.0003
     96  CZ         2.2480    8.4770   29.9300 C.ar  380  PHE380     -0.0000
     97  N          5.5320    9.7130   34.7400 N.3   422  GLN422     -0.1231
     98  CA         4.6720    8.5360   34.8180 C.3   422  GLN422      0.1683
     99  C          3.2880    8.9480   35.3110 C.2   422  GLN422      0.2434
    100  O          3.1650    9.7370   36.2530 O.2   422  GLN422     -0.2733
    101  CB         5.2810    7.5040   35.7670 C.3   422  GLN422      0.0380
    102  CG         6.6280    6.9980   35.2820 C.3   422  GLN422      0.0905
    103  CD         6.6350    5.5010   35.0760 C.2   422  GLN422      0.2608
    104  OE1        7.0030    4.7400   35.9750 O.2   422  GLN422     -0.2717
    105  NE2        6.2090    5.0660   33.8930 N.am  422  GLN422     -0.0878
    106  N          2.2380    8.4760   34.6260 N.am  423  PRO423     -0.2729
    107  CA         0.8790    8.8350   35.0710 C.3   423  PRO423      0.1401
    108  C          0.5900    8.5810   36.5870 C.2   423  PRO423      0.2269
    109  O          1.0430    7.5880   37.1590 O.2   423  PRO423     -0.2865
    110  CB        -0.0140    7.9730   34.1750 C.3   423  PRO423      0.0296
    111  CG         0.8070    7.6780   32.9790 C.3   423  PRO423      0.0237
    112  CD         2.2140    7.5490   33.4780 C.3   423  PRO423      0.0939
@<TRIPOS>BOND
     1     1     2    1
     2    10    11    1
     3     3     2    1
     4     3     4    2
     5     2     5    1
     6    11    12    1
     7    11    14    1
     8     5     6    1
     9    20    21    2
    10    20    19    1
    11    18    12   am
    12    18    19    1
    13    12    13    2
    14    14    15    1
    15    19    22    1
    16    22    23    1
    17     8     7    2
    18     6     7    1
    19     7     9   am
    20    23    24   ar
    21    23    25   ar
    22    24    26   ar
    23    15    17   ar
    24    15    16   ar
    25    25    27   ar
    26    26    27   ar
    27    76    77    1
    28    61    62    1
    29    60    58    1
    30    62    65    1
    31    62    63    1
    32    66    65    1
    33    52    53    2
    34    52    51    1
    35    78    77    1
    36    78    79    2
    37    77    80    1
    38    39    40    1
    39    58    57    2
    40    58    59    1
    41    63    67   am
    42    63    64    2
    43    74    73   ar
    44    57    56    1
    45    67    68    1
    46    50    51    1
    47    50    41   am
    48    51    54    1
    49    54    55    1
    50    83    81   ar
    51    83    85   ar
    52    28    29    1
    53    69    68    1
    54    69    70    2
    55    40    41    1
    56    40    43    1
    57    41    42    2
    58    80    81    1
    59    68    71    1
    60    71    72    1
    61    73    75   ar
    62    73    72    1
    63    81    82   ar
    64    56    55    1
    65    85    84   ar
    66    32    29    1
    67    32    33    1
    68    29    30    1
    69    43    44    1
    70    88    87    1
    71    88    89    2
    72    33    35   ar
    73    33    34   ar
    74    84    82   ar
    75    86    87    1
    76    87    90    1
    77    35    37   ar
    78    30    31    2
    79    34    36   ar
    80    44    45   ar
    81    44    46   ar
    82    37    38   ar
    83    45    47   ar
    84    36    38   ar
    85    92    94   ar
    86    92    91   ar
    87    90    91    1
    88    46    48   ar
    89    94    96   ar
    90    91    93   ar
    91    96    95   ar
    92    47    49   ar
    93    93    95   ar
    94    48    49   ar
    95   111   112    1
    96   111   110    1
    97   112   106    1
    98   105   103   am
    99   110   107    1
   100   106   107    1
   101   106    99   am
   102    97    98    1
   103    98    99    1
   104    98   101    1
   105   107   108    1
   106   103   102    1
   107   103   104    2
   108   102   101    1
   109    99   100    2
   110   108   109    2
