@<TRIPOS>MOLECULE
tmp/3py6A00.pdb
 134 130 0 0 0
SMALL
GASTEIGER

@<TRIPOS>ATOM
      1  N          8.2210   -6.1810  -14.8830 N.3    16  SER16      -0.1217
      2  CA         7.1140   -6.9080  -15.4990 C.3    16  SER16       0.1889
      3  C          5.7060   -6.2750  -15.4090 C.2    16  SER16       0.2288
      4  O          4.9340   -6.4150  -16.3460 O.2    16  SER16      -0.2866
      5  CB         7.0880   -8.3720  -15.0680 C.3    16  SER16       0.2089
      6  OG         6.7660   -8.5050  -13.7000 O.3    16  SER16      -0.2183
      7  N         11.2790  -16.8130  -22.0170 N.3    85  PRO85      -0.2102
      8  CA         9.8220  -16.8890  -22.2050 C.3    85  PRO85       0.1504
      9  C          8.9870  -16.4770  -20.9940 C.2    85  PRO85       0.2576
     10  O          8.3170  -17.3250  -20.3420 O.2    85  PRO85      -0.2718
     11  CB         9.6070  -18.3650  -22.4960 C.3    85  PRO85       0.0282
     12  CG        10.6370  -19.0590  -21.6470 C.3    85  PRO85       0.0208
     13  CD        11.8380  -18.1540  -21.7010 C.3    85  PRO85       0.0893
     14  N          9.1070  -15.2240  -20.6290 N.am   86  HIS86      -0.1962
     15  CA         8.3000  -14.6410  -19.5740 C.3    86  HIS86       0.1787
     16  C          7.3480  -13.6490  -20.2180 C.2    86  HIS86       0.2620
     17  O          7.6730  -13.0000  -21.2120 O.2    86  HIS86      -0.2715
     18  CB         9.1700  -13.9500  -18.5150 C.3    86  HIS86       0.0785
     19  CG         9.7440  -14.8840  -17.4960 C.ar   86  HIS86       0.0821
     20  ND1       10.7320  -14.5030  -16.6030 N.ar   86  HIS86      -0.2267
     21  CD2        9.4930  -16.1960  -17.2470 C.ar   86  HIS86       0.1154
     22  CE1       11.0190  -15.5290  -15.8150 C.ar   86  HIS86       0.1986
     23  NE2       10.2910  -16.5710  -16.1970 N.ar   86  HIS86      -0.2212
     24  N          6.1560  -13.5650  -19.6400 N.am   87  ALA87      -0.1963
     25  CA         5.0350  -12.7560  -20.1320 C.3    87  ALA87       0.1728
     26  C          5.4230  -11.3820  -20.6750 C.2    87  ALA87       0.2616
     27  O          5.0140  -10.9810  -21.7880 O.2    87  ALA87      -0.2715
     28  CB         4.0050  -12.5870  -18.9850 C.3    87  ALA87       0.0334
     29  N          6.2120  -10.6660  -19.8900 N.am   88  ASP88      -0.1971
     30  CA         6.5690   -9.2960  -20.2020 C.3    88  ASP88       0.1709
     31  C          7.4960   -9.1790  -21.4070 C.2    88  ASP88       0.2293
     32  O          7.7530   -8.0790  -21.8380 O.2    88  ASP88      -0.2864
     33  CB         7.1220   -8.5380  -18.9830 C.3    88  ASP88       0.1436
     34  CG         8.2380   -9.2730  -18.2320 C.2    88  ASP88       0.3671
     35  OD1        8.0980  -10.4950  -18.0230 O.co2  88  ASP88      -0.2456
     36  OD2        9.2290   -8.6090  -17.8120 O.co2  88  ASP88      -0.2456
     37  N          7.1780  -11.6830  -24.1710 N.3    90  ILE90      -0.1231
     38  CA         6.6540  -12.4470  -25.2820 C.3    90  ILE90       0.1692
     39  C          5.1630  -12.2410  -25.6200 C.2    90  ILE90       0.2592
     40  O          4.7550  -12.6140  -26.7060 O.2    90  ILE90      -0.2718
     41  CB         6.9220  -13.9780  -25.0920 C.3    90  ILE90       0.0266
     42  CG1        6.3230  -14.5080  -23.7670 C.3    90  ILE90       0.0019
     43  CG2        8.4350  -14.2980  -25.2350 C.3    90  ILE90       0.0020
     44  CD1        6.1750  -16.0340  -23.7550 C.3    90  ILE90       0.0001
     45  N          4.3500  -11.6650  -24.7270 N.am   91  HIS91      -0.1976
     46  CA         2.9110  -11.6930  -24.9360 C.3    91  HIS91       0.1656
     47  C          2.3770  -10.7010  -25.9890 C.2    91  HIS91       0.2291
     48  O          1.1830  -10.6720  -26.2390 O.2    91  HIS91      -0.2864
     49  CB         2.1820  -11.5530  -23.6110 C.3    91  HIS91       0.0771
     50  CG         2.2150  -12.7970  -22.7800 C.ar   91  HIS91       0.0820
     51  ND1        1.6310  -12.8610  -21.5320 N.ar   91  HIS91      -0.2267
     52  CD2        2.7440  -14.0230  -23.0150 C.ar   91  HIS91       0.1154
     53  CE1        1.8090  -14.0780  -21.0350 C.ar   91  HIS91       0.1986
     54  NE2        2.4770  -14.8040  -21.9120 N.ar   91  HIS91      -0.2212
     55  N          8.5540  -23.1350  -25.1710 N.3   118  ARG118     -0.1245
     56  CA         7.4660  -22.4360  -24.4870 C.3   118  ARG118      0.1563
     57  C          6.6040  -21.6450  -25.4920 C.2   118  ARG118      0.2260
     58  O          5.3840  -21.7000  -25.4100 O.2   118  ARG118     -0.2867
     59  CB         7.9780  -21.5470  -23.3480 C.3   118  ARG118      0.0307
     60  CG         8.6340  -22.3450  -22.2240 C.3   118  ARG118      0.0489
     61  CD         7.7090  -23.3240  -21.5080 C.3   118  ARG118      0.2205
     62  NE         6.5210  -22.6210  -21.0010 N.pl3 118  ARG118     -0.0865
     63  CZ         6.4630  -21.9790  -19.8660 C.cat 118  ARG118      0.5346
     64  NH1        7.4890  -21.9740  -19.0210 N.pl3 118  ARG118      0.1354
     65  NH2        5.3880  -21.3140  -19.5080 N.pl3 118  ARG118      0.1354
     66  N          2.4450  -22.0490  -26.1080 N.3   122  THR122     -0.1218
     67  CA         1.6090  -20.9430  -25.7460 C.3   122  THR122      0.1862
     68  C          1.0360  -20.3100  -26.9830 C.2   122  THR122      0.2287
     69  O         -0.1020  -19.8520  -26.9660 O.2   122  THR122     -0.2866
     70  CB         2.4420  -19.9130  -24.9290 C.3   122  THR122      0.1770
     71  OG1        3.8210  -20.1970  -25.1220 O.3   122  THR122     -0.2211
     72  CG2        2.2080  -20.0610  -23.5020 C.3   122  THR122      0.0375
     73  N         18.8710  -16.3350  -14.3680 N.3   168  HIS168     -0.1241
     74  CA        17.6840  -15.5220  -14.1110 C.3   168  HIS168      0.1621
     75  C         16.8300  -16.2550  -13.0910 C.2   168  HIS168      0.2264
     76  O         15.8380  -16.8920  -13.4320 O.2   168  HIS168     -0.2867
     77  CB        16.9280  -15.2970  -15.4380 C.3   168  HIS168      0.0745
     78  CG        15.6850  -14.4710  -15.3170 C.ar  168  HIS168      0.0817
     79  ND1       15.5380  -13.4760  -14.3750 N.ar  168  HIS168     -0.2268
     80  CD2       14.5380  -14.4810  -16.0380 C.ar  168  HIS168      0.1154
     81  CE1       14.3470  -12.9090  -14.5220 C.ar  168  HIS168      0.1986
     82  NE2       13.7220  -13.4960  -15.5240 N.ar  168  HIS168     -0.2212
     83  N         17.0040   -9.1860  -17.1780 N.3   186  ASP186     -0.1239
     84  CA        16.5100  -10.3930  -16.5310 C.3   186  ASP186      0.1674
     85  C         17.6500  -11.3230  -16.1600 C.2   186  ASP186      0.2266
     86  O         17.7070  -12.4910  -16.5440 O.2   186  ASP186     -0.2867
     87  CB        15.4180  -11.0860  -17.3800 C.3   186  ASP186      0.1410
     88  CG        14.1660  -10.2420  -17.4910 C.2   186  ASP186      0.3668
     89  OD1       14.2040   -9.2230  -18.2130 O.co2 186  ASP186     -0.2456
     90  OD2       13.1550  -10.5800  -16.8560 O.co2 186  ASP186     -0.2456
     91  N         16.6280   -4.0310  -10.8660 N.3   209  LEU209     -0.1245
     92  CA        15.1910   -4.0530  -10.5860 C.3   209  LEU209      0.1561
     93  C         14.7810   -3.0240   -9.5380 C.2   209  LEU209      0.2260
     94  O         13.8080   -2.2770   -9.7150 O.2   209  LEU209     -0.2867
     95  CB        14.7660   -5.4430  -10.1070 C.3   209  LEU209      0.0270
     96  CG        13.2710   -5.6170   -9.8240 C.3   209  LEU209      0.0019
     97  CD1       12.4900   -5.7140  -11.1100 C.3   209  LEU209      0.0001
     98  CD2       13.0320   -6.8580   -8.9780 C.3   209  LEU209      0.0001
     99  N         16.3770   -9.4860   -4.8410 N.3   214  HIS214     -0.1241
    100  CA        15.2910  -10.1940   -5.4870 C.3   214  HIS214      0.1621
    101  C         15.9000  -11.4280   -6.0890 C.2   214  HIS214      0.2264
    102  O         17.0330  -11.3860   -6.5480 O.2   214  HIS214     -0.2867
    103  CB        14.6810   -9.3540   -6.6130 C.3   214  HIS214      0.0745
    104  CG        13.4250   -9.9330   -7.1860 C.ar  214  HIS214      0.0817
    105  ND1       13.4270  -10.9560   -8.1120 N.ar  214  HIS214     -0.2268
    106  CD2       12.1240   -9.6120   -6.9800 C.ar  214  HIS214      0.1154
    107  CE1       12.1780  -11.2360   -8.4460 C.ar  214  HIS214      0.1986
    108  NE2       11.3710  -10.4400   -7.7660 N.ar  214  HIS214     -0.2212
    109  N         15.5420  -13.0590   -8.8200 N.3   216  SER216     -0.1202
    110  CA        15.6070  -13.1730  -10.2750 C.3   216  SER216      0.2020
    111  C         16.3150  -12.0130  -10.9680 C.2   216  SER216      0.2618
    112  O         16.5040  -12.0350  -12.2020 O.2   216  SER216     -0.2717
    113  CB        14.1820  -13.2590  -10.8400 C.3   216  SER216      0.2103
    114  OG        13.4970  -14.4090  -10.3770 O.3   216  SER216     -0.2182
    115  N         16.6260  -10.9540  -10.2190 N.am  217  HIS217     -0.1975
    116  CA        17.2680   -9.7680  -10.8050 C.3   217  HIS217      0.1656
    117  C         18.2760   -9.1410   -9.8860 C.2   217  HIS217      0.2291
    118  O         18.0990   -9.1550   -8.6650 O.2   217  HIS217     -0.2864
    119  CB        16.2540   -8.6670  -11.0740 C.3   217  HIS217      0.0771
    120  CG        15.0850   -9.0960  -11.8880 C.ar  217  HIS217      0.0820
    121  ND1       15.0730   -8.9900  -13.2610 N.ar  217  HIS217     -0.2267
    122  CD2       13.8800   -9.6110  -11.5300 C.ar  217  HIS217      0.1154
    123  CE1       13.9050   -9.4170  -13.7100 C.ar  217  HIS217      0.1986
    124  NE2       13.1730   -9.8160  -12.6820 N.ar  217  HIS217     -0.2212
    125  N         14.9310   -2.5150  -16.9090 N.3   239  HIS239     -0.1241
    126  CA        14.0400   -3.4140  -16.1500 C.3   239  HIS239      0.1621
    127  C         13.8410   -2.9150  -14.7300 C.2   239  HIS239      0.2264
    128  O         13.8110   -3.6920  -13.7720 O.2   239  HIS239     -0.2867
    129  CB        14.5470   -4.8510  -16.1980 C.3   239  HIS239      0.0745
    130  CG        13.4740   -5.8880  -16.1150 C.ar  239  HIS239      0.0817
    131  ND1       12.8050   -6.1720  -14.9450 N.ar  239  HIS239     -0.2268
    132  CD2       12.9620   -6.7240  -17.0530 C.ar  239  HIS239      0.1154
    133  CE1       11.9640   -7.1640  -15.1560 C.ar  239  HIS239      0.1986
    134  NE2       12.0100   -7.4970  -16.4310 N.ar  239  HIS239     -0.2212
@<TRIPOS>BOND
     1    68    69    2
     2    68    67    1
     3    40    39    2
     4    48    47    2
     5    66    67    1
     6    47    46    1
     7    67    70    1
     8    39    38    1
     9    39    45   am
    10    57    58    2
    11    57    56    1
    12    38    41    1
    13    38    37    1
    14    43    41    1
    15    55    56    1
    16    71    70    1
    17    41    42    1
    18    46    45    1
    19    46    49    1
    20    70    72    1
    21    56    59    1
    22    42    44    1
    23    49    50    1
    24    59    60    1
    25    52    50   ar
    26    52    54   ar
    27    50    51   ar
    28    11     8    1
    29    11    12    1
    30    60    61    1
    31     8     7    1
    32     8     9    1
    33     7    13    1
    34    54    53   ar
    35    32    31    2
    36    27    26    2
    37    13    12    1
    38    51    53   ar
    39    61    62    1
    40    31    30    1
    41    17    16    2
    42    62    63    2
    43     9    14   am
    44     9    10    2
    45    26    25    1
    46    26    29   am
    47    14    15    1
    48    16    24   am
    49    16    15    1
    50    30    29    1
    51    30    33    1
    52    25    24    1
    53    25    28    1
    54    63    65    1
    55    63    64    1
    56    15    18    1
    57    33    34    1
    58    18    19    1
    59    34    35   ar
    60    34    36   ar
    61    89    88   ar
    62    19    21   ar
    63    19    20   ar
    64    88    87    1
    65    88    90   ar
    66    87    84    1
    67    21    23   ar
    68    83    84    1
    69   132   134   ar
    70   132   130   ar
    71   125   126    1
    72    20    22   ar
    73    86    85    2
    74    84    85    1
    75   134   133   ar
    76     4     3    2
    77   129   126    1
    78   129   130    1
    79    23    22   ar
    80   126   127    1
    81   130   131   ar
    82    80    82   ar
    83    80    78   ar
    84    82    81   ar
    85     2     3    1
    86     2     5    1
    87     2     1    1
    88    77    78    1
    89    77    74    1
    90    78    79   ar
    91   133   131   ar
    92     5     6    1
    93   127   128    2
    94    81    79   ar
    95    73    74    1
    96    74    75    1
    97   123   121   ar
    98   123   124   ar
    99    76    75    2
   100   121   120   ar
   101   124   122   ar
   102   112   111    2
   103   120   122   ar
   104   120   119    1
   105    97    96    1
   106   119   116    1
   107   111   110    1
   108   111   115   am
   109    91    92    1
   110   113   114    1
   111   113   110    1
   112   116   115    1
   113   116   117    1
   114    92    95    1
   115    92    93    1
   116   110   109    1
   117    95    96    1
   118   117   118    2
   119    96    98    1
   120    94    93    2
   121   107   105   ar
   122   107   108   ar
   123   105   104   ar
   124   108   106   ar
   125   104   106   ar
   126   104   103    1
   127   103   100    1
   128   102   101    2
   129   101   100    1
   130   100    99    1
