@<TRIPOS>MOLECULE
tmp/3py7A00.pdb
 226 221 0 0 0
SMALL
GASTEIGER

@<TRIPOS>ATOM
      1  N         38.2220   42.9650   18.6300 N.3    11  ASN11      -0.1240
      2  CA        39.3790   42.2720   18.0890 C.3    11  ASN11       0.1653
      3  C         40.4760   43.2010   17.5510 C.2    11  ASN11       0.2266
      4  O         40.2050   44.3070   17.0910 O.2    11  ASN11      -0.2867
      5  CB        38.9330   41.2940   16.9980 C.3    11  ASN11       0.1155
      6  CG        39.9570   40.2060   16.7400 C.2    11  ASN11       0.2627
      7  OD1       40.4120   39.5180   17.6660 O.2    11  ASN11      -0.2716
      8  ND2       40.3370   40.0520   15.4780 N.am   11  ASN11      -0.0877
      9  N         42.2860   43.2190   14.9390 N.3    13  ASP13      -0.1225
     10  CA        42.3660   43.5510   13.5190 C.3    13  ASP13       0.1805
     11  C         41.4010   44.6630   13.1410 C.2    13  ASP13       0.2597
     12  O         41.4530   45.1780   12.0330 O.2    13  ASP13      -0.2718
     13  CB        42.2120   42.3170   12.6020 C.3    13  ASP13       0.1424
     14  CG        40.9670   41.4730   12.9180 C.2    13  ASP13       0.3668
     15  OD1       40.0190   41.9810   13.5520 O.co2  13  ASP13      -0.2456
     16  OD2       40.9430   40.2840   12.5160 O.co2  13  ASP13      -0.2456
     17  N         40.5510   45.0560   14.0820 N.am   14  LYS14      -0.1979
     18  CA        39.5490   46.0960   13.8370 C.3    14  LYS14       0.1596
     19  C         40.0150   47.4850   14.3060 C.2    14  LYS14       0.2287
     20  O         41.0260   47.6190   14.9990 O.2    14  LYS14      -0.2864
     21  CB        38.2320   45.7160   14.5310 C.3    14  LYS14       0.0298
     22  CG        37.6240   44.3640   14.0580 C.3    14  LYS14       0.0038
     23  CD        37.6540   44.2290   12.5370 C.3    14  LYS14       0.0206
     24  CE        36.7640   43.0840   12.0530 C.3    14  LYS14       0.1093
     25  NZ        37.1790   41.7920   12.6540 N.3    14  LYS14      -0.1314
     26  N         37.1050   36.1890   22.0870 N.3    43  GLU43      -0.1231
     27  CA        35.8670   35.4600   21.8440 C.3    43  GLU43       0.1699
     28  C         35.8100   34.1660   22.6550 C.2    43  GLU43       0.2592
     29  O         34.7380   33.5960   22.8650 O.2    43  GLU43      -0.2718
     30  CB        35.6570   35.1890   20.3500 C.3    43  GLU43       0.0402
     31  CG        36.4040   33.9950   19.8020 C.3    43  GLU43       0.1161
     32  CD        37.9230   34.1850   19.7370 C.2    43  GLU43       0.3649
     33  OE1       38.4390   35.2880   20.0360 O.co2  43  GLU43      -0.2457
     34  OE2       38.6010   33.2000   19.3900 O.co2  43  GLU43      -0.2457
     35  N         36.9670   33.7090   23.1110 N.am   44  GLU44      -0.1979
     36  CA        37.0250   32.5390   23.9740 C.3    44  GLU44       0.1602
     37  C         37.0310   32.9790   25.4330 C.2    44  GLU44       0.2287
     38  O         36.5220   32.2770   26.2980 O.2    44  GLU44      -0.2864
     39  CB        38.2700   31.6890   23.6780 C.3    44  GLU44       0.0415
     40  CG        38.2520   30.9800   22.3200 C.3    44  GLU44       0.1163
     41  CD        39.5750   30.2850   21.9780 C.2    44  GLU44       0.3649
     42  OE1       40.5630   30.4640   22.7220 O.co2  44  GLU44      -0.2457
     43  OE2       39.6220   29.5520   20.9620 O.co2  44  GLU44      -0.2457
     44  N         32.1320   41.0500   17.9010 N.3    61  TRP61      -0.1227
     45  CA        32.5980   39.9100   17.1180 C.3    61  TRP61       0.1737
     46  C         31.6320   39.6800   15.9660 C.2    61  TRP61       0.2595
     47  O         30.5000   40.1490   16.0200 O.2    61  TRP61      -0.2718
     48  CB        32.6810   38.6500   17.9880 C.3    61  TRP61       0.0564
     49  CG        33.5500   37.5540   17.3960 C.ar   61  TRP61       0.0003
     50  CD1       33.1340   36.4550   16.7070 C.ar   61  TRP61       0.0946
     51  CD2       34.9870   37.4720   17.4570 C.ar   61  TRP61       0.0152
     52  NE1       34.2210   35.6970   16.3270 N.ar   61  TRP61      -0.2442
     53  CE2       35.3650   36.2950   16.7820 C.ar   61  TRP61       0.0810
     54  CE3       35.9850   38.2810   18.0270 C.ar   61  TRP61       0.0012
     55  CZ2       36.7130   35.9030   16.6460 C.ar   61  TRP61       0.0191
     56  CZ3       37.3190   37.8890   17.9050 C.ar   61  TRP61       0.0001
     57  CH2       37.6700   36.7080   17.2120 C.ar   61  TRP61       0.0015
     58  N         32.0620   38.9620   14.9280 N.am   62  ALA62      -0.1980
     59  CA        31.1210   38.5160   13.9020 C.3    62  ALA62       0.1597
     60  C         29.9800   37.7290   14.5580 C.2    62  ALA62       0.2287
     61  O         30.1830   37.0720   15.5820 O.2    62  ALA62      -0.2864
     62  CB        31.8110   37.6710   12.8530 C.3    62  ALA62       0.0319
     63  N         28.5330   34.9710   14.2020 N.3    64  ASP64      -0.1225
     64  CA        28.5250   33.5040   14.3340 C.3    64  ASP64       0.1805
     65  C         28.7690   32.9980   15.7560 C.2    64  ASP64       0.2597
     66  O         28.3400   31.9040   16.1010 O.2    64  ASP64      -0.2718
     67  CB        29.5150   32.8220   13.3720 C.3    64  ASP64       0.1424
     68  CG        30.9620   33.2280   13.6120 C.2    64  ASP64       0.3668
     69  OD1       31.2620   34.4410   13.5500 O.co2  64  ASP64      -0.2456
     70  OD2       31.8070   32.3350   13.8460 O.co2  64  ASP64      -0.2456
     71  N         29.4670   33.7830   16.5700 N.am   65  ARG65      -0.1979
     72  CA        29.7710   33.3880   17.9440 C.3    65  ARG65       0.1597
     73  C         28.5800   33.5960   18.8800 C.2    65  ARG65       0.2287
     74  O         28.5040   32.9740   19.9420 O.2    65  ARG65      -0.2864
     75  CB        30.9610   34.2010   18.4810 C.3    65  ARG65       0.0334
     76  CG        32.3050   33.5230   18.3570 C.3    65  ARG65       0.0492
     77  CD        32.3020   32.2870   19.2280 C.3    65  ARG65       0.2205
     78  NE        33.6300   31.7130   19.4050 N.pl3  65  ARG65      -0.0865
     79  CZ        33.9600   30.8940   20.4000 C.cat  65  ARG65       0.5346
     80  NH1       33.0620   30.5570   21.3210 N.pl3  65  ARG65       0.1354
     81  NH2       35.1890   30.4160   20.4770 N.pl3  65  ARG65       0.1354
     82  N         30.9880   41.7190    6.3290 N.3   110  GLU110     -0.1245
     83  CA        32.3630   41.3990    5.9860 C.3   110  GLU110      0.1567
     84  C         32.4570   40.2310    5.0420 C.2   110  GLU110      0.2260
     85  O         31.8390   39.1990    5.2650 O.2   110  GLU110     -0.2867
     86  CB        33.1410   41.0330    7.2480 C.3   110  GLU110      0.0388
     87  CG        33.3120   42.1540    8.2460 C.3   110  GLU110      0.1160
     88  CD        33.8630   41.6590    9.5860 C.2   110  GLU110      0.3649
     89  OE1       34.1760   40.4460    9.7270 O.co2 110  GLU110     -0.2457
     90  OE2       33.9820   42.4940   10.4900 O.co2 110  GLU110     -0.2457
     91  N         46.5200   33.6990    4.8570 N.3   149  ASN149     -0.1240
     92  CA        46.5150   32.9960    6.1440 C.3   149  ASN149      0.1653
     93  C         45.9260   31.6080    6.0100 C.2   149  ASN149      0.2266
     94  O         44.7390   31.4670    5.7910 O.2   149  ASN149     -0.2867
     95  CB        45.6920   33.8030    7.1560 C.3   149  ASN149      0.1155
     96  CG        45.8100   33.2860    8.5830 C.2   149  ASN149      0.2627
     97  OD1       46.5740   32.3640    8.8720 O.2   149  ASN149     -0.2716
     98  ND2       45.0450   33.9040    9.4920 N.am  149  ASN149     -0.0877
     99  N         43.7700   29.7860    9.6130 N.3   152  GLU152     -0.1231
    100  CA        42.3620   29.9750    9.9410 C.3   152  GLU152      0.1684
    101  C         41.4490   29.5090    8.8130 C.2   152  GLU152      0.2434
    102  O         41.5600   29.9750    7.6820 O.2   152  GLU152     -0.2733
    103  CB        42.0850   31.4430   10.2660 C.3   152  GLU152      0.0402
    104  CG        42.6530   31.9030   11.5970 C.3   152  GLU152      0.1161
    105  CD        41.9260   31.3000   12.7800 C.2   152  GLU152      0.3649
    106  OE1       40.7170   31.0200   12.6590 O.co2 152  GLU152     -0.2457
    107  OE2       42.5650   31.1030   13.8330 O.co2 152  GLU152     -0.2457
    108  N         40.5450   28.5890    9.1330 N.am  153  PRO153     -0.2718
    109  CA        39.6200   28.0270    8.1410 C.3   153  PRO153      0.1535
    110  C         38.7660   29.0960    7.4670 C.2   153  PRO153      0.2599
    111  O         38.1960   28.8490    6.4080 O.2   153  PRO153     -0.2715
    112  CB        38.7380   27.0960    8.9770 C.3   153  PRO153      0.0310
    113  CG        38.8170   27.6360   10.3580 C.3   153  PRO153      0.0237
    114  CD        40.2060   28.1720   10.5030 C.3   153  PRO153      0.0939
    115  N         38.6840   30.2680    8.0830 N.am  154  TYR154     -0.1960
    116  CA        37.9210   31.3780    7.5290 C.3   154  TYR154      0.1771
    117  C         38.4490   31.7720    6.1540 C.2   154  TYR154      0.2619
    118  O         37.6950   32.2180    5.2930 O.2   154  TYR154     -0.2715
    119  CB        37.9890   32.5750    8.4780 C.3   154  TYR154      0.0574
    120  CG        37.2460   33.8020    8.0040 C.ar  154  TYR154     -0.0198
    121  CD1       35.8600   33.8360    7.9890 C.ar  154  TYR154     -0.0009
    122  CD2       37.9320   34.9320    7.5860 C.ar  154  TYR154     -0.0009
    123  CE1       35.1790   34.9580    7.5640 C.ar  154  TYR154      0.0417
    124  CE2       37.2590   36.0580    7.1610 C.ar  154  TYR154      0.0417
    125  CZ        35.8830   36.0660    7.1510 C.ar  154  TYR154      0.1957
    126  OH        35.2090   37.1860    6.7270 O.3   154  TYR154     -0.2866
    127  N         39.7510   31.6030    5.9590 N.am  155  PHE155     -0.1974
    128  CA        40.4040   32.0170    4.7240 C.3   155  PHE155      0.1639
    129  C         40.4290   30.9190    3.6680 C.2   155  PHE155      0.2290
    130  O         40.5570   31.2010    2.4800 O.2   155  PHE155     -0.2864
    131  CB        41.8330   32.4860    5.0110 C.3   155  PHE155      0.0560
    132  CG        41.9090   33.7270    5.8500 C.ar  155  PHE155     -0.0200
    133  CD1       41.7240   33.6660    7.2190 C.ar  155  PHE155     -0.0042
    134  CD2       42.1680   34.9550    5.2690 C.ar  155  PHE155     -0.0042
    135  CE1       41.7930   34.8050    7.9920 C.ar  155  PHE155     -0.0003
    136  CE2       42.2380   36.0970    6.0370 C.ar  155  PHE155     -0.0003
    137  CZ        42.0500   36.0220    7.4000 C.ar  155  PHE155     -0.0000
    138  N         48.6280   35.0240    9.2990 N.3   209  TYR209     -0.1241
    139  CA        48.1330   36.3510    8.9820 C.3   209  TYR209      0.1605
    140  C         49.2880   37.3530    8.7910 C.2   209  TYR209      0.2264
    141  O         49.3840   38.0070    7.7390 O.2   209  TYR209     -0.2867
    142  CB        47.1180   36.8350   10.0230 C.3   209  TYR209      0.0534
    143  CG        46.4000   38.0900    9.5880 C.ar  209  TYR209     -0.0201
    144  CD1       46.9700   39.3440    9.7910 C.ar  209  TYR209     -0.0009
    145  CD2       45.1470   38.0270    8.9680 C.ar  209  TYR209     -0.0009
    146  CE1       46.3210   40.4980    9.3820 C.ar  209  TYR209      0.0417
    147  CE2       44.4930   39.1870    8.5570 C.ar  209  TYR209      0.0417
    148  CZ        45.0910   40.4150    8.7570 C.ar  209  TYR209      0.1957
    149  OH        44.4480   41.5740    8.3570 O.3   209  TYR209     -0.2866
    150  N         39.3080   45.2040    6.7510 N.3   229  TRP229     -0.1241
    151  CA        40.1950   45.6720    7.8120 C.3   229  TRP229      0.1605
    152  C         41.6670   45.7640    7.3690 C.2   229  TRP229      0.2264
    153  O         42.4540   46.5120    7.9580 O.2   229  TRP229     -0.2867
    154  CB        40.1060   44.7610    9.0400 C.3   229  TRP229      0.0550
    155  CG        40.3230   43.3380    8.6780 C.ar  229  TRP229      0.0003
    156  CD1       41.5170   42.6970    8.5640 C.ar  229  TRP229      0.0946
    157  CD2       39.3140   42.3820    8.3390 C.ar  229  TRP229      0.0152
    158  NE1       41.3160   41.3920    8.1870 N.ar  229  TRP229     -0.2442
    159  CE2       39.9710   41.1730    8.0420 C.ar  229  TRP229      0.0810
    160  CE3       37.9150   42.4280    8.2800 C.ar  229  TRP229      0.0012
    161  CZ2       39.2750   40.0080    7.6750 C.ar  229  TRP229      0.0191
    162  CZ3       37.2220   41.2840    7.9240 C.ar  229  TRP229      0.0001
    163  CH2       37.9050   40.0850    7.6150 C.ar  229  TRP229      0.0015
    164  N         30.3540   37.4580    7.4740 N.3   259  GLY259     -0.1225
    165  CA        30.1800   37.7360    8.8840 C.3   259  GLY259      0.1811
    166  C         29.5920   39.1150    9.0800 C.2   259  GLY259      0.2280
    167  O         29.9320   40.0490    8.3660 O.2   259  GLY259     -0.2866
    168  N         29.7640   41.9080   11.6990 N.3   261  LEU261     -0.1245
    169  CA        30.3930   42.3720   12.9170 C.3   261  LEU261      0.1561
    170  C         29.2810   42.9340   13.7910 C.2   261  LEU261      0.2260
    171  O         28.5520   43.8170   13.3680 O.2   261  LEU261     -0.2867
    172  CB        31.4600   43.4340   12.6140 C.3   261  LEU261      0.0270
    173  CG        32.0540   44.1380   13.8350 C.3   261  LEU261      0.0019
    174  CD1       32.9620   43.1910   14.6470 C.3   261  LEU261      0.0001
    175  CD2       32.8200   45.3900   13.4130 C.3   261  LEU261      0.0001
    176  N         27.0310   33.5110    7.5810 N.3   329  MET329     -0.1245
    177  CA        27.3440   32.4970    8.5750 C.3   329  MET329      0.1570
    178  C         26.1280   32.1940    9.4360 C.2   329  MET329      0.2261
    179  O         25.3460   33.0850    9.7550 O.2   329  MET329     -0.2867
    180  CB        28.4860   32.9710    9.4710 C.3   329  MET329      0.0387
    181  CG        29.8700   32.7380    8.9050 C.3   329  MET329      0.0595
    182  SD        31.1480   33.2250   10.0750 S.3   329  MET329     -0.1393
    183  CE        30.9220   34.9970   10.1070 C.3   329  MET329      0.0692
    184  N         30.9890   27.0290   16.5430 N.3   336  SER336     -0.1217
    185  CA        32.2790   26.8570   17.2030 C.3   336  SER336      0.1889
    186  C         32.8740   25.4950   16.9000 C.2   336  SER336      0.2288
    187  O         34.0280   25.4000   16.4790 O.2   336  SER336     -0.2866
    188  CB        32.1440   27.0240   18.7130 C.3   336  SER336      0.2089
    189  OG        32.1810   28.3910   19.0310 O.3   336  SER336     -0.2183
    190  N         33.9080   25.3050   13.1500 N.3   339  TRP339     -0.1227
    191  CA        35.1650   25.9960   12.8750 C.3   339  TRP339      0.1737
    192  C         36.3840   25.2270   13.3910 C.2   339  TRP339      0.2595
    193  O         37.3540   25.0590   12.6670 O.2   339  TRP339     -0.2718
    194  CB        35.1400   27.4050   13.4440 C.3   339  TRP339      0.0564
    195  CG        34.3160   28.3950   12.6540 C.ar  339  TRP339      0.0003
    196  CD1       33.2720   29.1450   13.1200 C.ar  339  TRP339      0.0946
    197  CD2       34.4870   28.7570   11.2760 C.ar  339  TRP339      0.0152
    198  NE1       32.7960   29.9580   12.1220 N.ar  339  TRP339     -0.2442
    199  CE2       33.5230   29.7390   10.9840 C.ar  339  TRP339      0.0810
    200  CE3       35.3640   28.3480   10.2650 C.ar  339  TRP339      0.0012
    201  CZ2       33.4040   30.3100    9.7050 C.ar  339  TRP339      0.0191
    202  CZ3       35.2550   28.9320    9.0110 C.ar  339  TRP339      0.0001
    203  CH2       34.2850   29.9000    8.7430 C.ar  339  TRP339      0.0015
    204  N         36.3430   24.7540   14.6340 N.am  340  TYR340     -0.1976
    205  CA        37.4770   23.9980   15.1670 C.3   340  TYR340      0.1639
    206  C         37.7660   22.7650   14.3420 C.2   340  TYR340      0.2290
    207  O         38.9230   22.4500   14.1110 O.2   340  TYR340     -0.2864
    208  CB        37.2530   23.5740   16.6140 C.3   340  TYR340      0.0560
    209  CG        37.4300   24.6910   17.5930 C.ar  340  TYR340     -0.0198
    210  CD1       38.7000   25.1250   17.9740 C.ar  340  TYR340     -0.0009
    211  CD2       36.3290   25.3150   18.1480 C.ar  340  TYR340     -0.0009
    212  CE1       38.8560   26.1630   18.8760 C.ar  340  TYR340      0.0417
    213  CE2       36.4730   26.3440   19.0460 C.ar  340  TYR340      0.0417
    214  CZ        37.7290   26.7740   19.4010 C.ar  340  TYR340      0.1957
    215  OH        37.8230   27.8100   20.3050 O.3   340  TYR340     -0.2866
    216  N         39.4000   23.8400   11.0250 N.3   343  ARG343     -0.1245
    217  CA        40.7410   24.3300   11.3030 C.3   343  ARG343      0.1563
    218  C         41.6950   23.1460   11.3560 C.2   343  ARG343      0.2260
    219  O         42.7250   23.1320   10.6880 O.2   343  ARG343     -0.2867
    220  CB        40.7750   25.0960   12.6290 C.3   343  ARG343      0.0307
    221  CG        42.1720   25.6360   12.9930 C.3   343  ARG343      0.0489
    222  CD        42.2020   26.2040   14.4180 C.3   343  ARG343      0.2205
    223  NE        43.5610   26.5730   14.8190 N.pl3 343  ARG343     -0.0865
    224  CZ        44.4570   25.7250   15.3310 C.cat 343  ARG343      0.5346
    225  NH1       44.1430   24.4460   15.5190 N.pl3 343  ARG343      0.1354
    226  NH2       45.6750   26.1550   15.6520 N.pl3 343  ARG343      0.1354
@<TRIPOS>BOND
     1   130   129    2
     2   129   128    1
     3   128   131    1
     4   128   127    1
     5    91    92    1
     6   131   132    1
     7    84    85    2
     8    84    83    1
     9   134   132   ar
    10   134   136   ar
    11   118   117    2
    12    94    93    2
    13   132   133   ar
    14   127   117   am
    15    83    82    1
    16    83    86    1
    17    93    92    1
    18   136   137   ar
    19    92    95    1
    20   117   116    1
    21   111   110    2
    22   126   125    1
    23   150   151    1
    24   125   124   ar
    25   125   123   ar
    26    95    96    1
    27   124   122   ar
    28   133   135   ar
    29    86    87    1
    30   152   151    1
    31   152   153    2
    32   137   135   ar
    33   110   115   am
    34   110   109    1
    35   164   165    1
    36   116   115    1
    37   116   119    1
    38   123   121   ar
    39   176   177    1
    40   122   120   ar
    41   163   161   ar
    42   163   162   ar
    43   161   159   ar
    44   102   101    2
    45   141   140    2
    46   151   154    1
    47   162   160   ar
    48   121   120   ar
    49   120   119    1
    50   159   158   ar
    51   159   157   ar
    52   109   112    1
    53   109   108    1
    54   158   156   ar
    55    87    88    1
    56   160   157   ar
    57   157   155   ar
    58   149   148    1
    59   167   166    2
    60   147   148   ar
    61   147   145   ar
    62   156   155   ar
    63   177   178    1
    64   177   180    1
    65    96    97    2
    66    96    98   am
    67   155   154    1
    68   203   202   ar
    69   203   201   ar
    70   148   146   ar
    71   140   139    1
    72   101   108   am
    73   101   100    1
    74   165   166    1
    75   181   180    1
    76   181   182    1
    77   145   143   ar
    78   112   113    1
    79   139   138    1
    80   139   142    1
    81   202   200   ar
    82   108   114    1
    83   146   144   ar
    84   178   179    2
    85    88    89   ar
    86    88    90   ar
    87   143   144   ar
    88   143   142    1
    89    99   100    1
    90   201   199   ar
    91   100   103    1
    92   182   183    1
    93   200   197   ar
    94   103   104    1
    95   113   114    1
    96   219   218    2
    97   199   197   ar
    98   199   198   ar
    99   216   217    1
   100   197   195   ar
   101   217   218    1
   102   217   220    1
   103   104   105    1
   104   168   169    1
   105    12    11    2
   106    24    23    1
   107    24    25    1
   108   198   196   ar
   109    16    14   ar
   110    23    22    1
   111    13    14    1
   112    13    10    1
   113   172   169    1
   114   172   173    1
   115   220   221    1
   116   195   196   ar
   117   195   194    1
   118   106   105   ar
   119   193   192    2
   120   105   107   ar
   121    62    59    1
   122   191   190    1
   123   191   192    1
   124   191   194    1
   125   169   170    1
   126    14    15   ar
   127   221   222    1
   128    11    10    1
   129    11    17   am
   130   171   170    2
   131    67    68    1
   132    67    64    1
   133   192   204   am
   134   175   173    1
   135    10     9    1
   136    69    68   ar
   137    68    70   ar
   138   173   174    1
   139    18    17    1
   140    18    19    1
   141    18    21    1
   142    59    60    1
   143    59    58    1
   144    22    21    1
   145   207   206    2
   146    63    64    1
   147    19    20    2
   148    64    65    1
   149   206   205    1
   150   222   223    1
   151    60    61    2
   152   204   205    1
   153   223   224    2
   154    58    46   am
   155   205   208    1
   156   224   225    1
   157   224   226    1
   158     8     6   am
   159    65    66    2
   160    65    71   am
   161    46    47    2
   162    46    45    1
   163    52    50   ar
   164    52    53   ar
   165   187   186    2
   166   184   185    1
   167    71    72    1
   168   208   209    1
   169    55    53   ar
   170    55    57   ar
   171    50    49   ar
   172     6     5    1
   173     6     7    2
   174    53    51   ar
   175   186   185    1
   176     5     2    1
   177     4     3    2
   178    45    44    1
   179    45    48    1
   180   185   188    1
   181    57    56   ar
   182    49    51   ar
   183    49    48    1
   184    51    54   ar
   185     3     2    1
   186   209   210   ar
   187   209   211   ar
   188    56    54   ar
   189    72    75    1
   190    72    73    1
   191   210   212   ar
   192     2     1    1
   193   211   213   ar
   194    76    75    1
   195    76    77    1
   196   188   189    1
   197   212   214   ar
   198    73    74    2
   199   213   214   ar
   200    77    78    1
   201    34    32   ar
   202   214   215    1
   203    78    79    2
   204    32    31    1
   205    32    33   ar
   206    31    30    1
   207    30    27    1
   208    79    81    1
   209    79    80    1
   210    43    41   ar
   211    27    26    1
   212    27    28    1
   213    41    40    1
   214    41    42   ar
   215    40    39    1
   216    28    29    2
   217    28    35   am
   218    35    36    1
   219    39    36    1
   220    36    37    1
   221    37    38    2
