@<TRIPOS>MOLECULE
tmp/3pyaA00.pdb
 134 129 0 0 0
SMALL
GASTEIGER

@<TRIPOS>ATOM
      1  N         22.0460   23.8780   22.0350 N.3   117  PRO117     -0.2102
      2  CA        20.9170   24.0620   21.1250 C.3   117  PRO117      0.1504
      3  C         21.4820   24.3780   19.7420 C.2   117  PRO117      0.2576
      4  O         22.6060   24.8580   19.6370 O.2   117  PRO117     -0.2718
      5  CB        20.1920   25.2740   21.7100 C.3   117  PRO117      0.0282
      6  CG        20.5760   25.2850   23.1530 C.3   117  PRO117      0.0208
      7  CD        21.9900   24.7880   23.1910 C.3   117  PRO117      0.0893
      8  N         20.7230   24.0920   18.6970 N.am  118  ILE118     -0.1966
      9  CA        21.2190   24.2710   17.3430 C.3   118  ILE118      0.1727
     10  C         21.3810   25.7450   16.9790 C.2   118  ILE118      0.2616
     11  O         20.4570   26.5390   17.1400 O.2   118  ILE118     -0.2715
     12  CB        20.2860   23.5950   16.3240 C.3   118  ILE118      0.0290
     13  CG1       20.0390   22.1360   16.7220 C.3   118  ILE118      0.0022
     14  CG2       20.8440   23.7300   14.9160 C.3   118  ILE118      0.0023
     15  CD1       21.2810   21.4110   17.2450 C.3   118  ILE118      0.0001
     16  N         22.5620   26.1020   16.4850 N.am  119  GLY119     -0.1955
     17  CA        22.8280   27.4690   16.0760 C.3   119  GLY119      0.1869
     18  C         22.9070   28.4490   17.2350 C.2   119  GLY119      0.2309
     19  O         22.6800   29.6410   17.0520 O.2   119  GLY119     -0.2863
     20  N         25.4940   29.5870   18.8910 N.3   121  GLU121     -0.1231
     21  CA        26.6220   30.5070   18.8410 C.3   121  GLU121      0.1699
     22  C         26.4280   31.6650   17.8610 C.2   121  GLU121      0.2592
     23  O         27.1170   32.6790   17.9510 O.2   121  GLU121     -0.2718
     24  CB        27.9140   29.7410   18.5510 C.3   121  GLU121      0.0402
     25  CG        28.3090   28.8020   19.6830 C.3   121  GLU121      0.1161
     26  CD        29.2980   27.7320   19.2550 C.2   121  GLU121      0.3649
     27  OE1       29.0370   27.0480   18.2390 O.co2 121  GLU121     -0.2457
     28  OE2       30.3290   27.5660   19.9450 O.co2 121  GLU121     -0.2457
     29  N         25.4930   31.5250   16.9300 N.am  122  VAL122     -0.1980
     30  CA        25.1380   32.6490   16.0710 C.3   122  VAL122      0.1595
     31  C         23.9100   33.3610   16.6330 C.2   122  VAL122      0.2287
     32  O         23.8070   34.5840   16.5770 O.2   122  VAL122     -0.2864
     33  CB        24.8580   32.2060   14.6200 C.3   122  VAL122      0.0276
     34  CG1       24.1830   33.3230   13.8530 C.3   122  VAL122      0.0022
     35  CG2       26.1420   31.8040   13.9320 C.3   122  VAL122      0.0022
     36  N         31.9230   31.5890   12.3760 N.3   155  LYS155     -0.1245
     37  CA        30.8440   30.7910   11.8170 C.3   155  LYS155      0.1561
     38  C         30.3350   31.4700   10.5480 C.2   155  LYS155      0.2260
     39  O         30.1370   30.8290    9.5210 O.2   155  LYS155     -0.2867
     40  CB        29.7010   30.6800   12.8270 C.3   155  LYS155      0.0271
     41  CG        29.2880   29.2610   13.1880 C.3   155  LYS155      0.0035
     42  CD        30.2110   28.6480   14.2310 C.3   155  LYS155      0.0206
     43  CE        29.5070   27.5250   14.9900 C.3   155  LYS155      0.1093
     44  NZ        28.9450   26.4830   14.0800 N.3   155  LYS155     -0.1314
     45  N         29.8930   30.4960    6.3450 N.3   159  ILE159     -0.1245
     46  CA        28.5830   30.2210    5.7710 C.3   159  ILE159      0.1561
     47  C         28.5930   30.4750    4.2680 C.2   159  ILE159      0.2260
     48  O         29.0360   31.5310    3.8180 O.2   159  ILE159     -0.2867
     49  CB        27.4860   31.0920    6.4140 C.3   159  ILE159      0.0252
     50  CG1       27.2500   30.6730    7.8650 C.3   159  ILE159      0.0019
     51  CG2       26.1920   30.9930    5.6160 C.3   159  ILE159      0.0019
     52  CD1       26.8280   29.2310    8.0170 C.3   159  ILE159      0.0001
     53  N         19.4880   24.0020    4.9650 N.3   170  THR170     -0.1203
     54  CA        19.1030   24.0340    6.3660 C.3   170  THR170      0.1994
     55  C         19.3490   25.4120    6.9750 C.2   170  THR170      0.2617
     56  O         18.8710   25.7110    8.0740 O.2   170  THR170     -0.2717
     57  CB        19.8690   22.9790    7.1870 C.3   170  THR170      0.1784
     58  OG1       21.2720   23.2490    7.1210 O.3   170  THR170     -0.2211
     59  CG2       19.6100   21.5830    6.6490 C.3   170  THR170      0.0376
     60  N         20.0960   26.2490    6.2590 N.am  171  LEU171     -0.1979
     61  CA        20.4290   27.5860    6.7430 C.3   171  LEU171      0.1596
     62  C         19.1860   28.4550    6.8300 C.2   171  LEU171      0.2287
     63  O         19.0980   29.3430    7.6840 O.2   171  LEU171     -0.2864
     64  CB        21.4720   28.2420    5.8430 C.3   171  LEU171      0.0297
     65  CG        22.8660   27.6380    5.9350 C.3   171  LEU171      0.0022
     66  CD1       23.7030   28.0650    4.7420 C.3   171  LEU171      0.0001
     67  CD2       23.5110   28.0560    7.2390 C.3   171  LEU171      0.0001
     68  N         16.6120   27.7620    8.0830 N.3   173  HIS173     -0.1226
     69  CA        15.9950   27.4990    9.3840 C.3   173  HIS173      0.1752
     70  C         16.4390   28.5110   10.4440 C.2   173  HIS173      0.2596
     71  O         15.8140   28.6230   11.4990 O.2   173  HIS173     -0.2718
     72  CB        16.3240   26.0720    9.8380 C.3   173  HIS173      0.0759
     73  CG        15.4860   25.5840   10.9790 C.ar  173  HIS173      0.0818
     74  ND1       14.1800   25.1740   10.8200 N.ar  173  HIS173     -0.2268
     75  CD2       15.7780   25.4140   12.2900 C.ar  173  HIS173      0.1154
     76  CE1       13.6970   24.7890   11.9880 C.ar  173  HIS173      0.1986
     77  NE2       14.6460   24.9230   12.8970 N.ar  173  HIS173     -0.2212
     78  N         17.5010   29.2630   10.1580 N.am  174  SER174     -0.1952
     79  CA        18.0150   30.2240   11.1320 C.3   174  SER174      0.1924
     80  C         18.5050   31.5400   10.5220 C.2   174  SER174      0.2314
     81  O         19.6740   31.9010   10.6630 O.2   174  SER174     -0.2863
     82  CB        19.1200   29.5780   11.9700 C.3   174  SER174      0.2116
     83  OG        20.0020   28.8350   11.1500 O.3   174  SER174     -0.2180
     84  N         22.3730   15.5860    5.9520 N.3   322  PHE322     -0.1241
     85  CA        21.8870   16.5490    4.9680 C.3   322  PHE322      0.1605
     86  C         22.8010   16.6690    3.7620 C.2   322  PHE322      0.2264
     87  O         24.0220   16.6260    3.8890 O.2   322  PHE322     -0.2867
     88  CB        21.7490   17.9310    5.5950 C.3   322  PHE322      0.0534
     89  CG        20.7220   18.0010    6.6740 C.ar  322  PHE322     -0.0203
     90  CD1       19.3730   18.0790    6.3580 C.ar  322  PHE322     -0.0042
     91  CD2       21.0990   18.0010    8.0020 C.ar  322  PHE322     -0.0042
     92  CE1       18.4240   18.1480    7.3520 C.ar  322  PHE322     -0.0003
     93  CE2       20.1500   18.0650    9.0030 C.ar  322  PHE322     -0.0003
     94  CZ        18.8140   18.1380    8.6780 C.ar  322  PHE322     -0.0000
     95  N         26.2680   19.0100    3.5870 N.3   325  GLN325     -0.1245
     96  CA        26.7890   19.2560    4.9250 C.3   325  GLN325      0.1566
     97  C         27.5240   18.0200    5.4310 C.2   325  GLN325      0.2260
     98  O         27.3410   16.9230    4.9020 O.2   325  GLN325     -0.2867
     99  CB        25.6650   19.6140    5.8920 C.3   325  GLN325      0.0367
    100  CG        24.6740   20.6070    5.3410 C.3   325  GLN325      0.0905
    101  CD        23.8150   21.2230    6.4230 C.2   325  GLN325      0.2608
    102  OE1       24.1290   21.1420    7.6120 O.2   325  GLN325     -0.2717
    103  NE2       22.7280   21.8500    6.0140 N.am  325  GLN325     -0.0878
    104  N         27.5500   16.9360    8.6990 N.3   327  ASN327     -0.1240
    105  CA        26.9110   16.3330    9.8710 C.3   327  ASN327      0.1653
    106  C         26.5680   14.8480    9.6960 C.2   327  ASN327      0.2266
    107  O         26.0280   14.4380    8.6660 O.2   327  ASN327     -0.2867
    108  CB        25.6590   17.1250   10.2660 C.3   327  ASN327      0.1155
    109  CG        25.9910   18.4850   10.8680 C.2   327  ASN327      0.2627
    110  OD1       26.3130   19.4390   10.1520 O.2   327  ASN327     -0.2716
    111  ND2       25.9140   18.5770   12.1930 N.am  327  ASN327     -0.0877
    112  N         23.4880   14.6340   18.7950 N.3   373  LYS373     -0.1231
    113  CA        23.3000   16.0740   18.7170 C.3   373  LYS373      0.1693
    114  C         21.8220   16.4560   18.7920 C.2   373  LYS373      0.2592
    115  O         21.4690   17.5090   19.3200 O.2   373  LYS373     -0.2718
    116  CB        23.9210   16.6200   17.4270 C.3   373  LYS373      0.0285
    117  CG        23.6820   18.1060   17.2180 C.3   373  LYS373      0.0035
    118  CD        24.4430   18.6430   16.0190 C.3   373  LYS373      0.0206
    119  CE        24.2230   20.1410   15.8720 C.3   373  LYS373      0.1093
    120  NZ        24.6210   20.8960   17.1020 N.3   373  LYS373     -0.1314
    121  N         20.9620   15.5850   18.2750 N.am  374  TRP374     -0.1976
    122  CA        19.5490   15.9150   18.1230 C.3   374  TRP374      0.1640
    123  C         18.6230   15.4310   19.2500 C.2   374  TRP374      0.2290
    124  O         17.4480   15.7890   19.2720 O.2   374  TRP374     -0.2864
    125  CB        19.0370   15.4530   16.7550 C.3   374  TRP374      0.0576
    126  CG        19.3010   16.4720   15.6760 C.ar  374  TRP374      0.0006
    127  CD1       18.4330   17.4270   15.2130 C.ar  374  TRP374      0.0946
    128  CD2       20.5210   16.6540   14.9480 C.ar  374  TRP374      0.0152
    129  NE1       19.0370   18.1820   14.2350 N.ar  374  TRP374     -0.2442
    130  CE2       20.3190   17.7290   14.0560 C.ar  374  TRP374      0.0810
    131  CE3       21.7630   16.0110   14.9590 C.ar  374  TRP374      0.0012
    132  CZ2       21.3110   18.1720   13.1850 C.ar  374  TRP374      0.0191
    133  CZ3       22.7490   16.4550   14.0920 C.ar  374  TRP374      0.0001
    134  CH2       22.5160   17.5250   13.2180 C.ar  374  TRP374      0.0015
@<TRIPOS>BOND
     1    95    96    1
     2    86    87    2
     3    86    85    1
     4    48    47    2
     5    47    46    1
     6    66    65    1
     7    98    97    2
     8    96    97    1
     9    96    99    1
    10    53    54    1
    11    85    88    1
    12    85    84    1
    13   100    99    1
    14   100   101    1
    15    88    89    1
    16    51    49    1
    17    46    45    1
    18    46    49    1
    19    64    65    1
    20    64    61    1
    21    65    67    1
    22   103   101   am
    23    60    61    1
    24    60    55   am
    25    90    89   ar
    26    90    92   ar
    27    54    55    1
    28    54    57    1
    29    49    50    1
    30   101   102    2
    31    59    57    1
    32    89    91   ar
    33    61    62    1
    34    62    63    2
    35    55    56    2
    36    58    57    1
    37    92    94   ar
    38    50    52    1
    39    91    93   ar
    40    68    69    1
    41   107   106    2
    42    94    93   ar
    43   104   105    1
    44    69    72    1
    45    69    70    1
    46    39    38    2
    47   106   105    1
    48    72    73    1
    49   105   108    1
    50   110   109    2
    51    78    70   am
    52    78    79    1
    53   108   109    1
    54    70    71    2
    55    80    81    2
    56    80    79    1
    57    38    37    1
    58    74    73   ar
    59    74    76   ar
    60   109   111   am
    61    73    75   ar
    62    79    82    1
    63    83    82    1
    64    37    36    1
    65    37    40    1
    66    76    77   ar
    67    75    77   ar
    68    40    41    1
    69   132   134   ar
    70   132   130   ar
    71    41    42    1
    72   134   133   ar
    73    34    33    1
    74    35    33    1
    75   130   129   ar
    76   130   128   ar
    77    44    43    1
    78   133   131   ar
    79    42    43    1
    80   129   127   ar
    81    33    30    1
    82    14    12    1
    83   128   131   ar
    84   128   126   ar
    85   127   126   ar
    86   126   125    1
    87   119   118    1
    88   119   120    1
    89   118   117    1
    90    30    31    1
    91    30    29    1
    92    17    16    1
    93    17    18    1
    94    12    13    1
    95    12     9    1
    96    16    10   am
    97    32    31    2
    98    13    15    1
    99   125   122    1
   100    29    22   am
   101    10    11    2
   102    10     9    1
   103    19    18    2
   104   117   116    1
   105     9     8    1
   106   116   113    1
   107    22    23    2
   108    22    21    1
   109   122   121    1
   110   122   123    1
   111    27    26   ar
   112   121   114   am
   113    24    21    1
   114    24    25    1
   115     8     3   am
   116   113   114    1
   117   113   112    1
   118   114   115    2
   119    21    20    1
   120   123   124    2
   121    26    25    1
   122    26    28   ar
   123     4     3    2
   124     3     2    1
   125     2     5    1
   126     2     1    1
   127     5     6    1
   128     1     7    1
   129     6     7    1
