@<TRIPOS>MOLECULE
tmp/3pybB01.pdb
 191 187 0 0 0
SMALL
GASTEIGER

@<TRIPOS>ATOM
      1  N         16.8490  -24.8000   52.9640 N.3   119  ILE119     -0.1245
      2  CA        17.9570  -24.0480   52.3820 C.3   119  ILE119      0.1561
      3  C         19.1370  -24.9580   52.0710 C.2   119  ILE119      0.2260
      4  O         19.5670  -25.7390   52.9220 O.2   119  ILE119     -0.2867
      5  CB        18.4590  -22.9570   53.3490 C.3   119  ILE119      0.0252
      6  CG1       17.3170  -22.0380   53.7760 C.3   119  ILE119      0.0019
      7  CG2       19.5880  -22.1530   52.7210 C.3   119  ILE119      0.0019
      8  CD1       17.7700  -20.9180   54.6780 C.3   119  ILE119      0.0001
      9  N         26.2320  -15.2220   52.2170 N.3   171  THR171     -0.1218
     10  CA        25.3410  -16.2340   52.7850 C.3   171  THR171      0.1862
     11  C         25.8070  -17.6620   52.5110 C.2   171  THR171      0.2287
     12  O         25.3360  -18.6080   53.1440 O.2   171  THR171     -0.2866
     13  CB        23.9020  -16.0840   52.2670 C.3   171  THR171      0.1770
     14  OG1       23.9310  -15.6030   50.9190 O.3   171  THR171     -0.2211
     15  CG2       23.1200  -15.1150   53.1300 C.3   171  THR171      0.0375
     16  N         26.9640  -20.0060   55.2080 N.3   174  HIS174     -0.1241
     17  CA        25.9600  -20.6290   56.0590 C.3   174  HIS174      0.1621
     18  C         25.6790  -22.0760   55.6350 C.2   174  HIS174      0.2264
     19  O         24.9650  -22.8010   56.3240 O.2   174  HIS174     -0.2867
     20  CB        24.6780  -19.7920   56.0330 C.3   174  HIS174      0.0745
     21  CG        23.6030  -20.2860   56.9500 C.ar  174  HIS174      0.0817
     22  ND1       23.5800  -19.9930   58.2960 N.ar  174  HIS174     -0.2268
     23  CD2       22.5010  -21.0340   56.7090 C.ar  174  HIS174      0.1154
     24  CE1       22.5160  -20.5490   58.8480 C.ar  174  HIS174      0.1986
     25  NE2       21.8450  -21.1880   57.9060 N.ar  174  HIS174     -0.2212
     26  N         19.1040  -24.6080   63.9060 N.3   233  ASN233     -0.1225
     27  CA        19.6910  -24.4500   62.5810 C.3   233  ASN233      0.1785
     28  C         20.2410  -23.0410   62.3210 C.2   233  ASN233      0.2597
     29  O         20.6740  -22.7270   61.2120 O.2   233  ASN233     -0.2718
     30  CB        18.7200  -24.9020   61.4850 C.3   233  ASN233      0.1169
     31  CG        17.9720  -23.7540   60.8580 C.2   233  ASN233      0.2627
     32  OD1       18.2850  -23.3280   59.7420 O.2   233  ASN233     -0.2716
     33  ND2       16.9750  -23.2420   61.5680 N.am  233  ASN233     -0.0877
     34  N         20.2340  -22.2090   63.3590 N.am  234  VAL234     -0.1980
     35  CA        20.8060  -20.8610   63.3030 C.3   234  VAL234      0.1595
     36  C         20.9860  -20.3380   64.7370 C.2   234  VAL234      0.2287
     37  O         20.1270  -20.5590   65.5910 O.2   234  VAL234     -0.2864
     38  CB        19.9260  -19.8990   62.4570 C.3   234  VAL234      0.0276
     39  CG1       18.5410  -19.7710   63.0620 C.3   234  VAL234      0.0022
     40  CG2       20.5810  -18.5280   62.3230 C.3   234  VAL234      0.0022
     41  N         20.0750  -15.7270   67.5090 N.3   237  VAL237     -0.1245
     42  CA        18.9830  -15.1650   66.7400 C.3   237  VAL237      0.1561
     43  C         18.3960  -13.9780   67.5220 C.2   237  VAL237      0.2260
     44  O         17.1990  -13.6950   67.4630 O.2   237  VAL237     -0.2867
     45  CB        17.9420  -16.2690   66.4350 C.3   237  VAL237      0.0252
     46  CG1       16.9090  -16.3780   67.5530 C.3   237  VAL237      0.0019
     47  CG2       17.2980  -16.0490   65.0790 C.3   237  VAL237      0.0019
     48  N         16.8940  -10.5880   65.6760 N.3   240  PHE240     -0.1241
     49  CA        15.6730  -11.0200   65.0100 C.3   240  PHE240      0.1605
     50  C         14.5210  -11.2090   65.9890 C.2   240  PHE240      0.2264
     51  O         13.3870  -10.8170   65.7110 O.2   240  PHE240     -0.2867
     52  CB        15.9020  -12.3170   64.2380 C.3   240  PHE240      0.0534
     53  CG        14.6340  -13.0400   63.8950 C.ar  240  PHE240     -0.0203
     54  CD1       13.6810  -12.4440   63.0930 C.ar  240  PHE240     -0.0042
     55  CD2       14.3950  -14.3140   64.3730 C.ar  240  PHE240     -0.0042
     56  CE1       12.5100  -13.1030   62.7760 C.ar  240  PHE240     -0.0003
     57  CE2       13.2260  -14.9830   64.0560 C.ar  240  PHE240     -0.0003
     58  CZ        12.2820  -14.3740   63.2570 C.ar  240  PHE240     -0.0000
     59  N         11.0010   -8.8220   66.1400 N.3   244  TRP244     -0.1241
     60  CA         9.7190   -9.4560   65.8570 C.3   244  TRP244      0.1605
     61  C          8.7930   -9.4970   67.0660 C.2   244  TRP244      0.2264
     62  O          7.5770   -9.4290   66.9150 O.2   244  TRP244     -0.2867
     63  CB         9.9110  -10.8580   65.2940 C.3   244  TRP244      0.0550
     64  CG         9.8530  -10.9130   63.8090 C.ar  244  TRP244      0.0003
     65  CD1        8.8590  -11.4570   63.0450 C.ar  244  TRP244      0.0946
     66  CD2       10.8290  -10.4030   62.8940 C.ar  244  TRP244      0.0152
     67  NE1        9.1590  -11.3230   61.7100 N.ar  244  TRP244     -0.2442
     68  CE2       10.3620  -10.6780   61.5890 C.ar  244  TRP244      0.0810
     69  CE3       12.0530   -9.7440   63.0490 C.ar  244  TRP244      0.0012
     70  CZ2       11.0760  -10.3120   60.4460 C.ar  244  TRP244      0.0191
     71  CZ3       12.7630   -9.3810   61.9110 C.ar  244  TRP244      0.0001
     72  CH2       12.2710   -9.6650   60.6270 C.ar  244  TRP244      0.0015
     73  N         20.1640  -11.1340   61.5780 N.3   280  TRP280     -0.1241
     74  CA        19.3580  -11.7120   62.6460 C.3   280  TRP280      0.1605
     75  C         20.1480  -11.8110   63.9450 C.2   280  TRP280      0.2264
     76  O         19.5730  -11.8980   65.0340 O.2   280  TRP280     -0.2867
     77  CB        18.8510  -13.0940   62.2330 C.3   280  TRP280      0.0550
     78  CG        19.9430  -13.9820   61.7260 C.ar  280  TRP280      0.0003
     79  CD1       20.6840  -14.8570   62.4510 C.ar  280  TRP280      0.0946
     80  CD2       20.4310  -14.0600   60.3820 C.ar  280  TRP280      0.0152
     81  NE1       21.6010  -15.4830   61.6480 N.ar  280  TRP280     -0.2442
     82  CE2       21.4660  -15.0110   60.3700 C.ar  280  TRP280      0.0810
     83  CE3       20.0890  -13.4200   59.1880 C.ar  280  TRP280      0.0012
     84  CZ2       22.1620  -15.3450   59.2110 C.ar  280  TRP280      0.0191
     85  CZ3       20.7820  -13.7500   58.0390 C.ar  280  TRP280      0.0001
     86  CH2       21.8070  -14.7040   58.0590 C.ar  280  TRP280      0.0015
     87  N         20.9850   -8.3840   56.2250 N.3   288  ASP288     -0.1239
     88  CA        19.8350   -8.6870   55.3850 C.3   288  ASP288      0.1674
     89  C         18.7980   -7.5790   55.4870 C.2   288  ASP288      0.2266
     90  O         18.6710   -6.9390   56.5270 O.2   288  ASP288     -0.2867
     91  CB        19.1900   -9.9920   55.8200 C.3   288  ASP288      0.1410
     92  CG        18.3550   -9.8250   57.0640 C.2   288  ASP288      0.3668
     93  OD1       18.9090   -9.9600   58.1740 O.co2 288  ASP288     -0.2456
     94  OD2       17.1490   -9.5370   56.9330 O.co2 288  ASP288     -0.2456
     95  N         15.5180   -7.6190   55.5090 N.3   290  ASP290     -0.1225
     96  CA        14.3250   -7.8350   56.3220 C.3   290  ASP290      0.1805
     97  C         14.5210   -7.3240   57.7560 C.2   290  ASP290      0.2597
     98  O         13.7150   -6.5400   58.2540 O.2   290  ASP290     -0.2718
     99  CB        13.9210   -9.3090   56.3170 C.3   290  ASP290      0.1424
    100  CG        12.4490   -9.5140   56.6400 C.2   290  ASP290      0.3668
    101  OD1       11.7450   -8.5100   56.8730 O.co2 290  ASP290     -0.2456
    102  OD2       11.9940  -10.6800   56.6530 O.co2 290  ASP290     -0.2456
    103  N         15.5930   -7.7600   58.4110 N.am  291  ASP291     -0.1974
    104  CA        15.9130   -7.2810   59.7560 C.3   291  ASP291      0.1709
    105  C         16.1970   -5.7810   59.7770 C.2   291  ASP291      0.2293
    106  O         15.7170   -5.0670   60.6540 O.2   291  ASP291     -0.2864
    107  CB        17.1110   -8.0410   60.3330 C.3   291  ASP291      0.1436
    108  CG        16.7830   -9.4800   60.6720 C.2   291  ASP291      0.3671
    109  OD1       15.8890   -9.7060   61.5170 O.co2 291  ASP291     -0.2456
    110  OD2       17.4280  -10.3850   60.1020 O.co2 291  ASP291     -0.2456
    111  N         17.4450   -8.6730   49.2880 N.3   322  CYS322     -0.1221
    112  CA        17.5720   -9.1820   50.6560 C.3   322  CYS322      0.1808
    113  C         19.0010   -9.1130   51.1880 C.2   322  CYS322      0.2601
    114  O         19.2180   -8.7560   52.3440 O.2   322  CYS322     -0.2717
    115  CB        17.0620  -10.6250   50.7570 C.3   322  CYS322      0.0970
    116  SG        15.2750  -10.8280   50.5910 S.3   322  CYS322     -0.0800
    117  N         19.9710   -9.4710   50.3520 N.am  323  PHE323     -0.1976
    118  CA        21.3690   -9.4580   50.7680 C.3   323  PHE323      0.1639
    119  C         22.2110   -8.6740   49.7810 C.2   323  PHE323      0.2290
    120  O         21.9080   -8.6400   48.5870 O.2   323  PHE323     -0.2864
    121  CB        21.9130  -10.8810   50.8790 C.3   323  PHE323      0.0560
    122  CG        21.1210  -11.7670   51.7970 C.ar  323  PHE323     -0.0200
    123  CD1       21.4380  -11.8550   53.1440 C.ar  323  PHE323     -0.0042
    124  CD2       20.0620  -12.5160   51.3120 C.ar  323  PHE323     -0.0042
    125  CE1       20.7100  -12.6690   53.9900 C.ar  323  PHE323     -0.0003
    126  CE2       19.3320  -13.3350   52.1550 C.ar  323  PHE323     -0.0003
    127  CZ        19.6570  -13.4130   53.4940 C.ar  323  PHE323     -0.0000
    128  N         12.6380  -12.1320   48.5060 N.3   330  ALA330     -0.1245
    129  CA        11.5790  -12.8260   49.2330 C.3   330  ALA330      0.1562
    130  C         10.4610  -11.8520   49.5860 C.2   330  ALA330      0.2260
    131  O         10.6970  -10.6560   49.7260 O.2   330  ALA330     -0.2867
    132  CB        12.1370  -13.4820   50.4890 C.3   330  ALA330      0.0290
    133  N          8.2970  -11.4550   52.3640 N.3   332  THR332     -0.1218
    134  CA         8.3380  -10.8200   53.6860 C.3   332  THR332      0.1862
    135  C          9.3370   -9.6610   53.7700 C.2   332  THR332      0.2287
    136  O          9.0410   -8.6210   54.3530 O.2   332  THR332     -0.2866
    137  CB         8.6340  -11.8370   54.8060 C.3   332  THR332      0.1770
    138  OG1        9.7110  -12.6920   54.4050 O.3   332  THR332     -0.2211
    139  CG2        7.4070  -12.6800   55.0900 C.3   332  THR332      0.0375
    140  N         10.0800  -19.1320   52.3890 N.3   375  TRP375     -0.1241
    141  CA        10.8380  -19.4570   53.5890 C.3   375  TRP375      0.1605
    142  C         10.0570  -19.3470   54.8960 C.2   375  TRP375      0.2264
    143  O         10.6510  -19.3080   55.9730 O.2   375  TRP375     -0.2867
    144  CB        12.0870  -18.5780   53.6460 C.3   375  TRP375      0.0550
    145  CG        12.8140  -18.5510   52.3450 C.ar  375  TRP375      0.0003
    146  CD1       12.8770  -17.5150   51.4610 C.ar  375  TRP375      0.0946
    147  CD2       13.5570  -19.6250   51.7600 C.ar  375  TRP375      0.0152
    148  NE1       13.6270  -17.8720   50.3660 N.ar  375  TRP375     -0.2442
    149  CE2       14.0560  -19.1640   50.5260 C.ar  375  TRP375      0.0810
    150  CE3       13.8570  -20.9310   52.1640 C.ar  375  TRP375      0.0012
    151  CZ2       14.8380  -19.9610   49.6900 C.ar  375  TRP375      0.0191
    152  CZ3       14.6330  -21.7220   51.3340 C.ar  375  TRP375      0.0001
    153  CH2       15.1130  -21.2340   50.1110 C.ar  375  TRP375      0.0015
    154  N          8.8420  -21.8180   60.4630 N.3   416  TRP416     -0.1227
    155  CA         9.9290  -21.1790   59.7370 C.3   416  TRP416      0.1737
    156  C         10.7670  -22.2140   58.9990 C.2   416  TRP416      0.2595
    157  O         11.0430  -23.2810   59.5360 O.2   416  TRP416     -0.2718
    158  CB        10.8190  -20.4050   60.7080 C.3   416  TRP416      0.0564
    159  CG        10.1260  -19.2900   61.4390 C.ar  416  TRP416      0.0003
    160  CD1        9.4440  -19.3760   62.6250 C.ar  416  TRP416      0.0946
    161  CD2       10.0640  -17.9190   61.0420 C.ar  416  TRP416      0.0152
    162  NE1        8.9570  -18.1420   62.9810 N.ar  416  TRP416     -0.2442
    163  CE2        9.3250  -17.2300   62.0270 C.ar  416  TRP416      0.0810
    164  CE3       10.5610  -17.2050   59.9480 C.ar  416  TRP416      0.0012
    165  CZ2        9.0730  -15.8660   61.9490 C.ar  416  TRP416      0.0191
    166  CZ3       10.3080  -15.8500   59.8700 C.ar  416  TRP416      0.0001
    167  CH2        9.5720  -15.1940   60.8650 C.ar  416  TRP416      0.0015
    168  N         11.1770  -21.8980   57.7740 N.am  417  ILE417     -0.1966
    169  CA        12.0290  -22.8000   57.0030 C.3   417  ILE417      0.1727
    170  C         13.4760  -22.3190   56.9100 C.2   417  ILE417      0.2616
    171  O         13.7770  -21.3450   56.2180 O.2   417  ILE417     -0.2715
    172  CB        11.5080  -23.0220   55.5660 C.3   417  ILE417      0.0290
    173  CG1       10.2350  -23.8640   55.5730 C.3   417  ILE417      0.0022
    174  CG2       12.5570  -23.7250   54.7380 C.3   417  ILE417      0.0023
    175  CD1        8.9640  -23.0610   55.6220 C.3   417  ILE417      0.0001
    176  N         14.3660  -23.0120   57.6120 N.am  418  GLY418     -0.1955
    177  CA        15.7960  -22.8270   57.4370 C.3   418  GLY418      0.1869
    178  C         16.3330  -24.0460   56.7150 C.2   418  GLY418      0.2309
    179  O         15.6840  -24.5480   55.7970 O.2   418  GLY418     -0.2863
    180  N         11.4930  -25.1850   61.7400 N.3   422  TYR422     -0.1241
    181  CA        11.6760  -24.7810   63.1300 C.3   422  TYR422      0.1605
    182  C         10.6500  -23.7480   63.5710 C.2   422  TYR422      0.2264
    183  O          9.9760  -23.1350   62.7440 O.2   422  TYR422     -0.2867
    184  CB        13.0970  -24.2660   63.3780 C.3   422  TYR422      0.0534
    185  CG        13.4480  -22.9640   62.6940 C.ar  422  TYR422     -0.0201
    186  CD1       13.4060  -21.7610   63.3850 C.ar  422  TYR422     -0.0009
    187  CD2       13.8530  -22.9420   61.3680 C.ar  422  TYR422     -0.0009
    188  CE1       13.7430  -20.5680   62.7680 C.ar  422  TYR422      0.0417
    189  CE2       14.1910  -21.7570   60.7410 C.ar  422  TYR422      0.0417
    190  CZ        14.1350  -20.5730   61.4460 C.ar  422  TYR422      0.1957
    191  OH        14.4700  -19.3930   60.8240 O.3   422  TYR422     -0.2866
@<TRIPOS>BOND
     1   128   129    1
     2   120   119    2
     3   129   130    1
     4   129   132    1
     5   111   112    1
     6   130   131    2
     7   151   153   ar
     8   151   149   ar
     9   119   118    1
    10   153   152   ar
    11   117   118    1
    12   117   113   am
    13   148   149   ar
    14   148   146   ar
    15   149   147   ar
    16   116   115    1
    17   112   115    1
    18   112   113    1
    19   118   121    1
    20   121   122    1
    21    14    13    1
    22   113   114    2
    23   124   122   ar
    24   124   126   ar
    25   152   150   ar
    26   146   145   ar
    27   147   150   ar
    28   147   145   ar
    29   122   123   ar
    30     3     2    1
    31     3     4    2
    32   126   127   ar
    33     9    10    1
    34    13    10    1
    35    13    15    1
    36   145   144    1
    37   133   134    1
    38     2     1    1
    39     2     5    1
    40   140   141    1
    41    11    10    1
    42    11    12    2
    43     7     5    1
    44   123   125   ar
    45     5     6    1
    46   127   125   ar
    47   141   144    1
    48   141   142    1
    49   134   135    1
    50   134   137    1
    51   135   136    2
    52     6     8    1
    53   138   137    1
    54   174   172    1
    55   137   139    1
    56   142   143    2
    57    16    17    1
    58    88    89    1
    59    88    91    1
    60    88    87    1
    61    89    90    2
    62    95    96    1
    63   172   173    1
    64   172   169    1
    65   173   175    1
    66    18    17    1
    67    18    19    2
    68   179   178    2
    69    91    92    1
    70    20    17    1
    71    20    21    1
    72   171   170    2
    73    99    96    1
    74    99   100    1
    75    96    97    1
    76   100   102   ar
    77   100   101   ar
    78    23    21   ar
    79    23    25   ar
    80   178   177    1
    81   170   169    1
    82   170   176   am
    83    94    92   ar
    84    21    22   ar
    85   169   168    1
    86    92    93   ar
    87   177   176    1
    88    97    98    2
    89    97   103   am
    90   168   156   am
    91    25    24   ar
    92    85    86   ar
    93    85    83   ar
    94    86    84   ar
    95    22    24   ar
    96   103   104    1
    97   156   157    2
    98   156   155    1
    99    83    80   ar
   100    84    82   ar
   101   155   154    1
   102   155   158    1
   103    32    31    2
   104   104   105    1
   105   104   107    1
   106   105   106    2
   107   166   164   ar
   108   166   167   ar
   109   164   161   ar
   110   110   108   ar
   111   107   108    1
   112    82    80   ar
   113    82    81   ar
   114    80    78   ar
   115    70    72   ar
   116    70    68   ar
   117    72    71   ar
   118   108   109   ar
   119   158   159    1
   120   189   187   ar
   121   189   190   ar
   122   191   190    1
   123    31    30    1
   124    31    33   am
   125   167   165   ar
   126   161   159   ar
   127   161   163   ar
   128    29    28    2
   129   187   185   ar
   130   159   160   ar
   131   190   188   ar
   132    30    27    1
   133    73    74    1
   134    68    67   ar
   135    68    66   ar
   136    81    79   ar
   137    67    65   ar
   138    78    77    1
   139    78    79   ar
   140   180   181    1
   141    71    69   ar
   142   165   163   ar
   143   163   162   ar
   144    77    74    1
   145    28    27    1
   146    28    34   am
   147    40    38    1
   148    38    39    1
   149    38    35    1
   150    27    26    1
   151   160   162   ar
   152    74    75    1
   153   185   184    1
   154   185   186   ar
   155   183   182    2
   156   188   186   ar
   157    56    54   ar
   158    56    58   ar
   159    66    69   ar
   160    66    64   ar
   161    65    64   ar
   162    54    53   ar
   163   181   184    1
   164   181   182    1
   165    58    57   ar
   166    35    34    1
   167    35    36    1
   168    64    63    1
   169    53    52    1
   170    53    55   ar
   171    75    76    2
   172    57    55   ar
   173    52    49    1
   174    36    37    2
   175    49    48    1
   176    49    50    1
   177    47    45    1
   178    63    60    1
   179    51    50    2
   180    60    59    1
   181    60    61    1
   182    45    42    1
   183    45    46    1
   184    42    41    1
   185    42    43    1
   186    62    61    2
   187    44    43    2
