@<TRIPOS>MOLECULE
tmp/3pybB00.pdb
 135 130 0 0 0
SMALL
GASTEIGER

@<TRIPOS>ATOM
      1  N          8.5930   -2.0760   52.4730 N.3   338  TYR338     -0.1241
      2  CA         7.4750   -1.2040   52.1620 C.3   338  TYR338      0.1605
      3  C          6.8950   -0.5340   53.4160 C.2   338  TYR338      0.2264
      4  O          6.5680    0.6490   53.3850 O.2   338  TYR338     -0.2867
      5  CB         6.3930   -1.9760   51.4090 C.3   338  TYR338      0.0534
      6  CG         5.1690   -1.1490   51.1230 C.ar  338  TYR338     -0.0201
      7  CD1        5.2550    0.0100   50.3710 C.ar  338  TYR338     -0.0009
      8  CD2        3.9270   -1.5240   51.6070 C.ar  338  TYR338     -0.0009
      9  CE1        4.1350    0.7760   50.1090 C.ar  338  TYR338      0.0417
     10  CE2        2.8010   -0.7660   51.3500 C.ar  338  TYR338      0.0417
     11  CZ         2.9080    0.3830   50.5990 C.ar  338  TYR338      0.1957
     12  OH         1.7880    1.1440   50.3390 O.3   338  TYR338     -0.2866
     13  N          7.4810    4.0150   54.3970 N.3   342  GLN342     -0.1245
     14  CA         6.3870    4.9510   54.6320 C.3   342  GLN342      0.1566
     15  C          6.6780    5.9190   55.7740 C.2   342  GLN342      0.2260
     16  O          5.9100    6.8490   56.0280 O.2   342  GLN342     -0.2867
     17  CB         5.0790    4.1960   54.8700 C.3   342  GLN342      0.0367
     18  CG         4.7080    3.2950   53.7110 C.3   342  GLN342      0.0905
     19  CD         3.2940    2.7650   53.7960 C.2   342  GLN342      0.2608
     20  OE1        3.0810    1.5670   53.9780 O.2   342  GLN342     -0.2717
     21  NE2        2.3170    3.6530   53.6520 N.am  342  GLN342     -0.0878
     22  N          9.3590    7.6820   55.6680 N.3   344  ALA344     -0.1231
     23  CA        10.4020    8.4540   55.0110 C.3   344  ALA344      0.1694
     24  C         10.2360    9.9350   55.2940 C.2   344  ALA344      0.2592
     25  O          9.1290   10.4660   55.2340 O.2   344  ALA344     -0.2718
     26  CB        10.3790    8.2010   53.5070 C.3   344  ALA344      0.0304
     27  N         11.3410   10.6000   55.6080 N.am  345  PHE345     -0.1963
     28  CA        11.3350   12.0490   55.7130 C.3   345  PHE345      0.1756
     29  C         11.4120   12.6230   54.3080 C.2   345  PHE345      0.2461
     30  O         11.9560   11.9850   53.4040 O.2   345  PHE345     -0.2730
     31  CB        12.5060   12.5410   56.5620 C.3   345  PHE345      0.0574
     32  CG        12.4430   12.0920   57.9910 C.ar  345  PHE345     -0.0200
     33  CD1       11.2330   11.7260   58.5620 C.ar  345  PHE345     -0.0042
     34  CD2       13.5900   12.0410   58.7670 C.ar  345  PHE345     -0.0042
     35  CE1       11.1670   11.3070   59.8780 C.ar  345  PHE345     -0.0003
     36  CE2       13.5300   11.6310   60.0870 C.ar  345  PHE345     -0.0003
     37  CZ        12.3160   11.2630   60.6440 C.ar  345  PHE345     -0.0000
     38  N         10.8670   13.8310   54.1180 N.am  346  PRO346     -0.2727
     39  CA        10.7350   14.4580   52.7990 C.3   346  PRO346      0.1402
     40  C         12.0550   14.5740   52.0290 C.2   346  PRO346      0.2269
     41  O         12.0370   14.7120   50.8060 O.2   346  PRO346     -0.2865
     42  CB        10.1800   15.8460   53.1320 C.3   346  PRO346      0.0296
     43  CG         9.4740   15.6630   54.4330 C.3   346  PRO346      0.0237
     44  CD        10.3070   14.6740   55.1870 C.3   346  PRO346      0.0939
     45  N         12.0990    6.9400   49.0100 N.3   352  LYS352     -0.1245
     46  CA        11.0780    7.1880   48.0000 C.3   352  LYS352      0.1561
     47  C         11.2110    6.1800   46.8650 C.2   352  LYS352      0.2260
     48  O         10.2130    5.6810   46.3540 O.2   352  LYS352     -0.2867
     49  CB        11.1310    8.6320   47.4920 C.3   352  LYS352      0.0271
     50  CG        10.6930    9.6440   48.5490 C.3   352  LYS352      0.0035
     51  CD        10.7190   11.0760   48.0400 C.3   352  LYS352      0.0206
     52  CE        10.2440   12.0430   49.1200 C.3   352  LYS352      0.1093
     53  NZ        10.1910   13.4590   48.6420 N.3   352  LYS352     -0.1314
     54  N          9.9060    2.7690   48.5570 N.3   355  LYS355     -0.1231
     55  CA         8.4540    2.6530   48.5500 C.3   355  LYS355      0.1693
     56  C          7.9240    2.3970   47.1380 C.2   355  LYS355      0.2591
     57  O          7.0540    1.5500   46.9370 O.2   355  LYS355     -0.2718
     58  CB         7.7860    3.8970   49.1340 C.3   355  LYS355      0.0285
     59  CG         6.2660    3.8230   49.0830 C.3   355  LYS355      0.0035
     60  CD         5.6290    4.7890   50.0500 C.3   355  LYS355      0.0206
     61  CE         5.7180    6.2100   49.5430 C.3   355  LYS355      0.1093
     62  NZ         4.5220    6.5770   48.7390 N.3   355  LYS355     -0.1314
     63  N          8.4490    3.1320   46.1630 N.am  356  GLU356     -0.1979
     64  CA         8.0180    2.9830   44.7750 C.3   356  GLU356      0.1602
     65  C          8.2050    1.5430   44.3120 C.2   356  GLU356      0.2287
     66  O          7.3040    0.9410   43.7290 O.2   356  GLU356     -0.2864
     67  CB         8.8000    3.9360   43.8630 C.3   356  GLU356      0.0415
     68  CG         8.2900    3.9980   42.4320 C.3   356  GLU356      0.1163
     69  CD         6.9280    4.6580   42.3240 C.2   356  GLU356      0.3649
     70  OE1        6.8200    5.8520   42.6780 O.co2 356  GLU356     -0.2457
     71  OE2        5.9690    3.9860   41.8830 O.co2 356  GLU356     -0.2457
     72  N          6.3390   -1.4190   46.6920 N.3   359  TYR359     -0.1241
     73  CA         4.9050   -1.3620   46.4350 C.3   359  TYR359      0.1605
     74  C          4.5220   -2.0620   45.1250 C.2   359  TYR359      0.2264
     75  O          3.4930   -2.7370   45.0540 O.2   359  TYR359     -0.2867
     76  CB         4.4100    0.0840   46.4200 C.3   359  TYR359      0.0534
     77  CG         2.9460    0.2100   46.0730 C.ar  359  TYR359     -0.0201
     78  CD1        2.5430    0.6710   44.8280 C.ar  359  TYR359     -0.0009
     79  CD2        1.9660   -0.1480   46.9890 C.ar  359  TYR359     -0.0009
     80  CE1        1.2000    0.7830   44.5090 C.ar  359  TYR359      0.0417
     81  CE2        0.6240   -0.0410   46.6820 C.ar  359  TYR359      0.0417
     82  CZ         0.2450    0.4240   45.4430 C.ar  359  TYR359      0.1957
     83  OH        -1.0940    0.5240   45.1450 O.3   359  TYR359     -0.2866
     84  N         -1.6680   -2.8960   51.3500 N.3   389  LEU389     -0.1245
     85  CA        -1.7830   -2.3620   50.0000 C.3   389  LEU389      0.1561
     86  C         -3.0100   -1.4610   49.8520 C.2   389  LEU389      0.2260
     87  O         -3.0450   -0.5790   48.9950 O.2   389  LEU389     -0.2867
     88  CB        -1.8300   -3.5020   48.9800 C.3   389  LEU389      0.0270
     89  CG        -0.5250   -4.2880   48.8380 C.3   389  LEU389      0.0019
     90  CD1       -0.6550   -5.4050   47.8130 C.3   389  LEU389      0.0001
     91  CD2        0.6280   -3.3560   48.4800 C.3   389  LEU389      0.0001
     92  N         -2.6230    2.6770   53.5180 N.3   392  PRO392     -0.2116
     93  CA        -1.2640    3.1980   53.7200 C.3   392  PRO392      0.1372
     94  C         -1.0030    3.4440   55.2000 C.2   392  PRO392      0.2244
     95  O         -1.9410    3.4330   55.9910 O.2   392  PRO392     -0.2868
     96  CB        -1.2820    4.5460   52.9840 C.3   392  PRO392      0.0268
     97  CG        -2.5430    4.5660   52.1780 C.3   392  PRO392      0.0207
     98  CD        -3.5040    3.6580   52.8650 C.3   392  PRO392      0.0892
     99  N         -0.1990    6.2370   56.5710 N.3   394  TYR394     -0.1241
    100  CA        -0.8320    7.5150   56.9040 C.3   394  TYR394      0.1605
    101  C         -2.3210    7.3660   57.2200 C.2   394  TYR394      0.2264
    102  O         -3.0020    8.3570   57.4940 O.2   394  TYR394     -0.2867
    103  CB        -0.6700    8.5120   55.7570 C.3   394  TYR394      0.0534
    104  CG         0.7250    9.0610   55.5860 C.ar  394  TYR394     -0.0201
    105  CD1        1.0040    9.9940   54.5960 C.ar  394  TYR394     -0.0009
    106  CD2        1.7610    8.6540   56.4130 C.ar  394  TYR394     -0.0009
    107  CE1        2.2750   10.5070   54.4320 C.ar  394  TYR394      0.0417
    108  CE2        3.0400    9.1630   56.2570 C.ar  394  TYR394      0.0417
    109  CZ         3.2900   10.0910   55.2640 C.ar  394  TYR394      0.1957
    110  OH         4.5600   10.5980   55.1000 O.3   394  TYR394     -0.2866
    111  N         -0.5470   14.3980   51.4300 N.3   635  GLU635     -0.1245
    112  CA         0.5980   13.5360   51.6890 C.3   635  GLU635      0.1567
    113  C          1.8970   14.3160   51.7720 C.2   635  GLU635      0.2260
    114  O          2.7670   13.9920   52.5760 O.2   635  GLU635     -0.2867
    115  CB         0.7060   12.4470   50.6260 C.3   635  GLU635      0.0388
    116  CG        -0.3630   11.3780   50.7410 C.3   635  GLU635      0.1160
    117  CD        -0.2580   10.3440   49.6450 C.2   635  GLU635      0.3649
    118  OE1        0.3850   10.6330   48.6110 O.co2 635  GLU635     -0.2457
    119  OE2       -0.8190    9.2440   49.8170 O.co2 635  GLU635     -0.2457
    120  N          4.1970   14.3440   55.3780 N.3   639  GLY639     -0.1225
    121  CA         5.6130   14.0320   55.4710 C.3   639  GLY639      0.1811
    122  C          6.3970   15.0910   56.2230 C.2   639  GLY639      0.2280
    123  O          7.3000   14.7750   56.9980 O.2   639  GLY639     -0.2866
    124  N         -6.8080   11.8460   57.1720 N.3   667  TYR667     -0.1241
    125  CA        -6.3020   11.2540   55.9450 C.3   667  TYR667      0.1605
    126  C         -6.9860    9.9200   55.6750 C.2   667  TYR667      0.2264
    127  O         -7.2390    9.5610   54.5270 O.2   667  TYR667     -0.2867
    128  CB        -4.7950   11.0590   56.0390 C.3   667  TYR667      0.0534
    129  CG        -4.2050   10.4000   54.8220 C.ar  667  TYR667     -0.0201
    130  CD1       -3.6410   11.1590   53.8100 C.ar  667  TYR667     -0.0009
    131  CD2       -4.2160    9.0150   54.6800 C.ar  667  TYR667     -0.0009
    132  CE1       -3.0970   10.5630   52.6900 C.ar  667  TYR667      0.0417
    133  CE2       -3.6780    8.4100   53.5640 C.ar  667  TYR667      0.0417
    134  CZ        -3.1170    9.1930   52.5730 C.ar  667  TYR667      0.1957
    135  OH        -2.5770    8.6120   51.4560 O.3   667  TYR667     -0.2866
@<TRIPOS>BOND
     1    71    69   ar
     2    69    68    1
     3    69    70   ar
     4    68    67    1
     5    66    65    2
     6    67    64    1
     7    65    64    1
     8    80    78   ar
     9    80    82   ar
    10    64    63    1
    11    78    77   ar
    12    75    74    2
    13    74    73    1
    14    83    82    1
    15    82    81   ar
    16    77    76    1
    17    77    79   ar
    18    63    56   am
    19    48    47    2
    20    76    73    1
    21    73    72    1
    22    81    79   ar
    23    47    46    1
    24    57    56    2
    25    56    55    1
    26    49    46    1
    27    49    50    1
    28    90    89    1
    29    46    45    1
    30    51    50    1
    31    51    52    1
    32    91    89    1
    33    55    54    1
    34    55    58    1
    35   118   117   ar
    36    53    52    1
    37    62    61    1
    38    89    88    1
    39    88    85    1
    40    87    86    2
    41    59    58    1
    42    59    60    1
    43    61    60    1
    44   117   119   ar
    45   117   116    1
    46    86    85    1
    47    85    84    1
    48     9     7   ar
    49     9    11   ar
    50    12    11    1
    51     7     6   ar
    52    11    10   ar
    53   115   116    1
    54   115   112    1
    55    41    40    2
    56     6     5    1
    57     6     8   ar
    58    10     8   ar
    59     5     2    1
    60   111   112    1
    61   135   134    1
    62   112   113    1
    63   113   114    2
    64    40    39    1
    65     2     1    1
    66     2     3    1
    67    97    98    1
    68    97    96    1
    69   134   132   ar
    70   134   133   ar
    71   132   130   ar
    72    39    42    1
    73    39    38    1
    74    98    92    1
    75    96    93    1
    76    42    43    1
    77     4     3    2
    78    30    29    2
    79    26    23    1
    80    92    93    1
    81   133   131   ar
    82    21    19   am
    83    18    19    1
    84    18    17    1
    85    93    94    1
    86    19    20    2
    87   130   129   ar
    88    38    29   am
    89    38    44    1
    90    29    28    1
    91    13    14    1
    92   107   105   ar
    93   107   109   ar
    94    43    44    1
    95   127   126    2
    96   105   104   ar
    97    14    17    1
    98    14    15    1
    99   131   129   ar
   100   129   128    1
   101    23    24    1
   102    23    22    1
   103   110   109    1
   104    94    95    2
   105    25    24    2
   106   109   108   ar
   107    24    27   am
   108   120   121    1
   109   121   122    1
   110   104   103    1
   111   104   106   ar
   112    27    28    1
   113   126   125    1
   114    28    31    1
   115   103   100    1
   116    15    16    2
   117   125   128    1
   118   125   124    1
   119   122   123    2
   120   108   106   ar
   121    31    32    1
   122    99   100    1
   123   100   101    1
   124   101   102    2
   125    32    33   ar
   126    32    34   ar
   127    33    35   ar
   128    34    36   ar
   129    35    37   ar
   130    36    37   ar
