@<TRIPOS>MOLECULE
tmp/3pyeA00.pdb
 124 117 0 0 0
SMALL
GASTEIGER

@<TRIPOS>ATOM
      1  N         -2.8990  -17.5650   10.4680 N.3    13  LYS13      -0.1245
      2  CA        -2.8650  -18.8720   11.0530 C.3    13  LYS13       0.1561
      3  C         -3.6650  -19.8950   10.2480 C.2    13  LYS13       0.2260
      4  O         -4.5430  -19.5350    9.4770 O.2    13  LYS13      -0.2867
      5  CB        -3.3860  -18.8740   12.5050 C.3    13  LYS13       0.0271
      6  CG        -4.8000  -18.4200   12.7590 C.3    13  LYS13       0.0035
      7  CD        -5.9060  -19.4280   12.4560 C.3    13  LYS13       0.0206
      8  CE        -7.1180  -19.0130   13.2780 C.3    13  LYS13       0.1093
      9  NZ        -8.1170  -19.9810   13.0450 N.3    13  LYS13      -0.1314
     10  N         -5.6400  -23.8140   11.0600 N.3    15  ASN15      -0.1240
     11  CA        -6.0300  -24.7450   12.0830 C.3    15  ASN15       0.1653
     12  C         -5.6110  -26.1520   11.6670 C.2    15  ASN15       0.2266
     13  O         -6.1170  -26.7030   10.6450 O.2    15  ASN15      -0.2867
     14  CB        -7.5530  -24.7600   12.2570 C.3    15  ASN15       0.1155
     15  CG        -8.1440  -23.4350   12.7570 C.2    15  ASN15       0.2627
     16  OD1       -7.4990  -22.5930   13.3910 O.2    15  ASN15      -0.2716
     17  ND2       -9.4210  -23.3230   12.5660 N.am   15  ASN15      -0.0877
     18  N         -9.3580  -29.1730   14.4880 N.3    18  LEU18      -0.1245
     19  CA       -10.5130  -28.4410   15.0000 C.3    18  LEU18       0.1561
     20  C        -11.6190  -29.4000   15.3600 C.2    18  LEU18       0.2260
     21  O        -12.1860  -30.0010   14.4850 O.2    18  LEU18      -0.2867
     22  CB       -11.0190  -27.4470   13.9420 C.3    18  LEU18       0.0270
     23  CG       -11.8650  -26.2230   14.3460 C.3    18  LEU18       0.0019
     24  CD1      -12.9950  -25.7900   13.3440 C.3    18  LEU18       0.0001
     25  CD2      -12.1330  -25.8100   15.8570 C.3    18  LEU18       0.0001
     26  N        -26.8960  -21.3320   21.1300 N.3    27  GLY27      -0.1210
     27  CA       -26.5480  -21.6220   19.7320 C.3    27  GLY27       0.1956
     28  C        -25.0710  -21.7820   19.3850 C.2    27  GLY27       0.2612
     29  O        -24.7410  -22.2070   18.2880 O.2    27  GLY27      -0.2717
     30  N        -24.1970  -21.4180   20.3260 N.am   28  TYR28      -0.1962
     31  CA       -22.7520  -21.4990   20.1380 C.3    28  TYR28       0.1771
     32  C        -22.2060  -22.9270   20.1590 C.2    28  TYR28       0.2619
     33  O        -22.9020  -23.8540   20.5600 O.2    28  TYR28      -0.2715
     34  CB       -22.0260  -20.6080   21.1350 C.3    28  TYR28       0.0574
     35  CG       -22.1220  -19.1690   20.7530 C.ar   28  TYR28      -0.0198
     36  CD1      -21.1720  -18.5990   19.9090 C.ar   28  TYR28      -0.0009
     37  CD2      -23.1800  -18.3690   21.2160 C.ar   28  TYR28      -0.0009
     38  CE1      -21.2560  -17.2580   19.5390 C.ar   28  TYR28       0.0417
     39  CE2      -23.2710  -17.0170   20.8540 C.ar   28  TYR28       0.0417
     40  CZ       -22.3040  -16.4780   20.0130 C.ar   28  TYR28       0.1957
     41  OH       -22.3730  -15.1590   19.6290 O.3    28  TYR28      -0.2866
     42  N        -20.9810  -23.0880   19.6580 N.am   29  HIS29      -0.1973
     43  CA       -20.2660  -24.3920   19.7030 C.3    29  HIS29       0.1656
     44  C        -18.8870  -24.2170   20.3510 C.2    29  HIS29       0.2291
     45  O        -18.1170  -23.3060   20.0000 O.2    29  HIS29      -0.2864
     46  CB       -20.0190  -24.9770   18.3170 C.3    29  HIS29       0.0771
     47  CG       -21.2460  -25.1640   17.4820 C.ar   29  HIS29       0.0820
     48  ND1      -21.9840  -24.1050   16.9890 N.ar   29  HIS29      -0.2267
     49  CD2      -21.8270  -26.2860   17.0000 C.ar   29  HIS29       0.1154
     50  CE1      -22.9830  -24.5710   16.2590 C.ar   29  HIS29       0.1986
     51  NE2      -22.9170  -25.8890   16.2550 N.ar   29  HIS29      -0.2212
     52  N        -15.1300  -24.8680   20.9280 N.3    31  LEU31      -0.1245
     53  CA       -14.1380  -25.3020   19.9430 C.3    31  LEU31       0.1561
     54  C        -12.8660  -25.7540   20.6200 C.2    31  LEU31       0.2260
     55  O        -12.3210  -25.0240   21.4960 O.2    31  LEU31      -0.2867
     56  CB       -13.8010  -24.1360   19.0160 C.3    31  LEU31       0.0270
     57  CG       -14.9650  -23.4160   18.3020 C.3    31  LEU31       0.0019
     58  CD1      -14.4000  -22.3140   17.3640 C.3    31  LEU31       0.0001
     59  CD2      -15.7390  -24.4710   17.5200 C.3    31  LEU31       0.0001
     60  N        -12.2050  -13.5320   19.2050 N.3   139  SER139     -0.1202
     61  CA       -11.6460  -14.8070   19.6420 C.3   139  SER139      0.2020
     62  C        -10.3250  -15.2460   18.9360 C.2   139  SER139      0.2618
     63  O         -9.6060  -16.0860   19.4670 O.2   139  SER139     -0.2717
     64  CB       -12.7500  -15.8930   19.6400 C.3   139  SER139      0.2103
     65  OG       -13.1100  -16.1280   18.3130 O.3   139  SER139     -0.2182
     66  N         -9.9380  -14.6350   17.8120 N.am  140  ASP140     -0.1973
     67  CA        -8.6360  -15.0100   17.1730 C.3   140  ASP140      0.1709
     68  C         -7.4800  -14.0510   17.5110 C.2   140  ASP140      0.2293
     69  O         -6.3440  -14.2890   17.1600 O.2   140  ASP140     -0.2864
     70  CB        -8.7790  -15.1490   15.6670 C.3   140  ASP140      0.1436
     71  CG        -9.6560  -16.3600   15.2870 C.2   140  ASP140      0.3671
     72  OD1       -9.4630  -17.4070   15.8850 O.co2 140  ASP140     -0.2456
     73  OD2      -10.5650  -16.2180   14.4750 O.co2 140  ASP140     -0.2456
     74  N        -19.3370  -18.2500    8.0880 N.3   181  THR181     -0.1203
     75  CA       -19.0590  -19.2210    9.1410 C.3   181  THR181      0.1994
     76  C        -20.3980  -19.6940    9.7630 C.2   181  THR181      0.2618
     77  O        -20.5560  -20.8230   10.1670 O.2   181  THR181     -0.2717
     78  CB       -18.0100  -18.7300   10.1410 C.3   181  THR181      0.1784
     79  OG1      -18.5420  -17.6380   10.8910 O.3   181  THR181     -0.2211
     80  CG2      -16.7540  -18.1850    9.4130 C.3   181  THR181      0.0376
     81  N        -21.3810  -18.8190    9.7440 N.am  182  SER182     -0.1951
     82  CA       -22.7590  -19.1110   10.1590 C.3   182  SER182      0.1924
     83  C        -23.3560  -20.2700    9.3670 C.2   182  SER182      0.2314
     84  O        -23.9100  -21.2570    9.9390 O.2   182  SER182     -0.2863
     85  CB       -23.5740  -17.8460    9.8730 C.3   182  SER182      0.2116
     86  OG       -24.7360  -17.8710   10.6390 O.3   182  SER182     -0.2180
     87  N        -21.5340  -23.6210   10.2980 N.3   185  TYR185     -0.1227
     88  CA       -22.0190  -24.1910   11.5540 C.3   185  TYR185      0.1736
     89  C        -23.4420  -24.7930   11.3200 C.2   185  TYR185      0.2595
     90  O        -23.7110  -25.9560   11.6390 O.2   185  TYR185     -0.2718
     91  CB       -22.0430  -23.1630   12.6880 C.3   185  TYR185      0.0548
     92  CG       -20.6950  -22.8740   13.3720 C.ar  185  TYR185     -0.0200
     93  CD1      -20.0250  -23.8780   14.1190 C.ar  185  TYR185     -0.0009
     94  CD2      -20.0990  -21.6260   13.2880 C.ar  185  TYR185     -0.0009
     95  CE1      -18.8100  -23.6430   14.7520 C.ar  185  TYR185      0.0417
     96  CE2      -18.8570  -21.3660   13.9380 C.ar  185  TYR185      0.0417
     97  CZ       -18.2280  -22.3760   14.6810 C.ar  185  TYR185      0.1957
     98  OH       -16.9970  -22.1690   15.2980 O.3   185  TYR185     -0.2866
     99  N        -24.3690  -24.0240   10.7530 N.am  186  ASN186     -0.1974
    100  CA       -25.7010  -24.5820   10.4550 C.3   186  ASN186      0.1688
    101  C        -25.6240  -25.8770    9.6610 C.2   186  ASN186      0.2292
    102  O        -26.3590  -26.8510    9.9700 O.2   186  ASN186     -0.2864
    103  CB       -26.6380  -23.5630    9.7760 C.3   186  ASN186      0.1181
    104  CG       -26.9190  -22.3570   10.6380 C.2   186  ASN186      0.2629
    105  OD1      -26.5550  -22.2730   11.8370 O.2   186  ASN186     -0.2716
    106  ND2      -27.5450  -21.3720   10.0260 N.am  186  ASN186     -0.0877
    107  N        -15.3330  -29.0560   10.7880 N.3   226  MET226     -0.1245
    108  CA       -16.1580  -28.2000    9.8630 C.3   226  MET226      0.1570
    109  C        -16.0250  -28.5570    8.3540 C.2   226  MET226      0.2261
    110  O        -16.8480  -28.0650    7.5010 O.2   226  MET226     -0.2867
    111  CB       -15.8410  -26.7090   10.0760 C.3   226  MET226      0.0387
    112  CG       -16.4360  -26.0840   11.3610 C.3   226  MET226      0.0595
    113  SD       -15.8660  -24.3580   11.3900 S.3   226  MET226     -0.1393
    114  CE       -15.5940  -23.9930   13.1360 C.3   226  MET226      0.0692
    115  N        -10.5870  -24.1950    9.0000 N.3   256  GLY256     -0.1210
    116  CA       -11.7270  -23.4780    9.5630 C.3   256  GLY256      0.1956
    117  C        -12.9920  -23.6720    8.7850 C.2   256  GLY256      0.2612
    118  O        -13.3100  -24.7680    8.3600 O.2   256  GLY256     -0.2717
    119  N        -13.7140  -22.5960    8.5410 N.am  257  SER257     -0.1952
    120  CA       -14.8410  -22.6620    7.6160 C.3   257  SER257      0.1924
    121  C        -14.4360  -22.4650    6.1420 C.2   257  SER257      0.2314
    122  O        -15.3120  -22.4090    5.2530 O.2   257  SER257     -0.2863
    123  CB       -15.9380  -21.6820    8.0720 C.3   257  SER257      0.2116
    124  OG       -15.3660  -20.4300    8.4500 O.3   257  SER257     -0.2180
@<TRIPOS>BOND
     1   122   121    2
     2   121   120    1
     3   110   109    2
     4   120   123    1
     5   120   119    1
     6   123   124    1
     7    74    75    1
     8   109   108    1
     9   118   117    2
    10   119   117   am
    11   117   116    1
    12   115   116    1
    13    75    76    1
    14    75    78    1
    15    83    84    2
    16    83    82    1
    17    80    78    1
    18     4     3    2
    19   101   102    2
    20   101   100    1
    21    81    76   am
    22    81    82    1
    23    76    77    2
    24   103   100    1
    25   103   104    1
    26   108   111    1
    27   108   107    1
    28    85    82    1
    29    85    86    1
    30   106   104   am
    31   111   112    1
    32    78    79    1
    33     3     2    1
    34    87    88    1
    35   100    99    1
    36     1     2    1
    37   104   105    2
    38    13    12    2
    39    99    89   am
    40     2     5    1
    41    10    11    1
    42    89    88    1
    43    89    90    2
    44   112   113    1
    45   113   114    1
    46    88    91    1
    47    12    11    1
    48    11    14    1
    49    14    15    1
    50     7     6    1
    51     7     8    1
    52     5     6    1
    53    17    15   am
    54    91    92    1
    55    15    16    2
    56     9     8    1
    57    94    92   ar
    58    94    96   ar
    59    24    23    1
    60    92    93   ar
    61    96    97   ar
    62    22    23    1
    63    22    19    1
    64    93    95   ar
    65    23    25    1
    66    73    71   ar
    67    21    20    2
    68    18    19    1
    69    97    95   ar
    70    97    98    1
    71    19    20    1
    72    71    70    1
    73    71    72   ar
    74    70    67    1
    75    51    50   ar
    76    51    49   ar
    77    50    48   ar
    78    48    47   ar
    79    49    47   ar
    80    69    68    2
    81    67    68    1
    82    67    66    1
    83    58    57    1
    84    47    46    1
    85    59    57    1
    86    66    62   am
    87    29    28    2
    88    57    56    1
    89    65    64    1
    90    46    43    1
    91    62    63    2
    92    62    61    1
    93    56    53    1
    94    60    61    1
    95    28    27    1
    96    28    30   am
    97    38    36   ar
    98    38    40   ar
    99    41    40    1
   100    64    61    1
   101    42    43    1
   102    42    32   am
   103    43    44    1
   104    27    26    1
   105    36    35   ar
   106    53    54    1
   107    53    52    1
   108    45    44    2
   109    40    39   ar
   110    31    32    1
   111    31    30    1
   112    31    34    1
   113    32    33    2
   114    54    55    2
   115    35    34    1
   116    35    37   ar
   117    39    37   ar
