@<TRIPOS>MOLECULE
tmp/3pyfA00.pdb
 170 162 0 0 0
SMALL
GASTEIGER

@<TRIPOS>ATOM
      1  N         -2.7460  -17.5150   10.5000 N.3     9  LYS9       -0.1301
      2  CA        -2.7960  -18.8510   11.1030 C.3     9  LYS9        0.1247
      3  C         -3.5330  -19.7980   10.2230 C.3     9  LYS9        0.2009
      4  O         -4.4250  -19.4130    9.3450 O.3     9  LYS9       -0.2188
      5  CB        -3.4090  -18.7720   12.4860 C.3     9  LYS9        0.0218
      6  CG        -4.7310  -18.2710   12.5600 C.3     9  LYS9        0.0031
      7  CD        -5.7270  -19.4200   12.5000 C.3     9  LYS9        0.0205
      8  CE        -6.9100  -19.1400   13.4860 C.3     9  LYS9        0.1093
      9  NZ        -7.9680  -19.9010   12.8250 N.3     9  LYS9       -0.1314
     10  N         -4.2720    0.8960    5.0950 N.3    52  LEU52      -0.1245
     11  CA        -3.7810   -0.4270    4.7800 C.3    52  LEU52       0.1561
     12  C         -3.3550   -0.4280    3.3420 C.2    52  LEU52       0.2260
     13  O         -4.0200    0.1920    2.4820 O.2    52  LEU52      -0.2867
     14  CB        -4.9190   -1.4690    4.9380 C.3    52  LEU52       0.0270
     15  CG        -5.4740   -1.5650    6.3620 C.3    52  LEU52       0.0019
     16  CD1       -6.6960   -0.7360    6.5280 C.3    52  LEU52       0.0001
     17  CD2       -5.8410   -3.0650    6.6150 C.3    52  LEU52       0.0001
     18  N        -10.3640   -3.4960    0.1680 N.3    59  GLN59      -0.1231
     19  CA       -11.6790   -3.9850    0.6000 C.3    59  GLN59       0.1698
     20  C        -11.9840   -3.7140    2.0620 C.2    59  GLN59       0.2592
     21  O        -13.0630   -4.0750    2.5080 O.2    59  GLN59      -0.2718
     22  CB       -11.8340   -5.5110    0.5210 C.3    59  GLN59       0.0381
     23  CG       -11.3920   -6.2000   -0.7850 C.3    59  GLN59       0.0905
     24  CD       -11.5010   -7.7000   -0.7360 C.2    59  GLN59       0.2608
     25  OE1      -12.4040   -8.3300   -0.0870 O.2    59  GLN59      -0.2717
     26  NE2      -10.6200   -8.3210   -1.5070 N.am   59  GLN59      -0.0878
     27  N        -11.0020   -3.2160    2.8180 N.am   60  LEU60      -0.1966
     28  CA       -11.1620   -3.2130    4.2750 C.3    60  LEU60       0.1713
     29  C        -11.5090   -1.8350    4.8510 C.2    60  LEU60       0.2458
     30  O        -10.9810   -0.8440    4.3890 O.2    60  LEU60      -0.2730
     31  CB        -9.8310   -3.7170    4.8870 C.3    60  LEU60       0.0310
     32  CG        -9.4470   -5.2060    4.7840 C.3    60  LEU60       0.0022
     33  CD1      -10.5010   -6.1900    4.4450 C.3    60  LEU60       0.0001
     34  CD2       -7.9350   -5.5460    4.5570 C.3    60  LEU60       0.0001
     35  N        -12.3450   -1.8180    5.8920 N.am   61  PRO61      -0.2727
     36  CA       -12.6890   -0.5710    6.5550 C.3    61  PRO61       0.1402
     37  C        -11.4730    0.0450    7.2250 C.2    61  PRO61       0.2269
     38  O        -10.5380   -0.6700    7.5990 O.2    61  PRO61      -0.2865
     39  CB       -13.7220   -1.0070    7.5900 C.3    61  PRO61       0.0296
     40  CG       -13.1870   -2.2870    8.0810 C.3    61  PRO61       0.0237
     41  CD       -12.8350   -2.9650    6.6720 C.3    61  PRO61       0.0939
     42  N        -14.8730   -0.1910   12.4820 N.3    65  ARG65      -0.1231
     43  CA       -15.2410   -1.5700   12.0980 C.3    65  ARG65       0.1694
     44  C        -13.9720   -2.4660   11.9610 C.2    65  ARG65       0.2592
     45  O        -14.0570   -3.7370   12.0330 O.2    65  ARG65      -0.2718
     46  CB       -15.9450   -1.5360   10.7430 C.3    65  ARG65       0.0321
     47  CG       -17.2890   -0.7960   10.8200 C.3    65  ARG65       0.0489
     48  CD       -17.8710   -0.6750    9.3940 C.3    65  ARG65       0.2205
     49  NE       -17.1560    0.2890    8.5900 N.pl3  65  ARG65      -0.0865
     50  CZ       -17.4420    0.6060    7.3370 C.cat  65  ARG65       0.5346
     51  NH1      -18.5040    0.0820    6.7410 N.pl3  65  ARG65       0.1354
     52  NH2      -16.6930    1.4830    6.7160 N.pl3  65  ARG65       0.1354
     53  N        -12.8140   -1.8110   11.8600 N.am   66  ASN66      -0.1960
     54  CA       -11.5320   -2.5530   11.7190 C.3    66  ASN66       0.1819
     55  C        -10.9960   -2.9610   13.1000 C.2    66  ASN66       0.2621
     56  O        -10.9200   -2.1090   13.9920 O.2    66  ASN66      -0.2715
     57  CB       -10.5060   -1.7180   10.9190 C.3    66  ASN66       0.1195
     58  CG        -9.3720   -2.6070   10.3430 C.2    66  ASN66       0.2630
     59  OD1       -9.0840   -2.6480    9.1520 O.2    66  ASN66      -0.2716
     60  ND2       -8.6690   -3.2090   11.2210 N.am   66  ASN66      -0.0877
     61  N        -10.7170   -4.2470   13.3190 N.am   67  LEU67      -0.1977
     62  CA       -10.2720   -4.6640   14.6470 C.3    67  LEU67       0.1596
     63  C         -8.9980   -3.9400   15.0690 C.2    67  LEU67       0.2287
     64  O         -8.7630   -3.8000   16.2940 O.2    67  LEU67      -0.2864
     65  CB        -9.9290   -6.1510   14.7140 C.3    67  LEU67       0.0297
     66  CG       -11.0640   -7.0310   15.1600 C.3    67  LEU67       0.0022
     67  CD1      -10.4410   -8.3950   15.3790 C.3    67  LEU67       0.0001
     68  CD2      -11.7480   -6.5820   16.5170 C.3    67  LEU67       0.0001
     69  N         -0.7410   -0.4090    7.7590 N.3    89  ILE89      -0.1245
     70  CA        -0.6210   -1.9000    7.7240 C.3    89  ILE89       0.1561
     71  C         -0.1710   -2.3020    6.3380 C.2    89  ILE89       0.2260
     72  O         -0.8730   -1.9650    5.3860 O.2    89  ILE89      -0.2867
     73  CB        -1.9100   -2.6090    8.2310 C.3    89  ILE89       0.0252
     74  CG1       -2.3230   -2.0230    9.6230 C.3    89  ILE89       0.0019
     75  CG2       -1.7380   -4.1790    8.1460 C.3    89  ILE89       0.0019
     76  CD1       -3.5810   -2.6350   10.2110 C.3    89  ILE89       0.0001
     77  N         -0.1850   -5.1700    4.3590 N.3    91  LYS91      -0.1245
     78  CA        -0.9490   -6.4930    4.3980 C.3    91  LYS91       0.1561
     79  C         -0.4760   -7.4890    3.3980 C.2    91  LYS91       0.2260
     80  O         -0.5190   -7.2080    2.1560 O.2    91  LYS91      -0.2867
     81  CB        -2.4550   -6.2610    4.1520 C.3    91  LYS91       0.0271
     82  CG        -3.2590   -7.6170    4.5240 C.3    91  LYS91       0.0035
     83  CD        -4.6700   -7.3220    4.9910 C.3    91  LYS91       0.0206
     84  CE        -4.9900   -7.0490    6.3610 C.3    91  LYS91       0.1093
     85  NZ        -4.8340   -8.1830    7.1600 N.3    91  LYS91      -0.1314
     86  N         -1.1650  -10.9610    4.4810 N.3    93  ILE93      -0.1231
     87  CA        -2.0060  -12.1510    4.8190 C.3    93  ILE93       0.1678
     88  C         -3.2120  -12.0590    3.9150 C.2    93  ILE93       0.2434
     89  O         -3.8720  -11.0460    3.8660 O.2    93  ILE93      -0.2733
     90  CB        -2.4920  -12.0890    6.2770 C.3    93  ILE93       0.0265
     91  CG1       -1.2510  -12.1680    7.1500 C.3    93  ILE93       0.0019
     92  CG2       -3.5390  -13.2340    6.6360 C.3    93  ILE93       0.0020
     93  CD1       -1.5280  -11.8110    8.6560 C.3    93  ILE93       0.0001
     94  N         -3.4470  -13.0950    3.0870 N.am   94  PRO94      -0.2718
     95  CA        -4.5290  -12.9150    2.1160 C.3    94  PRO94       0.1535
     96  C         -5.8770  -12.4630    2.6980 C.2    94  PRO94       0.2598
     97  O         -6.3470  -12.9400    3.7450 O.2    94  PRO94      -0.2715
     98  CB        -4.6150  -14.3320    1.4380 C.3    94  PRO94       0.0310
     99  CG        -3.2690  -14.8480    1.5530 C.3    94  PRO94       0.0237
    100  CD        -2.7290  -14.3650    2.8770 C.3    94  PRO94       0.0939
    101  N         -6.5240  -11.4760    2.0550 N.am   95  VAL95      -0.1964
    102  CA        -7.7250  -10.8710    2.5570 C.3    95  VAL95       0.1727
    103  C         -8.9070  -11.8180    2.3570 C.2    95  VAL95       0.2616
    104  O         -9.0790  -12.3370    1.2440 O.2    95  VAL95      -0.2715
    105  CB        -7.9620   -9.4540    1.8940 C.3    95  VAL95       0.0290
    106  CG1       -9.2970   -8.8750    2.2230 C.3    95  VAL95       0.0023
    107  CG2       -6.8110   -8.5390    2.3540 C.3    95  VAL95       0.0023
    108  N         -9.7010  -11.9980    3.3900 N.am   96  ALA96      -0.1963
    109  CA       -10.8930  -12.8760    3.3790 C.3    96  ALA96       0.1728
    110  C        -10.4650  -14.2870    3.1150 C.2    96  ALA96       0.2617
    111  O        -11.2370  -15.0880    2.5740 O.2    96  ALA96      -0.2715
    112  CB       -11.9350  -12.4120    2.3040 C.3    96  ALA96       0.0334
    113  N         -9.2270  -14.6050    3.4690 N.am   97  GLY97      -0.1940
    114  CA        -8.6760  -15.9240    3.1390 C.3    97  GLY97       0.2014
    115  C         -8.7450  -16.8890    4.2760 C.2    97  GLY97       0.2639
    116  O         -8.1810  -17.9740    4.1920 O.2    97  GLY97      -0.2714
    117  N         -9.3670  -16.4970    5.3750 N.am   98  GLY98      -0.1939
    118  CA        -9.6250  -17.3830    6.4880 C.3    98  GLY98       0.2014
    119  C         -8.4550  -17.5800    7.4520 C.2    98  GLY98       0.2639
    120  O         -8.4560  -18.5020    8.3370 O.2    98  GLY98      -0.2714
    121  N         -7.4530  -16.7020    7.3470 N.am   99  MET99      -0.1963
    122  CA        -6.2330  -16.8330    8.1950 C.3    99  MET99       0.1736
    123  C         -6.1750  -15.8080    9.3530 C.2    99  MET99       0.2616
    124  O         -5.1390  -15.6410    9.9790 O.2    99  MET99      -0.2715
    125  CB        -4.9870  -16.6630    7.2940 C.3    99  MET99       0.0427
    126  CG        -4.8820  -17.8470    6.2540 C.3    99  MET99       0.0599
    127  SD        -3.3150  -17.7340    5.3820 S.3    99  MET99      -0.1393
    128  CE        -2.1290  -18.1690    6.6660 C.3    99  MET99       0.0692
    129  N         -7.2760  -15.1410    9.5780 N.am  100  ALA100     -0.1963
    130  CA        -7.4570  -14.2310   10.7400 C.3   100  ALA100      0.1728
    131  C         -6.4910  -13.0870   10.6320 C.2   100  ALA100      0.2617
    132  O         -5.8350  -12.6730   11.6260 O.2   100  ALA100     -0.2715
    133  CB        -7.2910  -14.9660   12.1150 C.3   100  ALA100      0.0334
    134  N         -6.4770  -12.4940    9.4330 N.am  101  GLY101     -0.1940
    135  CA        -5.6060  -11.3130    9.3010 C.3   101  GLY101      0.2014
    136  C         -6.0730  -10.0950   10.1030 C.2   101  GLY101      0.2639
    137  O         -5.1560   -9.3810   10.5740 O.2   101  GLY101     -0.2714
    138  N         -7.3810   -9.8500   10.3170 N.am  102  GLY102     -0.1939
    139  CA        -7.7600   -8.6090   11.0770 C.3   102  GLY102      0.2014
    140  C         -7.3050   -8.8610   12.5200 C.2   102  GLY102      0.2639
    141  O         -6.9160   -7.9020   13.2260 O.2   102  GLY102     -0.2714
    142  N         -7.4240  -10.0960   13.0060 N.am  103  SER103     -0.1949
    143  CA        -7.0320  -10.4160   14.3880 C.3   103  SER103      0.1924
    144  C         -5.5050  -10.2640   14.5230 C.2   103  SER103      0.2314
    145  O         -5.0190   -9.7200   15.5310 O.2   103  SER103     -0.2863
    146  CB        -7.4030  -11.8600   14.7800 C.3   103  SER103      0.2116
    147  OG        -8.8010  -11.9150   14.8220 O.3   103  SER103     -0.2180
    148  N         -3.7060   -8.2020   12.8290 N.3   105  ASP105     -0.1239
    149  CA        -3.3860   -6.7490   12.8920 C.3   105  ASP105      0.1674
    150  C         -3.7280   -6.1600   14.2190 C.2   105  ASP105      0.2266
    151  O         -2.9630   -5.3100   14.6760 O.2   105  ASP105     -0.2867
    152  CB        -4.2050   -6.0010   11.8420 C.3   105  ASP105      0.1410
    153  CG        -3.8480   -6.4370   10.4600 C.2   105  ASP105      0.3668
    154  OD1       -4.5460   -6.1500    9.4710 O.co2 105  ASP105     -0.2456
    155  OD2       -2.7460   -7.0140   10.3130 O.co2 105  ASP105     -0.2456
    156  N         -9.7830  -14.6720   17.8020 N.3   136  ASP136     -0.1239
    157  CA        -8.4190  -15.0510   17.2530 C.3   136  ASP136      0.1674
    158  C         -7.2700  -14.1250   17.6010 C.2   136  ASP136      0.2266
    159  O         -6.0990  -14.4370   17.3110 O.2   136  ASP136     -0.2867
    160  CB        -8.3700  -15.4060   15.7370 C.3   136  ASP136      0.1410
    161  CG        -9.3500  -16.5520   15.3830 C.2   136  ASP136      0.3668
    162  OD1       -9.2290  -17.6170   16.0170 O.co2 136  ASP136     -0.2456
    163  OD2      -10.1960  -16.3110   14.5020 O.co2 136  ASP136     -0.2456
    164  N        -19.1860  -18.5640    8.0050 N.3   177  THR177     -0.1218
    165  CA       -18.9660  -19.5600    9.0790 C.3   177  THR177      0.1862
    166  C        -20.3430  -20.1460    9.5860 C.2   177  THR177      0.2287
    167  O        -20.4960  -21.3750    9.7070 O.2   177  THR177     -0.2866
    168  CB       -18.0000  -19.0760   10.1770 C.3   177  THR177      0.1770
    169  OG1      -18.4640  -17.8540   10.7250 O.3   177  THR177     -0.2211
    170  CG2      -16.7230  -18.7480    9.5610 C.3   177  THR177      0.0375
@<TRIPOS>BOND
     1    26    24   am
     2    23    24    1
     3    23    22    1
     4    24    25    2
     5    18    19    1
     6    22    19    1
     7    19    20    1
     8   104   103    2
     9    98    99    1
    10    98    95    1
    11    99   100    1
    12   105   106    1
    13   105   107    1
    14   105   102    1
    15   101   102    1
    16   101    96   am
    17    20    21    2
    18    20    27   am
    19    95    96    1
    20    95    94    1
    21    80    79    2
    22   112   109    1
    23   103   102    1
    24   103   108   am
    25    13    12    2
    26   111   110    2
    27    96    97    2
    28    27    28    1
    29   100    94    1
    30    94    88   am
    31   110   109    1
    32   110   113   am
    33   114   113    1
    34   114   115    1
    35    12    11    1
    36   109   108    1
    37    79    78    1
    38    89    88    2
    39    88    87    1
    40    81    78    1
    41    81    82    1
    42   116   115    2
    43    28    29    1
    44    28    31    1
    45   115   117   am
    46    77    78    1
    47    30    29    2
    48    33    32    1
    49    86    87    1
    50    82    83    1
    51    34    32    1
    52    11    14    1
    53    11    10    1
    54    32    31    1
    55    87    90    1
    56    29    35   am
    57    14    15    1
    58    83    84    1
    59   117   118    1
    60   127   126    1
    61   127   128    1
    62    72    71    2
    63    35    36    1
    64    35    41    1
    65   126   125    1
    66    90    92    1
    67    90    91    1
    68    71    70    1
    69    84    85    1
    70    15    16    1
    71    15    17    1
    72   118   119    1
    73    36    37    1
    74    36    39    1
    75    41    40    1
    76    52    50    1
    77    51    50    1
    78    91    93    1
    79    37    38    2
    80   125   122    1
    81    50    49    2
    82   121   119   am
    83   121   122    1
    84   119   120    2
    85    39    40    1
    86    70    69    1
    87    70    73    1
    88   164   165    1
    89    75    73    1
    90   122   123    1
    91    73    74    1
    92    49    48    1
    93   165   166    1
    94   165   168    1
    95    59    58    2
    96   135   134    1
    97   135   136    1
    98     4     3    1
    99   123   129   am
   100   123   124    2
   101    48    47    1
   102   134   131   am
   103   154   153   ar
   104   170   168    1
   105   129   130    1
   106   166   167    2
   107    74    76    1
   108   136   138   am
   109   136   137    2
   110   168   169    1
   111     3     2    1
   112   155   153   ar
   113   138   139    1
   114    58    57    1
   115    58    60   am
   116   153   152    1
   117     1     2    1
   118   131   130    1
   119   131   132    2
   120   130   133    1
   121    46    47    1
   122    46    43    1
   123    57    54    1
   124   139   140    1
   125     2     5    1
   126    54    53    1
   127    54    55    1
   128   152   149    1
   129    53    44   am
   130    44    45    2
   131    44    43    1
   132    43    42    1
   133     5     6    1
   134     7     6    1
   135     7     8    1
   136   140   142   am
   137   140   141    2
   138     9     8    1
   139   148   149    1
   140   149   150    1
   141   142   143    1
   142    55    61   am
   143    55    56    2
   144    61    62    1
   145   150   151    2
   146   143   144    1
   147   143   146    1
   148   163   161   ar
   149   144   145    2
   150    62    65    1
   151    62    63    1
   152    65    66    1
   153   146   147    1
   154    63    64    2
   155    66    67    1
   156    66    68    1
   157   161   160    1
   158   161   162   ar
   159   160   157    1
   160   157   158    1
   161   157   156    1
   162   159   158    2
