@<TRIPOS>MOLECULE
tmp/3pygA00.pdb
 113 109 0 0 0
SMALL
GASTEIGER

@<TRIPOS>ATOM
      1  N        -11.0380   -2.7700    3.0320 N.3    61  LEU61      -0.1245
      2  CA       -11.1880   -2.6960    4.5070 C.3    61  LEU61       0.1561
      3  C        -11.5270   -1.3220    5.1140 C.2    61  LEU61       0.2260
      4  O        -10.9750   -0.2890    4.6960 O.2    61  LEU61      -0.2867
      5  CB        -9.9860   -3.3350    5.2340 C.3    61  LEU61       0.0270
      6  CG        -9.7610   -4.8650    5.1960 C.3    61  LEU61       0.0019
      7  CD1      -10.9850   -5.7190    4.8910 C.3    61  LEU61       0.0001
      8  CD2       -8.6930   -5.2050    4.2510 C.3    61  LEU61       0.0001
      9  N        -10.7970   -3.7690   13.6060 N.3    68  LEU68      -0.1245
     10  CA       -10.2620   -4.3130   14.8780 C.3    68  LEU68       0.1561
     11  C         -8.9690   -3.6540   15.3450 C.2    68  LEU68       0.2260
     12  O         -8.7740   -3.5060   16.5230 O.2    68  LEU68      -0.2867
     13  CB        -9.9560   -5.8040   14.8190 C.3    68  LEU68       0.0270
     14  CG       -11.0910   -6.6870   15.2340 C.3    68  LEU68       0.0019
     15  CD1      -10.6750   -8.1740   15.4180 C.3    68  LEU68       0.0001
     16  CD2      -11.7870   -6.0940   16.4800 C.3    68  LEU68       0.0001
     17  N         -0.5160   -5.0330    4.4160 N.3    92  LYS92      -0.1245
     18  CA        -1.3340   -6.2300    4.5350 C.3    92  LYS92       0.1561
     19  C         -0.8150   -7.2580    3.5100 C.2    92  LYS92       0.2260
     20  O         -0.7300   -6.9120    2.3170 O.2    92  LYS92      -0.2867
     21  CB        -2.7190   -5.8830    4.0650 C.3    92  LYS92       0.0271
     22  CG        -3.6170   -5.0730    4.9060 C.3    92  LYS92       0.0035
     23  CD        -4.1290   -5.7950    6.2280 C.3    92  LYS92       0.0206
     24  CE        -5.1580   -6.8990    6.0620 C.3    92  LYS92       0.1093
     25  NZ        -5.0900   -7.7680    7.3690 N.3    92  LYS92      -0.1314
     26  N         -1.7930  -10.7250    4.5440 N.3    94  ILE94      -0.1231
     27  CA        -2.5670  -11.8900    4.9360 C.3    94  ILE94       0.1678
     28  C         -3.8660  -11.7940    4.0740 C.2    94  ILE94       0.2434
     29  O         -4.5180  -10.7590    4.1180 O.2    94  ILE94      -0.2733
     30  CB        -2.9430  -11.8510    6.4600 C.3    94  ILE94       0.0265
     31  CG1       -1.7120  -12.0220    7.4210 C.3    94  ILE94       0.0019
     32  CG2       -3.9640  -12.9450    6.7580 C.3    94  ILE94       0.0020
     33  CD1       -2.1200  -11.4520    8.9200 C.3    94  ILE94       0.0001
     34  N         -4.2150  -12.8520    3.3230 N.am   95  PRO95      -0.2718
     35  CA        -5.2720  -12.7650    2.3000 C.3    95  PRO95       0.1535
     36  C         -6.5540  -12.2950    2.9630 C.2    95  PRO95       0.2598
     37  O         -6.9010  -12.8260    3.9970 O.2    95  PRO95      -0.2715
     38  CB        -5.4000  -14.2400    1.8160 C.3    95  PRO95       0.0310
     39  CG        -3.9310  -14.7100    1.8140 C.3    95  PRO95       0.0237
     40  CD        -3.4220  -14.0960    3.1790 C.3    95  PRO95       0.0939
     41  N         -7.1730  -11.2520    2.4430 N.am   96  VAL96      -0.1964
     42  CA        -8.3420  -10.6260    3.1060 C.3    96  VAL96       0.1727
     43  C         -9.5600  -11.4480    2.8090 C.2    96  VAL96       0.2616
     44  O         -9.7010  -11.9460    1.7040 O.2    96  VAL96      -0.2715
     45  CB        -8.5040   -9.0840    2.7570 C.3    96  VAL96       0.0290
     46  CG1       -7.4200   -8.6170    1.8050 C.3    96  VAL96       0.0023
     47  CG2       -9.9060   -8.7000    2.2940 C.3    96  VAL96       0.0023
     48  N        -10.3880  -11.6220    3.8270 N.am   97  ALA97      -0.1963
     49  CA       -11.5040  -12.5330    3.8490 C.3    97  ALA97       0.1728
     50  C        -11.0490  -13.9430    3.6000 C.2    97  ALA97       0.2617
     51  O        -11.8530  -14.7810    3.2640 O.2    97  ALA97      -0.2715
     52  CB       -12.6310  -12.1100    2.8470 C.3    97  ALA97       0.0334
     53  N         -9.7710  -14.2150    3.8480 N.am   98  GLY98      -0.1940
     54  CA        -9.2130  -15.5710    3.7610 C.3    98  GLY98       0.2014
     55  C         -9.4310  -16.6450    4.8200 C.2    98  GLY98       0.2639
     56  O         -8.9640  -17.7470    4.6470 O.2    98  GLY98      -0.2714
     57  N        -10.0990  -16.3660    5.9350 N.am   99  GLY99      -0.1939
     58  CA       -10.1550  -17.3050    7.0510 C.3    99  GLY99       0.2014
     59  C         -8.8740  -17.4210    7.8950 C.2    99  GLY99       0.2639
     60  O         -8.7920  -18.2530    8.7890 O.2    99  GLY99      -0.2714
     61  N         -7.9190  -16.5290    7.6850 N.am  100  MET100     -0.1963
     62  CA        -6.6050  -16.5680    8.3950 C.3   100  MET100      0.1736
     63  C         -6.5220  -15.5170    9.5230 C.2   100  MET100      0.2616
     64  O         -5.4610  -15.2870   10.1370 O.2   100  MET100     -0.2715
     65  CB        -5.4970  -16.3390    7.3770 C.3   100  MET100      0.0427
     66  CG        -5.3970  -17.5270    6.3440 C.3   100  MET100      0.0599
     67  SD        -3.8760  -17.4390    5.4260 S.3   100  MET100     -0.1393
     68  CE        -2.6380  -17.7410    6.7080 C.3   100  MET100      0.0692
     69  N         -7.6490  -14.8560    9.7400 N.am  101  ALA101     -0.1963
     70  CA        -7.8640  -13.8870   10.8230 C.3   101  ALA101      0.1728
     71  C         -6.8900  -12.6980   10.7530 C.2   101  ALA101      0.2617
     72  O         -6.1880  -12.4060   11.7300 O.2   101  ALA101     -0.2715
     73  CB        -7.7700  -14.5900   12.2090 C.3   101  ALA101      0.0334
     74  N         -6.8280  -12.0340    9.5980 N.am  102  GLY102     -0.1940
     75  CA        -5.8320  -10.9730    9.4100 C.3   102  GLY102      0.2014
     76  C         -6.2490   -9.7800   10.2730 C.2   102  GLY102      0.2639
     77  O         -5.4190   -9.0570   10.7510 O.2   102  GLY102     -0.2714
     78  N         -7.5490   -9.5930   10.5000 N.am  103  GLY103     -0.1939
     79  CA        -7.9490   -8.3950   11.2430 C.3   103  GLY103      0.2014
     80  C         -7.5480   -8.5440   12.7320 C.2   103  GLY103      0.2639
     81  O         -7.0540   -7.5650   13.3660 O.2   103  GLY103     -0.2714
     82  N         -7.7090   -9.7780   13.2540 N.am  104  SER104     -0.1949
     83  CA        -7.2620  -10.1520   14.5740 C.3   104  SER104      0.1924
     84  C         -5.7280  -10.0400   14.6680 C.2   104  SER104      0.2314
     85  O         -5.2210   -9.4970   15.6300 O.2   104  SER104     -0.2863
     86  CB        -7.6760  -11.5780   14.8680 C.3   104  SER104      0.2116
     87  OG        -9.0620  -11.5650   15.1110 O.3   104  SER104     -0.2180
     88  N        -11.0730   -8.1230   22.6470 N.3   134  LEU134     -0.1231
     89  CA       -11.1470   -7.7260   21.2530 C.3   134  LEU134      0.1693
     90  C        -11.8630   -8.7610   20.3840 C.2   134  LEU134      0.2593
     91  O        -12.5630   -8.4170   19.4020 O.2   134  LEU134     -0.2718
     92  CB        -9.7610   -7.4010   20.6850 C.3   134  LEU134      0.0284
     93  CG        -9.2450   -6.0400   21.2230 C.3   134  LEU134      0.0019
     94  CD1       -7.7400   -5.8770   20.9820 C.3   134  LEU134      0.0001
     95  CD2      -10.0270   -4.9090   20.5780 C.3   134  LEU134      0.0001
     96  N        -11.6840  -10.0270   20.7000 N.am  135  GLY135     -0.1942
     97  CA       -12.2750  -11.0070   19.7780 C.3   135  GLY135      0.2014
     98  C        -11.5340  -12.2750   19.6970 C.2   135  GLY135      0.2640
     99  O        -10.3250  -12.3130   19.9880 O.2   135  GLY135     -0.2714
    100  N        -12.2260  -13.3210   19.2670 N.am  136  SER136     -0.1935
    101  CA       -11.7460  -14.6300   19.6930 C.3   136  SER136      0.2055
    102  C        -10.4130  -15.0790   19.0700 C.2   136  SER136      0.2643
    103  O         -9.7750  -16.0460   19.6030 O.2   136  SER136     -0.2714
    104  CB       -12.8430  -15.7150   19.5980 C.3   136  SER136      0.2130
    105  OG       -13.0130  -16.1280   18.2450 O.3   136  SER136     -0.2179
    106  N         -9.9370  -14.3960   18.0230 N.am  137  ASP137     -0.1971
    107  CA        -8.6410  -14.8210   17.4420 C.3   137  ASP137      0.1709
    108  C         -7.4510  -13.9090   17.7170 C.2   137  ASP137      0.2293
    109  O         -6.2980  -14.2180   17.3110 O.2   137  ASP137     -0.2864
    110  CB        -8.7400  -15.0520   15.9280 C.3   137  ASP137      0.1436
    111  CG        -9.6460  -16.2650   15.5600 C.2   137  ASP137      0.3671
    112  OD1       -9.6570  -17.3160   16.2760 O.co2 137  ASP137     -0.2456
    113  OD2      -10.3720  -16.0990   14.5490 O.co2 137  ASP137     -0.2456
@<TRIPOS>BOND
     1    44    43    2
     2    46    45    1
     3    39    38    1
     4    39    40    1
     5    38    35    1
     6    47    45    1
     7    35    36    1
     8    35    34    1
     9    20    19    2
    10    41    36   am
    11    41    42    1
    12    45    42    1
    13    43    42    1
    14    43    48   am
    15    52    49    1
    16    36    37    2
    17     1     2    1
    18    40    34    1
    19    51    50    2
    20    34    28   am
    21    19    18    1
    22    50    53   am
    23    50    49    1
    24    54    53    1
    25    54    55    1
    26    48    49    1
    27    21    18    1
    28    21    22    1
    29    28    29    2
    30    28    27    1
    31     8     6    1
    32    17    18    1
    33     2     3    1
    34     2     5    1
    35    26    27    1
    36    56    55    2
    37     4     3    2
    38    55    57   am
    39     7     6    1
    40    22    23    1
    41    27    30    1
    42     6     5    1
    43    67    66    1
    44    67    68    1
    45    57    58    1
    46    24    23    1
    47    24    25    1
    48    66    65    1
    49    30    32    1
    50    30    31    1
    51    58    59    1
    52    65    62    1
    53    31    33    1
    54    61    59   am
    55    61    62    1
    56    59    60    2
    57    62    63    1
    58    75    74    1
    59    75    76    1
    60    63    69   am
    61    63    64    2
    62    74    71   am
    63    69    70    1
    64    76    78   am
    65    76    77    2
    66    78    79    1
    67    71    70    1
    68    71    72    2
    69    70    73    1
    70    79    80    1
    71    80    82   am
    72    80    81    2
    73    82    83    1
    74     9    10    1
    75   113   111   ar
    76    83    84    1
    77    83    86    1
    78    84    85    2
    79    13    10    1
    80    13    14    1
    81    86    87    1
    82    10    11    1
    83    14    15    1
    84    14    16    1
    85    11    12    2
    86   111   110    1
    87   111   112   ar
    88   110   107    1
    89   109   108    2
    90   107   108    1
    91   107   106    1
    92   106   102   am
    93   105   104    1
    94   102   103    2
    95   102   101    1
    96   100   101    1
    97   100    98   am
    98    91    90    2
    99   104   101    1
   100    98    97    1
   101    98    99    2
   102    97    96    1
   103    90    96   am
   104    90    89    1
   105    95    93    1
   106    92    93    1
   107    92    89    1
   108    94    93    1
   109    89    88    1
