@<TRIPOS>MOLECULE
tmp/3pyhA00.pdb
 187 188 0 0 0
SMALL
GASTEIGER

@<TRIPOS>ATOM
      1  N        -16.3580   27.6660    9.1750 N.3    40  HIS40      -0.1241
      2  CA       -14.9070   27.5860    9.2280 C.3    40  HIS40       0.1621
      3  C        -14.2200   28.0920    7.9600 C.2    40  HIS40       0.2264
      4  O        -13.0080   28.2120    7.9400 O.2    40  HIS40      -0.2867
      5  CB       -14.4040   26.1960    9.6460 C.3    40  HIS40       0.0745
      6  CG       -14.2990   25.2060    8.5290 C.ar   40  HIS40       0.0817
      7  ND1      -15.3070   24.3140    8.2250 N.ar   40  HIS40      -0.2268
      8  CD2      -13.2850   24.9350    7.6720 C.ar   40  HIS40       0.1154
      9  CE1      -14.9290   23.5570    7.2110 C.ar   40  HIS40       0.1986
     10  NE2      -13.7030   23.9070    6.8620 N.ar   40  HIS40      -0.2212
     11  N        -15.3220   26.8650   17.1160 N.3    78  SER78      -0.1202
     12  CA       -14.2030   26.4070   16.2800 C.3    78  SER78       0.2020
     13  C        -13.5220   25.1640   16.8520 C.2    78  SER78       0.2619
     14  O        -12.7860   24.4720   16.1560 O.2    78  SER78      -0.2717
     15  CB       -13.1690   27.5220   16.0730 C.3    78  SER78       0.2103
     16  OG       -12.3850   27.7040   17.2430 O.3    78  SER78      -0.2182
     17  N        -13.7660   24.8880   18.1260 N.am   79  GLU79      -0.1965
     18  CA       -13.2440   23.6810   18.7520 C.3    79  GLU79       0.1733
     19  C        -14.0490   22.4920   18.2890 C.2    79  GLU79       0.2617
     20  O        -13.5760   21.6460   17.5240 O.2    79  GLU79      -0.2715
     21  CB       -13.4120   23.7510   20.2590 C.3    79  GLU79       0.0429
     22  CG       -12.3320   24.4550   21.0110 C.3    79  GLU79       0.1163
     23  CD       -12.1360   23.8350   22.3800 C.2    79  GLU79       0.3649
     24  OE1      -11.9160   22.5990   22.4340 O.co2  79  GLU79      -0.2457
     25  OE2      -12.2200   24.5790   23.3870 O.co2  79  GLU79      -0.2457
     26  N        -15.2820   22.4490   18.7820 N.am   80  THR80      -0.1937
     27  CA       -16.1800   21.3240   18.5950 C.3    80  THR80       0.2028
     28  C        -16.7510   21.2030   17.1840 C.2    80  THR80       0.2642
     29  O        -17.3130   20.1680   16.8380 O.2    80  THR80      -0.2714
     30  CB       -17.3610   21.4360   19.5620 C.3    80  THR80       0.1808
     31  OG1      -18.1420   22.5880   19.2140 O.3    80  THR80      -0.2208
     32  CG2      -16.8650   21.5760   20.9960 C.3    80  THR80       0.0379
     33  N        -16.6220   22.2650   16.3910 N.am   81  TYR81      -0.1973
     34  CA       -17.1960   22.3510   15.0370 C.3    81  TYR81       0.1639
     35  C        -18.7200   22.3870   14.9980 C.2    81  TYR81       0.2290
     36  O        -19.3270   22.2980   13.9330 O.2    81  TYR81      -0.2864
     37  CB       -16.6480   21.2510   14.1120 C.3    81  TYR81       0.0560
     38  CG       -15.4660   21.7190   13.2830 C.ar   81  TYR81      -0.0198
     39  CD1      -15.5590   21.8230   11.9010 C.ar   81  TYR81      -0.0009
     40  CD2      -14.2740   22.1040   13.8880 C.ar   81  TYR81      -0.0009
     41  CE1      -14.4990   22.2630   11.1460 C.ar   81  TYR81       0.0417
     42  CE2      -13.1990   22.5560   13.1330 C.ar   81  TYR81       0.0417
     43  CZ       -13.3250   22.6270   11.7610 C.ar   81  TYR81       0.1957
     44  OH       -12.2760   23.0570   10.9890 O.3    81  TYR81      -0.2866
     45  N        -14.0580   11.9650   17.3410 N.3   154  PHE154     -0.1227
     46  CA       -14.5140   13.2460   17.8670 C.3   154  PHE154      0.1736
     47  C        -16.0270   13.2260   18.0760 C.2   154  PHE154      0.2595
     48  O        -16.7190   12.4220   17.4530 O.2   154  PHE154     -0.2718
     49  CB       -14.0900   14.3770   16.9220 C.3   154  PHE154      0.0547
     50  CG       -12.6050   14.4270   16.6860 C.ar  154  PHE154     -0.0202
     51  CD1      -12.0100   13.5720   15.7740 C.ar  154  PHE154     -0.0042
     52  CD2      -11.8030   15.3110   17.3970 C.ar  154  PHE154     -0.0042
     53  CE1      -10.6510   13.5920   15.5680 C.ar  154  PHE154     -0.0003
     54  CE2      -10.4340   15.3420   17.1900 C.ar  154  PHE154     -0.0003
     55  CZ        -9.8570   14.4840   16.2740 C.ar  154  PHE154     -0.0000
     56  N        -16.5360   14.1000   18.9480 N.am  155  ILE155     -0.1980
     57  CA       -17.9640   14.1220   19.2570 C.3   155  ILE155      0.1595
     58  C        -18.8300   14.6020   18.0930 C.2   155  ILE155      0.2287
     59  O        -18.6130   15.6810   17.5310 O.2   155  ILE155     -0.2864
     60  CB       -18.3030   15.0050   20.4730 C.3   155  ILE155      0.0276
     61  CG1      -17.7190   14.4230   21.7620 C.3   155  ILE155      0.0022
     62  CG2      -19.8140   15.1290   20.6130 C.3   155  ILE155      0.0022
     63  CD1      -17.7740   15.3920   22.9520 C.3   155  ILE155      0.0001
     64  N        -14.9140   10.3640   -0.6780 N.3   171  ASP171     -0.1225
     65  CA       -15.1740   11.3480    0.3610 C.3   171  ASP171      0.1805
     66  C        -14.9880   12.7770   -0.1790 C.2   171  ASP171      0.2598
     67  O        -14.3440   12.9770   -1.2060 O.2   171  ASP171     -0.2718
     68  CB       -14.1970   11.0590    1.5120 C.3   171  ASP171      0.1424
     69  CG       -14.5670   11.7490    2.8100 C.2   171  ASP171      0.3668
     70  OD1      -13.7580   11.6220    3.7570 O.co2 171  ASP171     -0.2456
     71  OD2      -15.6350   12.4000    2.8950 O.co2 171  ASP171     -0.2456
     72  N        -15.5500   13.7630    0.5150 N.am  172  ALA172     -0.1966
     73  CA       -15.1260   15.1400    0.3340 C.3   172  ALA172      0.1728
     74  C        -13.7640   15.3360    1.0310 C.2   172  ALA172      0.2616
     75  O        -13.2760   14.4470    1.7520 O.2   172  ALA172     -0.2715
     76  CB       -16.1650   16.0990    0.8760 C.3   172  ALA172      0.0334
     77  N        -13.1500   16.4940    0.8230 N.am  173  CYS173     -0.1954
     78  CA       -11.8020   16.7220    1.3340 C.3   173  CYS173      0.1843
     79  C        -11.5090   18.2290    1.4370 C.2   173  CYS173      0.2625
     80  O        -12.3880   19.0460    1.1790 O.2   173  CYS173     -0.2714
     81  CB       -10.7790   15.9980    0.4470 C.3   173  CYS173      0.0997
     82  SG        -9.1320   15.8150    1.1890 S.3   173  CYS173     -0.0797
     83  N        -10.2930   18.6050    1.8270 N.am  174  GLN174     -0.1977
     84  CA        -9.9740   20.0350    1.9570 C.3   174  GLN174      0.1601
     85  C        -10.2650   20.7730    0.6560 C.2   174  GLN174      0.2287
     86  O         -9.9510   20.2740   -0.4120 O.2   174  GLN174     -0.2864
     87  CB        -8.5070   20.2360    2.3390 C.3   174  GLN174      0.0394
     88  CG        -8.1120   19.5640    3.6360 C.3   174  GLN174      0.0908
     89  CD        -6.7500   20.0180    4.1410 C.2   174  GLN174      0.2608
     90  OE1       -6.6510   20.7840    5.1090 O.2   174  GLN174     -0.2717
     91  NE2       -5.6940   19.5520    3.4850 N.am  174  GLN174     -0.0878
     92  N        -14.8560   22.1420    1.5380 N.3   177  SER177     -0.1217
     93  CA       -15.5100   22.7360    2.7030 C.3   177  SER177      0.1889
     94  C        -16.4340   23.8800    2.3290 C.2   177  SER177      0.2288
     95  O        -16.0910   24.7120    1.4900 O.2   177  SER177     -0.2866
     96  CB       -14.4610   23.2390    3.6980 C.3   177  SER177      0.2089
     97  OG       -13.8140   22.1440    4.3270 O.3   177  SER177     -0.2183
     98  N        -20.3830   20.6400    3.5780 N.3   191  VAL191     -0.1231
     99  CA       -19.0750   20.0180    3.8180 C.3   191  VAL191      0.1692
    100  C        -18.3800   20.6910    5.0050 C.2   191  VAL191      0.2593
    101  O        -18.0130   21.8630    4.9390 O.2   191  VAL191     -0.2718
    102  CB       -18.1840   20.0950    2.5600 C.3   191  VAL191      0.0266
    103  CG1      -16.8400   19.4140    2.8190 C.3   191  VAL191      0.0020
    104  CG2      -18.9060   19.4370    1.3700 C.3   191  VAL191      0.0020
    105  N        -18.2160   19.9480    6.0970 N.am  192  SER192     -0.1938
    106  CA       -17.7340   20.5300    7.3460 C.3   192  SER192      0.2055
    107  C        -16.3440   20.0210    7.7350 C.2   192  SER192      0.2643
    108  O        -15.3670   20.7860    7.7010 O.2   192  SER192     -0.2714
    109  CB       -18.7430   20.3080    8.4850 C.3   192  SER192      0.2130
    110  OG       -18.3070   20.9510    9.6790 O.3   192  SER192     -0.2179
    111  N        -16.2420   18.7410    8.0990 N.am  193  TRP193     -0.1959
    112  CA       -14.9350   18.1660    8.4530 C.3   193  TRP193      0.1771
    113  C        -14.8500   16.6590    8.2720 C.2   193  TRP193      0.2620
    114  O        -15.8280   15.9980    7.9050 O.2   193  TRP193     -0.2715
    115  CB       -14.5760   18.5050    9.9080 C.3   193  TRP193      0.0590
    116  CG       -15.5590   17.9830   10.9000 C.ar  193  TRP193      0.0006
    117  CD1      -16.7680   18.5370   11.2140 C.ar  193  TRP193      0.0946
    118  CD2      -15.4320   16.8050   11.7200 C.ar  193  TRP193      0.0152
    119  NE1      -17.3930   17.7910   12.1770 N.ar  193  TRP193     -0.2442
    120  CE2      -16.5980   16.7210   12.5080 C.ar  193  TRP193      0.0810
    121  CE3      -14.4450   15.8200   11.8680 C.ar  193  TRP193      0.0012
    122  CZ2      -16.8090   15.6920   13.4310 C.ar  193  TRP193      0.0191
    123  CZ3      -14.6600   14.7970   12.7840 C.ar  193  TRP193      0.0001
    124  CH2      -15.8360   14.7430   13.5530 C.ar  193  TRP193      0.0015
    125  N        -13.6720   16.1140    8.5550 N.am  194  GLY194     -0.1940
    126  CA       -13.4680   14.6720    8.5890 C.3   194  GLY194      0.2014
    127  C        -12.0480   14.3740    9.0430 C.2   194  GLY194      0.2639
    128  O        -11.1990   15.2560    8.9890 O.2   194  GLY194     -0.2714
    129  N        -11.7890   13.1500    9.5020 N.am  195  GLU195     -0.1963
    130  CA       -10.4530   12.7800    9.9530 C.3   195  GLU195      0.1733
    131  C         -9.6370   12.3440    8.7400 C.2   195  GLU195      0.2617
    132  O         -9.7090   11.1970    8.3060 O.2   195  GLU195     -0.2715
    133  CB       -10.5470   11.6680   11.0000 C.3   195  GLU195      0.0429
    134  CG       -11.4500   12.0510   12.1650 C.3   195  GLU195      0.1163
    135  CD       -11.5050   10.9930   13.2500 C.2   195  GLU195      0.3649
    136  OE1      -10.4450   10.4380   13.6150 O.co2 195  GLU195     -0.2457
    137  OE2      -12.6170   10.7230   13.7390 O.co2 195  GLU195     -0.2457
    138  N         -8.8840   13.2800    8.1790 N.am  196  GLY196     -0.1940
    139  CA        -8.2470   13.0660    6.8950 C.3   196  GLY196      0.2014
    140  C         -9.3320   13.0120    5.8400 C.2   196  GLY196      0.2639
    141  O        -10.4280   13.5080    6.0590 O.2   196  GLY196     -0.2714
    142  N         -9.0390   12.4020    4.6990 N.am  197  CYS197     -0.1967
    143  CA       -10.0410   12.2490    3.6500 C.3   197  CYS197      0.1712
    144  C        -10.0420   10.8290    3.1330 C.2   197  CYS197      0.2296
    145  O         -8.9830   10.2540    2.8820 O.2   197  CYS197     -0.2864
    146  CB        -9.7480   13.1980    2.4830 C.3   197  CYS197      0.0983
    147  SG        -9.6240   14.9250    2.9630 S.3   197  CYS197     -0.0798
    148  N        -13.7560    6.2690    8.4700 N.3   202  LYS202     -0.1231
    149  CA       -13.6760    7.6740    8.8510 C.3   202  LYS202      0.1678
    150  C        -14.4200    8.4580    7.7730 C.2   202  LYS202      0.2434
    151  O        -13.8050    8.9740    6.8390 O.2   202  LYS202     -0.2733
    152  CB       -12.2190    8.1400    8.9160 C.3   202  LYS202      0.0284
    153  CG       -11.3630    7.4810    9.9910 C.3   202  LYS202      0.0035
    154  CD       -11.7510    7.9710   11.3780 C.3   202  LYS202      0.0206
    155  CE       -10.9630    7.2440   12.4800 C.3   202  LYS202      0.1093
    156  NZ       -11.5090    7.5680   13.8430 N.3   202  LYS202     -0.1314
    157  N        -15.7540    8.5120    7.8790 N.am  203  PRO203     -0.2718
    158  CA       -16.5940    9.1140    6.8320 C.3   203  PRO203      0.1535
    159  C        -16.5990   10.6350    6.9170 C.2   203  PRO203      0.2599
    160  O        -16.1770   11.1780    7.9260 O.2   203  PRO203     -0.2715
    161  CB       -17.9860    8.5710    7.1600 C.3   203  PRO203      0.0310
    162  CG       -17.9660    8.3670    8.6350 C.3   203  PRO203      0.0237
    163  CD       -16.5540    7.9590    8.9890 C.3   203  PRO203      0.0939
    164  N        -17.0610   11.3100    5.8710 N.am  204  GLY204     -0.1941
    165  CA       -17.1680   12.7540    5.9050 C.3   204  GLY204      0.2014
    166  C        -18.2550   13.1940    6.8770 C.2   204  GLY204      0.2639
    167  O        -19.2760   12.5090    7.0370 O.2   204  GLY204     -0.2714
    168  N        -18.0260   14.3210    7.5470 N.am  205  ILE205     -0.1963
    169  CA       -19.0120   14.8840    8.4560 C.3   205  ILE205      0.1727
    170  C        -19.5720   16.1890    7.8780 C.2   205  ILE205      0.2616
    171  O        -18.8280   17.0230    7.3530 O.2   205  ILE205     -0.2715
    172  CB       -18.4340   15.1250    9.8630 C.3   205  ILE205      0.0290
    173  CG1      -17.4810   13.9940   10.2670 C.3   205  ILE205      0.0022
    174  CG2      -19.5630   15.3110   10.8850 C.3   205  ILE205      0.0023
    175  CD1      -18.1530   12.6730   10.4930 C.3   205  ILE205      0.0001
    176  N        -20.8840   16.3620    7.9860 N.am  206  TYR206     -0.1974
    177  CA       -21.5590   17.4790    7.3480 C.3   206  TYR206      0.1639
    178  C        -22.5050   18.2290    8.2890 C.2   206  TYR206      0.2290
    179  O        -23.1510   17.6250    9.1480 O.2   206  TYR206     -0.2864
    180  CB       -22.3150   16.9630    6.1260 C.3   206  TYR206      0.0560
    181  CG       -21.3910   16.2530    5.1900 C.ar  206  TYR206     -0.0198
    182  CD1      -20.6740   16.9640    4.2300 C.ar  206  TYR206     -0.0009
    183  CD2      -21.1740   14.8880    5.2980 C.ar  206  TYR206     -0.0009
    184  CE1      -19.8080   16.3350    3.3830 C.ar  206  TYR206      0.0417
    185  CE2      -20.2920   14.2440    4.4450 C.ar  206  TYR206      0.0417
    186  CZ       -19.6140   14.9740    3.4930 C.ar  206  TYR206      0.1957
    187  OH       -18.7310   14.3650    2.6370 O.3   206  TYR206     -0.2866
@<TRIPOS>BOND
     1    67    66    2
     2    64    65    1
     3    86    85    2
     4    66    65    1
     5    66    72   am
     6    73    72    1
     7    73    76    1
     8    73    74    1
     9    65    68    1
    10    81    82    1
    11    81    78    1
    12    85    84    1
    13    77    74   am
    14    77    78    1
    15    74    75    2
    16    80    79    2
    17    82   147    1
    18    78    79    1
    19   104   102    1
    20    79    83   am
    21    95    94    2
    22    68    69    1
    23    92    93    1
    24    83    84    1
    25    84    87    1
    26    94    93    1
    27    87    88    1
    28   146   147    1
    29   146   143    1
    30   102   103    1
    31   102    99    1
    32   187   186    1
    33    93    96    1
    34    69    71   ar
    35    69    70   ar
    36   145   144    2
    37   144   143    1
    38   184   186   ar
    39   184   182   ar
    40    91    89   am
    41   186   185   ar
    42    98    99    1
    43    88    89    1
    44   143   142    1
    45    96    97    1
    46    99   100    1
    47    89    90    2
    48   182   181   ar
    49   185   183   ar
    50   142   140   am
    51   101   100    2
    52   100   105   am
    53   181   183   ar
    54   181   180    1
    55   140   141    2
    56   140   139    1
    57   164   165    1
    58   164   159   am
    59   165   166    1
    60   105   106    1
    61   180   177    1
    62   158   159    1
    63   158   161    1
    64   158   157    1
    65   151   150    2
    66    10     9   ar
    67    10     8   ar
    68   166   167    2
    69   166   168   am
    70   139   138    1
    71   159   160    2
    72   161   162    1
    73     9     7   ar
    74   106   107    1
    75   106   109    1
    76   177   176    1
    77   177   178    1
    78   171   170    2
    79   168   169    1
    80     8     6   ar
    81   108   107    2
    82   107   111   am
    83   150   157   am
    84   150   149    1
    85   170   176   am
    86   170   169    1
    87   157   163    1
    88   114   113    2
    89     4     3    2
    90     3     2    1
    91   111   112    1
    92   138   131   am
    93     7     6   ar
    94   113   112    1
    95   113   125   am
    96   178   179    2
    97   132   131    2
    98   112   115    1
    99   169   172    1
   100   148   149    1
   101   109   110    1
   102     6     5    1
   103   125   126    1
   104   126   127    1
   105   162   163    1
   106   131   130    1
   107   149   152    1
   108   152   153    1
   109   128   127    2
   110   127   129   am
   111     1     2    1
   112     2     5    1
   113   129   130    1
   114   172   173    1
   115   172   174    1
   116   115   116    1
   117   130   133    1
   118   153   154    1
   119   173   175    1
   120   116   117   ar
   121   116   118   ar
   122    44    43    1
   123   133   134    1
   124    41    43   ar
   125    41    39   ar
   126   117   119   ar
   127   154   155    1
   128   118   121   ar
   129   118   120   ar
   130    43    42   ar
   131   121   123   ar
   132    39    38   ar
   133   134   135    1
   134   119   120   ar
   135   155   156    1
   136   120   122   ar
   137   123   124   ar
   138    42    40   ar
   139   135   136   ar
   140   135   137   ar
   141    38    40   ar
   142    38    37    1
   143   122   124   ar
   144    36    35    2
   145    37    34    1
   146    35    34    1
   147    34    33    1
   148    53    51   ar
   149    53    55   ar
   150    51    50   ar
   151    15    12    1
   152    15    16    1
   153    14    13    2
   154    55    54   ar
   155    12    13    1
   156    12    11    1
   157    33    28   am
   158    50    49    1
   159    50    52   ar
   160    29    28    2
   161    13    17   am
   162    49    46    1
   163    28    27    1
   164    54    52   ar
   165    45    46    1
   166    48    47    2
   167    20    19    2
   168    59    58    2
   169    46    47    1
   170    47    56   am
   171    58    57    1
   172    17    18    1
   173    19    18    1
   174    19    26   am
   175    27    26    1
   176    27    30    1
   177    18    21    1
   178    56    57    1
   179    31    30    1
   180    57    60    1
   181    30    32    1
   182    21    22    1
   183    60    62    1
   184    60    61    1
   185    22    23    1
   186    61    63    1
   187    23    24   ar
   188    23    25   ar
