@<TRIPOS>MOLECULE
tmp/3pyiA02.pdb
 109 108 0 0 0
SMALL
GASTEIGER

@<TRIPOS>ATOM
      1  N         -8.2610    4.5320  -18.5330 N.3    10  LEU10      -0.1231
      2  CA        -8.3970    4.4700  -17.0860 C.3    10  LEU10       0.1693
      3  C         -7.8330    5.7310  -16.4870 C.2    10  LEU10       0.2591
      4  O         -6.9860    6.3910  -17.0890 O.2    10  LEU10      -0.2718
      5  CB        -7.6060    3.2880  -16.5120 C.3    10  LEU10       0.0284
      6  CG        -7.8320    1.9360  -17.1970 C.3    10  LEU10       0.0019
      7  CD1       -6.8150    0.9180  -16.7390 C.3    10  LEU10       0.0001
      8  CD2       -9.2470    1.4490  -16.9420 C.3    10  LEU10       0.0001
      9  N         -8.2820    6.0530  -15.2810 N.am   11  ILE11      -0.1980
     10  CA        -7.6500    7.1260  -14.5300 C.3    11  ILE11       0.1595
     11  C         -6.4890    6.5730  -13.7120 C.2    11  ILE11       0.2287
     12  O         -6.6100    5.5640  -13.0130 O.2    11  ILE11      -0.2864
     13  CB        -8.6470    7.8870  -13.6550 C.3    11  ILE11       0.0276
     14  CG1       -9.7210    8.5210  -14.5400 C.3    11  ILE11       0.0022
     15  CG2       -7.9320    8.9700  -12.8690 C.3    11  ILE11       0.0022
     16  CD1      -10.7300    9.3520  -13.7890 C.3    11  ILE11       0.0001
     17  N        -11.9220   -8.5930  -12.0900 N.3    95  HIS95      -0.1226
     18  CA       -12.0850   -8.2730  -10.6720 C.3    95  HIS95       0.1752
     19  C        -11.3490   -7.0270  -10.2010 C.2    95  HIS95       0.2596
     20  O        -11.6100   -6.5370   -9.1100 O.2    95  HIS95      -0.2718
     21  CB       -11.6670   -9.4630   -9.8000 C.3    95  HIS95       0.0759
     22  CG       -12.5440  -10.6610   -9.9620 C.ar   95  HIS95       0.0818
     23  ND1      -13.7810  -10.7630   -9.3620 N.ar   95  HIS95      -0.2268
     24  CD2      -12.3680  -11.8070  -10.6610 C.ar   95  HIS95       0.1154
     25  CE1      -14.3290  -11.9190   -9.6860 C.ar   95  HIS95       0.1986
     26  NE2      -13.4910  -12.5730  -10.4720 N.ar   95  HIS95      -0.2212
     27  N        -10.4280   -6.5180  -11.0050 N.am   96  LEU96      -0.1966
     28  CA        -9.6330   -5.3840  -10.5620 C.3    96  LEU96       0.1728
     29  C         -9.7840   -4.1650  -11.4640 C.2    96  LEU96       0.2616
     30  O         -9.7760   -3.0420  -10.9800 O.2    96  LEU96      -0.2715
     31  CB        -8.1650   -5.7850  -10.3980 C.3    96  LEU96       0.0311
     32  CG        -7.8690   -6.7990   -9.2840 C.3    96  LEU96       0.0022
     33  CD1       -6.4000   -7.1300   -9.2550 C.3    96  LEU96       0.0001
     34  CD2       -8.3010   -6.2630   -7.9200 C.3    96  LEU96       0.0001
     35  N         -9.9610   -4.3870  -12.7660 N.am   97  LEU97      -0.1963
     36  CA       -10.1040   -3.2640  -13.6920 C.3    97  LEU97       0.1728
     37  C        -11.5540   -3.0380  -14.1090 C.2    97  LEU97       0.2616
     38  O        -11.8510   -2.1210  -14.8690 O.2    97  LEU97      -0.2715
     39  CB        -9.2280   -3.4700  -14.9230 C.3    97  LEU97       0.0311
     40  CG        -7.7250   -3.6200  -14.6840 C.3    97  LEU97       0.0022
     41  CD1       -7.0170   -3.8550  -16.0060 C.3    97  LEU97       0.0001
     42  CD2       -7.1560   -2.4040  -13.9770 C.3    97  LEU97       0.0001
     43  N        -12.4490   -3.8770  -13.5950 N.am   98  CYS98      -0.1954
     44  CA       -13.8640   -3.8530  -13.9610 C.3    98  CYS98       0.1843
     45  C        -14.6230   -2.7180  -13.2840 C.2    98  CYS98       0.2625
     46  O        -14.2260   -2.2400  -12.2220 O.2    98  CYS98      -0.2714
     47  CB       -14.5150   -5.1750  -13.5590 C.3    98  CYS98       0.0997
     48  SG       -14.3610   -5.5180  -11.7720 S.3    98  CYS98      -0.0797
     49  N        -15.7270   -2.3050  -13.9010 N.am   99  LYS99      -0.1963
     50  CA       -16.6110   -1.2940  -13.3260 C.3    99  LYS99       0.1728
     51  C        -17.6710   -1.9560  -12.4500 C.2    99  LYS99       0.2616
     52  O        -18.4030   -2.8350  -12.9070 O.2    99  LYS99      -0.2715
     53  CB       -17.2980   -0.4860  -14.4320 C.3    99  LYS99       0.0311
     54  CG       -16.3580    0.2890  -15.3450 C.3    99  LYS99       0.0038
     55  CD       -17.1410    1.1780  -16.3110 C.3    99  LYS99       0.0206
     56  CE       -16.2200    2.0610  -17.1470 C.3    99  LYS99       0.1093
     57  NZ       -16.9760    3.0370  -17.9850 N.3    99  LYS99      -0.1314
     58  N        -17.7550   -1.5370  -11.1920 N.am  100  ASN100     -0.1972
     59  CA       -18.7540   -2.0930  -10.2860 C.3   100  ASN100      0.1688
     60  C        -20.1480   -1.5150  -10.5360 C.2   100  ASN100      0.2292
     61  O        -20.2840   -0.4030  -11.0500 O.2   100  ASN100     -0.2864
     62  CB       -18.3280   -1.9270   -8.8220 C.3   100  ASN100      0.1181
     63  CG       -17.4100   -3.0520   -8.3460 C.2   100  ASN100      0.2629
     64  OD1      -16.8200   -3.7800   -9.1520 O.2   100  ASN100     -0.2716
     65  ND2      -17.2910   -3.2010   -7.0290 N.am  100  ASN100     -0.0877
     66  N         -9.5870   -3.6880   -0.1930 N.3   104  GLY104     -0.1210
     67  CA       -10.9240   -4.0350   -0.6450 C.3   104  GLY104      0.1956
     68  C        -11.6500   -2.8710   -1.2950 C.2   104  GLY104      0.2612
     69  O        -12.6860   -3.0480   -1.9400 O.2   104  GLY104     -0.2717
     70  N        -11.1030   -1.6740   -1.1190 N.am  105  LYS105     -0.1966
     71  CA       -11.6750   -0.4690   -1.7040 C.3   105  LYS105      0.1713
     72  C        -11.3740   -0.4410   -3.1980 C.2   105  LYS105      0.2458
     73  O        -10.5630   -1.2310   -3.6800 O.2   105  LYS105     -0.2730
     74  CB       -11.0850    0.7710   -1.0260 C.3   105  LYS105      0.0311
     75  CG       -11.1430    0.7370    0.4970 C.3   105  LYS105      0.0038
     76  CD       -10.4220    1.9260    1.1120 C.3   105  LYS105      0.0206
     77  CE       -10.3950    1.8260    2.6280 C.3   105  LYS105      0.1093
     78  NZ        -9.6840    2.9780    3.2520 N.3   105  LYS105     -0.1314
     79  N        -12.0370    0.4620   -3.9390 N.am  106  PRO106     -0.2716
     80  CA       -11.7540    0.6740   -5.3600 C.3   106  PRO106      0.1536
     81  C        -10.2670    0.5430   -5.7020 C.2   106  PRO106      0.2599
     82  O         -9.3950    0.8720   -4.9000 O.2   106  PRO106     -0.2715
     83  CB       -12.2240    2.1110   -5.5890 C.3   106  PRO106      0.0310
     84  CG       -13.2980    2.3410   -4.5440 C.3   106  PRO106      0.0237
     85  CD       -13.2030    1.2460   -3.5010 C.3   106  PRO106      0.0939
     86  N        -10.0010    0.0510   -6.9040 N.am  107  THR107     -0.1937
     87  CA        -8.6480   -0.1570   -7.4020 C.3   107  THR107      0.2028
     88  C         -8.0210    1.1660   -7.8210 C.2   107  THR107      0.2642
     89  O         -8.7130    2.0680   -8.2840 O.2   107  THR107     -0.2714
     90  CB        -8.6700   -1.1010   -8.6240 C.3   107  THR107      0.1808
     91  OG1       -9.2540   -2.3530   -8.2530 O.3   107  THR107     -0.2208
     92  CG2       -7.2700   -1.3490   -9.1550 C.3   107  THR107      0.0379
     93  N         -6.7120    1.2840   -7.6520 N.am  108  GLU108     -0.1963
     94  CA        -6.0130    2.5000   -8.0500 C.3   108  GLU108      0.1733
     95  C         -4.8160    2.0990   -8.8760 C.2   108  GLU108      0.2616
     96  O         -4.1840    1.0670   -8.6300 O.2   108  GLU108     -0.2715
     97  CB        -5.5450    3.3210   -6.8420 C.3   108  GLU108      0.0429
     98  CG        -6.6440    3.9980   -6.0360 C.3   108  GLU108      0.1163
     99  CD        -6.1190    4.6110   -4.7410 C.2   108  GLU108      0.3649
    100  OE1       -5.7560    3.8460   -3.8210 O.co2 108  GLU108     -0.2457
    101  OE2       -6.0650    5.8550   -4.6430 O.co2 108  GLU108     -0.2457
    102  N         -4.5110    2.9220   -9.8640 N.am  109  ILE109     -0.1977
    103  CA        -3.3800    2.6830  -10.7370 C.3   109  ILE109      0.1596
    104  C         -2.3640    3.8000  -10.5950 C.2   109  ILE109      0.2287
    105  O         -2.6930    4.9830  -10.6510 O.2   109  ILE109     -0.2864
    106  CB        -3.8320    2.6000  -12.1950 C.3   109  ILE109      0.0276
    107  CG1       -4.8190    1.4430  -12.3660 C.3   109  ILE109      0.0022
    108  CG2       -2.6330    2.4330  -13.1290 C.3   109  ILE109      0.0022
    109  CD1       -5.4910    1.4290  -13.7060 C.3   109  ILE109      0.0001
@<TRIPOS>BOND
     1     1     2    1
     2    57    56    1
     3     6     8    1
     4     6     7    1
     5     6     5    1
     6    56    55    1
     7     4     3    2
     8     2     5    1
     9     2     3    1
    10     3     9   am
    11    55    54    1
    12    41    40    1
    13    54    53    1
    14     9    10    1
    15    39    40    1
    16    39    36    1
    17    38    37    2
    18    40    42    1
    19    14    16    1
    20    14    13    1
    21    10    11    1
    22    10    13    1
    23    53    50    1
    24    37    36    1
    25    37    43   am
    26    44    43    1
    27    44    47    1
    28    44    45    1
    29    49    50    1
    30    49    45   am
    31    11    12    2
    32   109   107    1
    33    36    35    1
    34    13    15    1
    35    47    48    1
    36    50    51    1
    37    45    46    2
    38   108   106    1
    39    52    51    2
    40    35    29   am
    41    51    58   am
    42   107   106    1
    43   106   103    1
    44    17    18    1
    45    29    30    2
    46    29    28    1
    47    58    59    1
    48    61    60    2
    49    27    28    1
    50    27    19   am
    51   103   104    1
    52   103   102    1
    53    18    19    1
    54    18    21    1
    55    24    26   ar
    56    24    22   ar
    57   105   104    2
    58    28    31    1
    59    60    59    1
    60    26    25   ar
    61    31    32    1
    62    59    62    1
    63    19    20    2
    64    22    21    1
    65    22    23   ar
    66   102    95   am
    67    25    23   ar
    68    32    33    1
    69    32    34    1
    70    92    90    1
    71    64    63    2
    72    95    96    2
    73    95    94    1
    74    62    63    1
    75    90    91    1
    76    90    87    1
    77    63    65   am
    78    89    88    2
    79    94    93    1
    80    94    97    1
    81    88    93   am
    82    88    87    1
    83    87    86    1
    84    86    81   am
    85    97    98    1
    86    98    99    1
    87    81    80    1
    88    81    82    2
    89    83    80    1
    90    83    84    1
    91    80    79    1
    92    99   101   ar
    93    99   100   ar
    94    84    85    1
    95    79    85    1
    96    79    72   am
    97    73    72    2
    98    72    71    1
    99    69    68    2
   100    71    70    1
   101    71    74    1
   102    68    70   am
   103    68    67    1
   104    74    75    1
   105    67    66    1
   106    75    76    1
   107    76    77    1
   108    77    78    1
