@<TRIPOS>MOLECULE
tmp/3pyiB00.pdb
 79 77 0 0 0
SMALL
GASTEIGER

@<TRIPOS>ATOM
      1  N          9.1100  -23.7820   11.1130 N.3    18  PRO18      -0.2116
      2  CA        10.0020  -24.6720   10.3720 C.3    18  PRO18       0.1372
      3  C          9.9460  -26.0580   10.9940 C.2    18  PRO18       0.2244
      4  O          9.6750  -26.1630   12.1900 O.2    18  PRO18      -0.2868
      5  CB        11.3820  -24.0410   10.5810 C.3    18  PRO18       0.0268
      6  CG        11.1050  -22.6150   10.9500 C.3    18  PRO18       0.0207
      7  CD         9.8410  -22.6720   11.7490 C.3    18  PRO18       0.0892
      8  N          7.8840  -25.0060    6.3290 N.3    26  PHE26      -0.1241
      9  CA         6.9250  -24.8300    7.4190 C.3    26  PHE26       0.1605
     10  C          5.9760  -26.0210    7.5620 C.2    26  PHE26       0.2264
     11  O          5.5800  -26.6320    6.5710 O.2    26  PHE26      -0.2867
     12  CB         6.0540  -23.5870    7.1870 C.3    26  PHE26       0.0534
     13  CG         6.7940  -22.2700    7.2630 C.ar   26  PHE26      -0.0203
     14  CD1        7.4970  -21.9110    8.4020 C.ar   26  PHE26      -0.0042
     15  CD2        6.7300  -21.3660    6.2080 C.ar   26  PHE26      -0.0042
     16  CE1        8.1650  -20.6880    8.4740 C.ar   26  PHE26      -0.0003
     17  CE2        7.3870  -20.1450    6.2690 C.ar   26  PHE26      -0.0003
     18  CZ         8.1090  -19.8070    7.4030 C.ar   26  PHE26      -0.0000
     19  N          4.2280  -16.7100   12.5890 N.3   110  ILE110     -0.1231
     20  CA         5.3550  -17.5350   12.1690 C.3   110  ILE110      0.1692
     21  C          6.3970  -17.6090   13.2680 C.2   110  ILE110      0.2592
     22  O          6.9500  -16.5780   13.6770 O.2   110  ILE110     -0.2718
     23  CB         5.9900  -16.9710   10.8980 C.3   110  ILE110      0.0266
     24  CG1        4.8920  -16.6550    9.8800 C.3   110  ILE110      0.0019
     25  CG2        7.0260  -17.9420   10.3390 C.3   110  ILE110      0.0020
     26  CD1        5.3860  -15.8760    8.6770 C.3   110  ILE110      0.0001
     27  N          6.6440  -18.8210   13.7570 N.am  111  LEU111     -0.1966
     28  CA         7.6220  -19.0330   14.8140 C.3   111  LEU111      0.1728
     29  C          9.0300  -19.2100   14.2890 C.2   111  LEU111      0.2616
     30  O          9.2510  -19.7720   13.2110 O.2   111  LEU111     -0.2715
     31  CB         7.2590  -20.2660   15.6540 C.3   111  LEU111      0.0311
     32  CG         6.0940  -20.1500   16.6340 C.3   111  LEU111      0.0022
     33  CD1        5.8180  -21.5090   17.2900 C.3   111  LEU111      0.0001
     34  CD2        6.4040  -19.0970   17.6760 C.3   111  LEU111      0.0001
     35  N          9.9710  -18.7280   15.0900 N.am  112  ASP112     -0.1957
     36  CA        11.3800  -19.0890   15.0260 C.3   112  ASP112      0.1840
     37  C         11.4620  -20.6010   15.2400 C.2   112  ASP112      0.2621
     38  O         10.5580  -21.1800   15.8340 O.2   112  ASP112     -0.2715
     39  CB        12.1150  -18.3790   16.1760 C.3   112  ASP112      0.1450
     40  CG        13.4640  -17.8570   15.7690 C.2   112  ASP112      0.3671
     41  OD1       13.9860  -18.3060   14.7300 O.co2 112  ASP112     -0.2456
     42  OD2       14.0090  -16.9980   16.4880 O.co2 112  ASP112     -0.2456
     43  N         12.5280  -21.2400   14.7650 N.am  113  ALA113     -0.1977
     44  CA        12.7500  -22.6550   15.0820 C.3   113  ALA113      0.1597
     45  C         12.9400  -22.8720   16.5860 C.2   113  ALA113      0.2287
     46  O         12.4660  -23.8600   17.1320 O.2   113  ALA113     -0.2864
     47  CB        13.9350  -23.2070   14.3040 C.3   113  ALA113      0.0319
     48  N         11.4170  -15.9280   18.7460 N.3   117  PHE117     -0.1227
     49  CA        10.6910  -14.8570   18.0740 C.3   117  PHE117      0.1736
     50  C          9.5330  -15.4240   17.2920 C.2   117  PHE117      0.2596
     51  O          9.5480  -16.5880   16.8790 O.2   117  PHE117     -0.2718
     52  CB        11.6050  -14.0960   17.1140 C.3   117  PHE117      0.0547
     53  CG        12.7530  -13.4090   17.7900 C.ar  117  PHE117     -0.0202
     54  CD1       12.5540  -12.2250   18.4810 C.ar  117  PHE117     -0.0042
     55  CD2       14.0310  -13.9430   17.7370 C.ar  117  PHE117     -0.0042
     56  CE1       13.6060  -11.5850   19.1060 C.ar  117  PHE117     -0.0003
     57  CE2       15.0880  -13.3030   18.3640 C.ar  117  PHE117     -0.0003
     58  CZ        14.8730  -12.1230   19.0460 C.ar  117  PHE117     -0.0000
     59  N          8.5140  -14.6010   17.1050 N.am  118  CYS118     -0.1956
     60  CA         7.4860  -14.9060   16.1360 C.3   118  CYS118      0.1843
     61  C          7.0220  -13.6400   15.4310 C.2   118  CYS118      0.2626
     62  O          6.9820  -12.5600   16.0150 O.2   118  CYS118     -0.2714
     63  CB         6.3120  -15.6340   16.7770 C.3   118  CYS118      0.0997
     64  SG         5.1140  -14.5980   17.5480 S.3   118  CYS118     -0.0797
     65  N          6.6960  -13.7960   14.1610 N.am  119  SER119     -0.1950
     66  CA         6.1740  -12.7280   13.3370 C.3   119  SER119      0.1924
     67  C          4.6480  -12.7820   13.3860 C.2   119  SER119      0.2314
     68  O          4.0320  -13.7860   13.0450 O.2   119  SER119     -0.2863
     69  CB         6.6900  -12.8860   11.9030 C.3   119  SER119      0.2116
     70  OG         6.1530  -11.8990   11.0450 O.3   119  SER119     -0.2180
     71  N          7.4230   -8.2070   14.4570 N.3   137  LYS137     -0.1245
     72  CA         8.2490   -9.1930   15.1370 C.3   137  LYS137      0.1561
     73  C          8.0250   -9.0910   16.6400 C.2   137  LYS137      0.2260
     74  O          8.3130   -8.0560   17.2630 O.2   137  LYS137     -0.2867
     75  CB         9.7240   -8.9740   14.8140 C.3   137  LYS137      0.0271
     76  CG        10.6250  -10.1330   15.2280 C.3   137  LYS137      0.0035
     77  CD        12.0900   -9.7890   15.0080 C.3   137  LYS137      0.0206
     78  CE        12.9940  -10.9750   15.3180 C.3   137  LYS137      0.1093
     79  NZ        14.4420  -10.6190   15.2290 N.3   137  LYS137     -0.1314
@<TRIPOS>BOND
     1    15    17   ar
     2    15    13   ar
     3    17    18   ar
     4     8     9    1
     5    11    10    2
     6    12    13    1
     7    12     9    1
     8    13    14   ar
     9    18    16   ar
    10     9    10    1
    11    14    16   ar
    12    26    24    1
    13    24    23    1
    14    25    23    1
    15     2     5    1
    16     2     3    1
    17     2     1    1
    18     5     6    1
    19    23    20    1
    20     6     7    1
    21     3     4    2
    22    70    69    1
    23     1     7    1
    24    69    66    1
    25    20    19    1
    26    20    21    1
    27    68    67    2
    28    30    29    2
    29    21    22    2
    30    21    27   am
    31    66    67    1
    32    66    65    1
    33    27    28    1
    34    65    61   am
    35    29    28    1
    36    29    35   am
    37    47    44    1
    38    71    72    1
    39    41    40   ar
    40    43    44    1
    41    43    37   am
    42    75    72    1
    43    75    76    1
    44    28    31    1
    45    77    76    1
    46    77    78    1
    47    36    35    1
    48    36    37    1
    49    36    39    1
    50    44    45    1
    51    72    73    1
    52    79    78    1
    53    37    38    2
    54    61    62    2
    55    61    60    1
    56    31    32    1
    57    40    39    1
    58    40    42   ar
    59    60    63    1
    60    60    59    1
    61    45    46    2
    62    32    33    1
    63    32    34    1
    64    73    74    2
    65    63    64    1
    66    51    50    2
    67    59    50   am
    68    52    53    1
    69    52    49    1
    70    50    49    1
    71    55    53   ar
    72    55    57   ar
    73    53    54   ar
    74    49    48    1
    75    57    58   ar
    76    54    56   ar
    77    58    56   ar
