@<TRIPOS>MOLECULE
tmp/3pykA00.pdb
 151 149 0 0 0
SMALL
GASTEIGER

@<TRIPOS>ATOM
      1  N         29.0690    0.2620   10.0770 N.3     3  TRP3       -0.1241
      2  CA        28.5680   -0.7360   11.0150 C.3     3  TRP3        0.1605
      3  C         27.5530   -1.6160   10.3230 C.2     3  TRP3        0.2264
      4  O         26.9350   -1.2180    9.3450 O.2     3  TRP3       -0.2867
      5  CB        27.9160   -0.0590   12.2310 C.3     3  TRP3        0.0550
      6  CG        26.6200    0.6910   11.9320 C.ar    3  TRP3        0.0003
      7  CD1       26.4940    2.0040   11.5800 C.ar    3  TRP3        0.0946
      8  CD2       25.2830    0.1610   11.9880 C.ar    3  TRP3        0.0152
      9  NE1       25.1710    2.3210   11.3970 N.ar    3  TRP3       -0.2442
     10  CE2       24.4040    1.2130   11.6560 C.ar    3  TRP3        0.0810
     11  CE3       24.7460   -1.0930   12.3070 C.ar    3  TRP3        0.0012
     12  CZ2       23.0100    1.0450   11.6090 C.ar    3  TRP3        0.0191
     13  CZ3       23.3600   -1.2590   12.2640 C.ar    3  TRP3        0.0001
     14  CH2       22.5130   -0.1990   11.9170 C.ar    3  TRP3        0.0015
     15  N         12.9110    1.1510    5.9000 N.3    65  ASN65      -0.1240
     16  CA        12.1520    2.1190    6.6690 C.3    65  ASN65       0.1653
     17  C         10.9830    2.6260    5.8520 C.2    65  ASN65       0.2266
     18  O         11.1780    2.9980    4.6810 O.2    65  ASN65      -0.2867
     19  CB        13.0030    3.3660    6.9790 C.3    65  ASN65       0.1155
     20  CG        14.2510    3.0640    7.7550 C.2    65  ASN65       0.2627
     21  OD1       15.2710    3.7300    7.5810 O.2    65  ASN65      -0.2716
     22  ND2       14.1910    2.0800    8.6020 N.am   65  ASN65      -0.0877
     23  N          7.4730    9.1960   12.9190 N.3    89  ILE89      -0.1231
     24  CA         8.3760    9.5660   11.8370 C.3    89  ILE89       0.1692
     25  C          8.6620    8.3900   10.8950 C.2    89  ILE89       0.2591
     26  O          8.7480    8.5690    9.6880 O.2    89  ILE89      -0.2718
     27  CB         9.6870   10.2440   12.3590 C.3    89  ILE89       0.0266
     28  CG1       10.6210   10.5660   11.1980 C.3    89  ILE89       0.0019
     29  CG2       10.4170    9.3920   13.4180 C.3    89  ILE89       0.0020
     30  CD1       11.5670   11.6320   11.5280 C.3    89  ILE89       0.0001
     31  N          8.8050    7.1780   11.4190 N.am   90  GLN90      -0.1979
     32  CA         9.0570    6.0180   10.5600 C.3    90  GLN90       0.1601
     33  C          8.7930    4.7270   11.2960 C.2    90  GLN90       0.2287
     34  O          8.7000    4.7130   12.5370 O.2    90  GLN90      -0.2864
     35  CB        10.4910    6.0100   10.0200 C.3    90  GLN90       0.0394
     36  CG        11.5640    6.0370   11.0800 C.3    90  GLN90       0.0908
     37  CD        12.2840    4.7090   11.2660 C.2    90  GLN90       0.2608
     38  OE1       11.6710    3.6610   11.2880 O.2    90  GLN90      -0.2717
     39  NE2       13.5720    4.7730   11.5180 N.am   90  GLN90      -0.0878
     40  N         10.1290    0.3910   10.9780 N.3    92  HIS92      -0.1241
     41  CA        11.0280   -0.5950   10.3770 C.3    92  HIS92       0.1621
     42  C         10.9190   -1.8530   11.2200 C.2    92  HIS92       0.2264
     43  O         10.2690   -1.8680   12.2620 O.2    92  HIS92      -0.2867
     44  CB        12.4710   -0.0910   10.3850 C.3    92  HIS92       0.0745
     45  CG        12.9950    0.1510   11.7560 C.ar   92  HIS92       0.0817
     46  ND1       12.8490    1.3620   12.3950 N.ar   92  HIS92      -0.2268
     47  CD2       13.5450   -0.7000   12.6600 C.ar   92  HIS92       0.1154
     48  CE1       13.3310    1.2540   13.6240 C.ar   92  HIS92       0.1986
     49  NE2       13.7960    0.0320   13.7950 N.ar   92  HIS92      -0.2212
     50  N         13.1050   -5.6430   12.5560 N.3    94  HIS94      -0.1241
     51  CA        14.2910   -6.4700   12.7550 C.3    94  HIS94       0.1621
     52  C         13.8160   -7.9040   12.6370 C.2    94  HIS94       0.2264
     53  O         12.7570   -8.2270   13.1430 O.2    94  HIS94      -0.2867
     54  CB        14.8980   -6.2110   14.1470 C.3    94  HIS94       0.0745
     55  CG        15.2110   -4.7670   14.4020 C.ar   94  HIS94       0.0817
     56  ND1       16.4750   -4.2440   14.2550 N.ar   94  HIS94      -0.2268
     57  CD2       14.4110   -3.7330   14.7660 C.ar   94  HIS94       0.1154
     58  CE1       16.4490   -2.9580   14.5630 C.ar   94  HIS94       0.1986
     59  NE2       15.2050   -2.6130   14.8480 N.ar   94  HIS94      -0.2212
     60  N          9.2330   -1.7470   14.9430 N.3   117  HIS117     -0.1241
     61  CA         9.4580   -0.5230   15.7000 C.3   117  HIS117      0.1621
     62  C          8.8040    0.6310   14.9880 C.2   117  HIS117      0.2264
     63  O          9.1650    0.9750   13.8580 O.2   117  HIS117     -0.2867
     64  CB        10.9660   -0.2760   15.8440 C.3   117  HIS117      0.0745
     65  CG        11.6280   -1.2720   16.7410 C.ar  117  HIS117      0.0817
     66  ND1       12.9860   -1.5270   16.7160 N.ar  117  HIS117     -0.2268
     67  CD2       11.0970   -2.1000   17.6770 C.ar  117  HIS117      0.1154
     68  CE1       13.2530   -2.4630   17.6200 C.ar  117  HIS117      0.1986
     69  NE2       12.1330   -2.8160   18.2170 N.ar  117  HIS117     -0.2212
     70  N          8.6250    4.4730   15.3490 N.3   119  VAL119     -0.1245
     71  CA         9.4950    5.4600   15.9750 C.3   119  VAL119      0.1561
     72  C          8.7890    6.8150   16.0010 C.2   119  VAL119      0.2260
     73  O          8.3100    7.3020   14.9630 O.2   119  VAL119     -0.2867
     74  CB        10.8270    5.5800   15.1960 C.3   119  VAL119      0.0252
     75  CG1       11.7540    6.6050   15.8730 C.3   119  VAL119      0.0019
     76  CG2       11.5030    4.2120   15.0580 C.3   119  VAL119      0.0019
     77  N         13.0620   15.9350   15.0060 N.3   128  PHE128     -0.1241
     78  CA        13.6430   14.6720   15.4050 C.3   128  PHE128      0.1605
     79  C         15.0970   14.8250   15.8470 C.2   128  PHE128      0.2264
     80  O         15.5070   14.2520   16.8590 O.2   128  PHE128     -0.2867
     81  CB        13.5410   13.6810   14.2600 C.3   128  PHE128      0.0534
     82  CG        14.1100   12.3390   14.5740 C.ar  128  PHE128     -0.0203
     83  CD1       13.2880   11.3300   15.0310 C.ar  128  PHE128     -0.0042
     84  CD2       15.4640   12.0810   14.4140 C.ar  128  PHE128     -0.0042
     85  CE1       13.7910   10.0910   15.3160 C.ar  128  PHE128     -0.0003
     86  CE2       15.9780   10.8350   14.7010 C.ar  128  PHE128     -0.0003
     87  CZ        15.1380    9.8430   15.1610 C.ar  128  PHE128     -0.0000
     88  N         16.6220   13.7680   19.6900 N.3   132  VAL132     -0.1245
     89  CA        17.6500   12.7790   20.0500 C.3   132  VAL132      0.1561
     90  C         18.8290   13.3880   20.8140 C.2   132  VAL132      0.2260
     91  O         19.8560   12.7330   21.0210 O.2   132  VAL132     -0.2867
     92  CB        18.1300   11.9630   18.8410 C.3   132  VAL132      0.0252
     93  CG1       16.9350   11.2540   18.1830 C.3   132  VAL132      0.0019
     94  CG2       18.9040   12.8020   17.8540 C.3   132  VAL132      0.0019
     95  N          9.3890    4.6300   21.2130 N.3   140  VAL140     -0.1245
     96  CA         9.3270    3.5890   20.1990 C.3   140  VAL140      0.1561
     97  C          8.3080    2.5580   20.6780 C.2   140  VAL140      0.2260
     98  O          8.4100    2.0210   21.7830 O.2   140  VAL140     -0.2867
     99  CB        10.6860    2.9460   19.8640 C.3   140  VAL140      0.0252
    100  CG1       10.5060    1.9300   18.7180 C.3   140  VAL140      0.0019
    101  CG2       11.6790    4.0110   19.4030 C.3   140  VAL140      0.0019
    102  N         18.1750    3.8950   21.2900 N.3   195  LEU195     -0.1231
    103  CA        18.1570    3.3590   19.9460 C.3   195  LEU195      0.1693
    104  C         18.8990    2.0240   19.9780 C.2   195  LEU195      0.2593
    105  O         19.9190    1.8690   20.6780 O.2   195  LEU195     -0.2718
    106  CB        18.8930    4.2980   18.9870 C.3   195  LEU195      0.0284
    107  CG        18.3460    5.7090   18.7610 C.3   195  LEU195      0.0019
    108  CD1       19.2270    6.3920   17.6760 C.3   195  LEU195      0.0001
    109  CD2       16.8460    5.7650   18.4780 C.3   195  LEU195      0.0001
    110  N         18.4370    1.0590   19.1870 N.am  196  THR196     -0.1939
    111  CA        19.0970   -0.2540   19.1490 C.3   196  THR196      0.2028
    112  C         20.0860   -0.3920   17.9940 C.2   196  THR196      0.2643
    113  O         20.6850   -1.4460   17.8340 O.2   196  THR196     -0.2714
    114  CB        18.0750   -1.3910   19.0270 C.3   196  THR196      0.1808
    115  OG1       17.4880   -1.3310   17.7360 O.3   196  THR196     -0.2208
    116  CG2       17.0060   -1.3160   20.0880 C.3   196  THR196      0.0379
    117  N         20.2410    0.6630   17.1880 N.am  197  THR197     -0.1937
    118  CA        21.2790    0.7230   16.1670 C.3   197  THR197      0.2013
    119  C         22.1440    1.9420   16.4540 C.2   197  THR197      0.2484
    120  O         21.6620    2.9100   17.0760 O.2   197  THR197     -0.2729
    121  CB        20.7170    0.9150   14.7430 C.3   197  THR197      0.1807
    122  OG1       20.0200    2.1590   14.6360 O.3   197  THR197     -0.2208
    123  CG2       19.7770   -0.1980   14.3740 C.3   197  THR197      0.0379
    124  N         23.4140    1.9080   16.0230 N.am  198  PRO198     -0.2715
    125  CA        24.1840    3.1570   16.0170 C.3   198  PRO198      0.1521
    126  C         23.3490    4.3140   15.4550 C.2   198  PRO198      0.2440
    127  O         22.6560    4.1500   14.4420 O.2   198  PRO198     -0.2731
    128  CB        25.3870    2.8150   15.1440 C.3   198  PRO198      0.0310
    129  CG        25.5800    1.3450   15.3950 C.3   198  PRO198      0.0237
    130  CD        24.1800    0.7970   15.4340 C.3   198  PRO198      0.0939
    131  N         23.4000    5.4820   16.1100 N.am  199  PRO199     -0.2727
    132  CA        24.3240    5.8920   17.1740 C.3   199  PRO199      0.1402
    133  C         23.9430    5.5140   18.6330 C.2   199  PRO199      0.2269
    134  O         24.6030    5.9910   19.5490 O.2   199  PRO199     -0.2865
    135  CB        24.3980    7.4110   16.9690 C.3   199  PRO199      0.0296
    136  CG        23.0450    7.7370   16.4490 C.3   199  PRO199      0.0237
    137  CD        22.6800    6.6310   15.5430 C.3   199  PRO199      0.0939
    138  N         10.6870    3.1360   25.7490 N.3   206  TRP206     -0.1241
    139  CA        10.2280    1.9390   25.0640 C.3   206  TRP206      0.1605
    140  C          8.8540    1.5390   25.5620 C.2   206  TRP206      0.2264
    141  O          8.6090    1.5010   26.7650 O.2   206  TRP206     -0.2867
    142  CB        11.2350    0.7830   25.2640 C.3   206  TRP206      0.0550
    143  CG        12.3390    0.8990   24.2720 C.ar  206  TRP206      0.0003
    144  CD1       13.5760    1.4360   24.4660 C.ar  206  TRP206      0.0946
    145  CD2       12.2990    0.4650   22.9200 C.ar  206  TRP206      0.0152
    146  NE1       14.2890    1.4010   23.3010 N.ar  206  TRP206     -0.2442
    147  CE2       13.5250    0.8040   22.3340 C.ar  206  TRP206      0.0810
    148  CE3       11.3390   -0.1770   22.1430 C.ar  206  TRP206      0.0012
    149  CZ2       13.8120    0.5370   20.9960 C.ar  206  TRP206      0.0191
    150  CZ3       11.6260   -0.4560   20.8190 C.ar  206  TRP206      0.0001
    151  CH2       12.8490   -0.0930   20.2590 C.ar  206  TRP206      0.0015
@<TRIPOS>BOND
     1    18    17    2
     2    17    16    1
     3    15    16    1
     4    16    19    1
     5    19    20    1
     6    21    20    2
     7    20    22   am
     8     4     3    2
     9    26    25    2
    10    35    32    1
    11    35    36    1
    12     1     2    1
    13     3     2    1
    14    41    44    1
    15    41    40    1
    16    41    42    1
    17    44    45    1
    18    32    33    1
    19    32    31    1
    20    25    31   am
    21    25    24    1
    22     2     5    1
    23    36    37    1
    24    28    30    1
    25    28    27    1
    26    42    43    2
    27    37    38    2
    28    37    39   am
    29    33    34    2
    30     9     7   ar
    31     9    10   ar
    32     7     6   ar
    33    12    10   ar
    34    12    14   ar
    35    10     8   ar
    36    45    46   ar
    37    45    47   ar
    38    24    27    1
    39    24    23    1
    40    14    13   ar
    41     6     8   ar
    42     6     5    1
    43     8    11   ar
    44    13    11   ar
    45    27    29    1
    46    46    48   ar
    47    50    51    1
    48    52    51    1
    49    52    53    2
    50    47    49   ar
    51    51    54    1
    52    48    49   ar
    53    63    62    2
    54    54    55    1
    55    56    55   ar
    56    56    58   ar
    57    81    82    1
    58    81    78    1
    59   123   121    1
    60    55    57   ar
    61    84    82   ar
    62    84    86   ar
    63   127   126    2
    64    58    59   ar
    65    82    83   ar
    66   122   121    1
    67    86    87   ar
    68   121   118    1
    69    57    59   ar
    70    60    61    1
    71    73    72    2
    72    62    61    1
    73    77    78    1
    74    83    85   ar
    75    76    74    1
    76   128   129    1
    77   128   125    1
    78    87    85   ar
    79    74    75    1
    80    74    71    1
    81    70    71    1
    82   129   130    1
    83    78    79    1
    84   130   124    1
    85   126   125    1
    86   126   131   am
    87   137   131    1
    88   137   136    1
    89    61    64    1
    90    64    65    1
    91    79    80    2
    92    71    72    1
    93   125   124    1
    94   124   119   am
    95   131   132    1
    96   118   119    1
    97   118   117    1
    98   136   135    1
    99   119   120    2
   100    66    65   ar
   101    66    68   ar
   102    65    67   ar
   103   135   132    1
   104   132   133    1
   105   117   112   am
   106    68    69   ar
   107   108   107    1
   108    67    69   ar
   109   115   114    1
   110   113   112    2
   111    94    92    1
   112   112   111    1
   113    93    92    1
   114   109   107    1
   115   133   134    2
   116   100    99    1
   117   107   106    1
   118    92    89    1
   119   106   103    1
   120   114   111    1
   121   114   116    1
   122   111   110    1
   123   110   104   am
   124   101    99    1
   125    88    89    1
   126    99    96    1
   127   103   104    1
   128   103   102    1
   129   104   105    2
   130    89    90    1
   131    96    97    1
   132    96    95    1
   133   151   150   ar
   134   151   149   ar
   135    97    98    2
   136    90    91    2
   137   150   148   ar
   138   149   147   ar
   139   148   145   ar
   140   147   145   ar
   141   147   146   ar
   142   145   143   ar
   143   146   144   ar
   144   143   144   ar
   145   143   142    1
   146   139   142    1
   147   139   140    1
   148   139   138    1
   149   140   141    2
