@<TRIPOS>MOLECULE
tmp/3pylC00.pdb
 90 82 0 0 0
SMALL
GASTEIGER

@<TRIPOS>ATOM
      1  N         35.7870  -15.1340    6.1480 N.3    98  ARG98      -0.1245
      2  CA        35.9310  -13.9760    7.0400 C.3    98  ARG98       0.1563
      3  C         37.1570  -13.1040    6.7690 C.2    98  ARG98       0.2260
      4  O         37.0630  -11.8740    6.8030 O.2    98  ARG98      -0.2867
      5  CB        35.8790  -14.3950    8.5130 C.3    98  ARG98       0.0307
      6  CG        34.4710  -14.6590    9.0150 C.3    98  ARG98       0.0489
      7  CD        34.4440  -14.8770   10.5110 C.3    98  ARG98       0.2205
      8  NE        33.2380  -15.5930   10.9300 N.pl3  98  ARG98      -0.0865
      9  CZ        33.1650  -16.4030   11.9830 C.cat  98  ARG98       0.5346
     10  NH1       34.2300  -16.6180   12.7460 N.pl3  98  ARG98       0.1354
     11  NH2       32.0240  -17.0120   12.2630 N.pl3  98  ARG98       0.1354
     12  N         32.4120  -13.9420   14.1580 N.3   126  ASN126     -0.1225
     13  CA        32.3090  -14.8750   15.2820 C.3   126  ASN126      0.1785
     14  C         31.4600  -14.3170   16.4340 C.2   126  ASN126      0.2597
     15  O         31.4690  -13.1090   16.6740 O.2   126  ASN126     -0.2718
     16  CB        33.7100  -15.2070   15.7960 C.3   126  ASN126      0.1169
     17  CG        33.7670  -16.5420   16.5030 C.2   126  ASN126      0.2627
     18  OD1       34.2330  -16.6230   17.6370 O.2   126  ASN126     -0.2716
     19  ND2       33.2820  -17.5980   15.8420 N.am  126  ASN126     -0.0877
     20  N         30.7520  -15.1950   17.1510 N.am  127  CYS127     -0.1970
     21  CA        29.8120  -14.7730   18.2070 C.3   127  CYS127      0.1712
     22  C         30.4290  -13.8850   19.2860 C.2   127  CYS127      0.2296
     23  O         29.8920  -12.8060   19.5990 O.2   127  CYS127     -0.2864
     24  CB        29.0540  -15.9660   18.8350 C.3   127  CYS127      0.0983
     25  SG        30.0120  -17.4770   19.1420 S.3   127  CYS127     -0.0798
     26  N         32.1770  -18.2460   27.9450 N.3   154  GLN154     -0.1245
     27  CA        31.3710  -18.6600   26.7860 C.3   154  GLN154      0.1566
     28  C         30.4330  -19.8520   27.0100 C.2   154  GLN154      0.2260
     29  O         30.7830  -20.8230   27.6850 O.2   154  GLN154     -0.2867
     30  CB        32.2530  -18.8490   25.5430 C.3   154  GLN154      0.0367
     31  CG        32.7990  -17.5050   25.0220 C.3   154  GLN154      0.0905
     32  CD        33.7380  -17.6330   23.8420 C.2   154  GLN154      0.2608
     33  OE1       34.9210  -17.2690   23.9370 O.2   154  GLN154     -0.2717
     34  NE2       33.2220  -18.1340   22.7130 N.am  154  GLN154     -0.0878
     35  N         27.4990  -22.4880   21.6140 N.3   158  GLY158     -0.1210
     36  CA        28.3960  -22.0420   20.5510 C.3   158  GLY158      0.1956
     37  C         29.0460  -23.1970   19.8100 C.2   158  GLY158      0.2611
     38  O         29.3330  -23.0950   18.6110 O.2   158  GLY158     -0.2717
     39  N         29.2670  -24.3050   20.5140 N.am  159  ALA159     -0.1979
     40  CA        29.8930  -25.4760   19.9070 C.3   159  ALA159      0.1597
     41  C         28.8670  -26.4760   19.3400 C.2   159  ALA159      0.2287
     42  O         29.2410  -27.5670   18.9100 O.2   159  ALA159     -0.2864
     43  CB        30.8430  -26.1500   20.8930 C.3   159  ALA159      0.0319
     44  N         38.8570  -22.8080   23.4120 N.3   208  ILE208     -0.1245
     45  CA        37.7830  -22.8200   22.4310 C.3   208  ILE208      0.1561
     46  C         38.4710  -22.8520   21.0740 C.2   208  ILE208      0.2260
     47  O         39.4340  -22.1120   20.8480 O.2   208  ILE208     -0.2867
     48  CB        36.8310  -21.6150   22.6060 C.3   208  ILE208      0.0252
     49  CG1       36.1060  -21.7420   23.9570 C.3   208  ILE208      0.0019
     50  CG2       35.8320  -21.5380   21.4520 C.3   208  ILE208      0.0019
     51  CD1       35.4140  -20.5110   24.4380 C.3   208  ILE208      0.0001
     52  N         40.0080  -19.1970   18.3240 N.3   219  GLU219     -0.1245
     53  CA        38.9420  -18.3520   18.8450 C.3   219  GLU219      0.1567
     54  C         39.4970  -17.0120   19.3450 C.2   219  GLU219      0.2260
     55  O         38.9300  -15.9460   19.0720 O.2   219  GLU219     -0.2867
     56  CB        38.1980  -19.0670   19.9790 C.3   219  GLU219      0.0388
     57  CG        37.0030  -18.2760   20.5350 C.3   219  GLU219      0.1160
     58  CD        35.7220  -18.4870   19.7390 C.2   219  GLU219      0.3649
     59  OE1       35.7800  -19.0960   18.6410 O.co2 219  GLU219     -0.2457
     60  OE2       34.6490  -18.0480   20.2150 O.co2 219  GLU219     -0.2457
     61  N         40.7270  -15.0520   16.3360 N.3   222  LYS222     -0.1245
     62  CA        39.5830  -14.4940   15.6190 C.3   222  LYS222      0.1561
     63  C         39.1080  -13.2010   16.2630 C.2   222  LYS222      0.2260
     64  O         38.7870  -12.2490   15.5700 O.2   222  LYS222     -0.2867
     65  CB        38.4240  -15.4900   15.5220 C.3   222  LYS222      0.0271
     66  CG        38.5960  -16.5210   14.4140 C.3   222  LYS222      0.0035
     67  CD        37.4870  -17.5730   14.4760 C.3   222  LYS222      0.0206
     68  CE        37.7880  -18.7140   13.5300 C.3   222  LYS222      0.1093
     69  NZ        36.8240  -19.8440   13.7050 N.3   222  LYS222     -0.1314
     70  N         35.4410  -21.6640   28.1840 N.3   244  ARG244     -0.1245
     71  CA        34.1060  -22.2510   28.1780 C.3   244  ARG244      0.1563
     72  C         33.6880  -22.5320   29.6060 C.2   244  ARG244      0.2260
     73  O         34.4670  -23.0730   30.3890 O.2   244  ARG244     -0.2867
     74  CB        34.0660  -23.5490   27.3610 C.3   244  ARG244      0.0307
     75  CG        32.6510  -24.0640   27.0780 C.3   244  ARG244      0.0489
     76  CD        32.0460  -23.4140   25.8430 C.3   244  ARG244      0.2205
     77  NE        32.7940  -23.7440   24.6290 N.pl3 244  ARG244     -0.0865
     78  CZ        32.5760  -23.1850   23.4440 C.cat 244  ARG244      0.5346
     79  NH1       31.6300  -22.2670   23.3030 N.pl3 244  ARG244      0.1354
     80  NH2       33.3110  -23.5500   22.3960 N.pl3 244  ARG244      0.1354
     81  N         26.8390  -15.6580   25.8770 N.3   251  HIS251     -0.1241
     82  CA        28.2290  -15.3560   26.2150 C.3   251  HIS251      0.1621
     83  C         28.3050  -14.1360   27.1280 C.2   251  HIS251      0.2264
     84  O         27.5390  -13.1760   26.9550 O.2   251  HIS251     -0.2867
     85  CB        29.0500  -15.0550   24.9500 C.3   251  HIS251      0.0745
     86  CG        29.2250  -16.2230   24.0250 C.ar  251  HIS251      0.0817
     87  ND1       29.1200  -17.5340   24.4390 N.ar  251  HIS251     -0.2268
     88  CD2       29.5460  -16.2710   22.7080 C.ar  251  HIS251      0.1154
     89  CE1       29.3480  -18.3390   23.4150 C.ar  251  HIS251      0.1986
     90  NE2       29.6130  -17.5980   22.3540 N.ar  251  HIS251     -0.2212
@<TRIPOS>BOND
     1     1     2    1
     2     3     4    2
     3     3     2    1
     4     2     5    1
     5     5     6    1
     6     6     7    1
     7     7     8    1
     8     8     9    2
     9     9    11    1
    10     9    10    1
    11    68    69    1
    12    68    67    1
    13    12    13    1
    14    66    67    1
    15    66    65    1
    16    13    16    1
    17    13    14    1
    18    65    62    1
    19    64    63    2
    20    62    63    1
    21    62    61    1
    22    16    17    1
    23    19    17   am
    24    14    15    2
    25    14    20   am
    26    17    18    2
    27    20    21    1
    28    21    24    1
    29    21    22    1
    30    52    53    1
    31    38    37    2
    32    59    58   ar
    33    24    25    1
    34    53    54    1
    35    53    56    1
    36    42    41    2
    37    55    54    2
    38    22    23    2
    39    41    40    1
    40    58    60   ar
    41    58    57    1
    42    37    39   am
    43    37    36    1
    44    40    39    1
    45    40    43    1
    46    56    57    1
    47    36    35    1
    48    47    46    2
    49    46    45    1
    50    50    48    1
    51    90    88   ar
    52    90    89   ar
    53    80    78    1
    54    45    48    1
    55    45    44    1
    56    48    49    1
    57    88    86   ar
    58    34    32   am
    59    79    78    1
    60    89    87   ar
    61    78    77    2
    62    32    33    2
    63    32    31    1
    64    49    51    1
    65    86    87   ar
    66    86    85    1
    67    77    76    1
    68    85    82    1
    69    31    30    1
    70    30    27    1
    71    76    75    1
    72    81    82    1
    73    82    83    1
    74    27    28    1
    75    27    26    1
    76    84    83    2
    77    28    29    2
    78    75    74    1
    79    74    71    1
    80    71    70    1
    81    71    72    1
    82    72    73    2
