@<TRIPOS>MOLECULE
tmp/3pyyA01.pdb
 131 124 0 0 0
SMALL
GASTEIGER

@<TRIPOS>ATOM
      1  N         14.5620   12.6960  -32.1330 N.3   102  ALA102     -0.1231
      2  CA        15.5090   11.7380  -32.7090 C.3   102  ALA102      0.1694
      3  C         16.8930   11.7660  -32.0830 C.2   102  ALA102      0.2591
      4  O         17.5060   10.7200  -31.8960 O.2   102  ALA102     -0.2718
      5  CB        15.6120   11.9280  -34.2430 C.3   102  ALA102      0.0304
      6  N         17.4170   12.9530  -31.7880 N.am  103  VAL103     -0.1980
      7  CA        18.7360   13.0190  -31.1680 C.3   103  VAL103      0.1595
      8  C         18.7200   12.4280  -29.7540 C.2   103  VAL103      0.2287
      9  O         19.6860   11.7950  -29.3320 O.2   103  VAL103     -0.2864
     10  CB        19.3220   14.4600  -31.1480 C.3   103  VAL103      0.0276
     11  CG1       18.3760   15.4090  -30.4650 C.3   103  VAL103      0.0022
     12  CG2       20.6730   14.4760  -30.4540 C.3   103  VAL103      0.0022
     13  N         16.7410    9.9570  -28.8490 N.3   105  LEU105     -0.1231
     14  CA        16.6810    8.5020  -29.0350 C.3   105  LEU105      0.1693
     15  C         18.0720    7.9520  -29.3410 C.2   105  LEU105      0.2591
     16  O         18.4700    6.9190  -28.7970 O.2   105  LEU105     -0.2718
     17  CB        15.7010    8.1300  -30.1430 C.3   105  LEU105      0.0284
     18  CG        14.2400    8.5720  -29.9830 C.3   105  LEU105      0.0019
     19  CD1       13.4130    8.0160  -31.1490 C.3   105  LEU105      0.0001
     20  CD2       13.6560    8.1060  -28.6480 C.3   105  LEU105      0.0001
     21  N         18.8090    8.6290  -30.2240 N.am  106  LEU106     -0.1980
     22  CA        20.1950    8.2230  -30.5060 C.3   106  LEU106      0.1596
     23  C         21.0520    8.2230  -29.2450 C.2   106  LEU106      0.2287
     24  O         21.9020    7.3410  -29.0390 O.2   106  LEU106     -0.2864
     25  CB        20.8480    9.1560  -31.5430 C.3   106  LEU106      0.0297
     26  CG        20.4110    9.0160  -33.0040 C.3   106  LEU106      0.0022
     27  CD1       21.0090   10.1420  -33.8400 C.3   106  LEU106      0.0001
     28  CD2       20.8340    7.6400  -33.5470 C.3   106  LEU106      0.0001
     29  N         20.1940    5.1570  -27.1080 N.3   109  ALA109     -0.1245
     30  CA        20.7400    3.9360  -27.6980 C.3   109  ALA109      0.1562
     31  C         22.2390    3.8590  -27.4460 C.2   109  ALA109      0.2260
     32  O         22.7890    2.7890  -27.1600 O.2   109  ALA109     -0.2867
     33  CB        20.4550    3.8970  -29.2150 C.3   109  ALA109      0.0290
     34  N         16.4790   -1.6480  -29.9450 N.3   194  LEU194     -0.1245
     35  CA        16.5260   -0.5580  -30.9400 C.3   194  LEU194      0.1561
     36  C         15.1640   -0.3290  -31.6200 C.2   194  LEU194      0.2260
     37  O         14.7410    0.8020  -31.8650 O.2   194  LEU194     -0.2867
     38  CB        17.5840   -0.8460  -32.0150 C.3   194  LEU194      0.0270
     39  CG        19.0580   -0.7710  -31.5910 C.3   194  LEU194      0.0019
     40  CD1       19.9410   -0.9370  -32.8550 C.3   194  LEU194      0.0001
     41  CD2       19.3470    0.5610  -30.8950 C.3   194  LEU194      0.0001
     42  N         12.8390    1.3560  -29.2480 N.3   197  ILE197     -0.1231
     43  CA        13.1550    2.7740  -29.1810 C.3   197  ILE197      0.1692
     44  C         12.6370    3.5000  -30.4220 C.2   197  ILE197      0.2591
     45  O         12.0050    4.5560  -30.3210 O.2   197  ILE197     -0.2718
     46  CB        14.6840    3.0090  -29.0180 C.3   197  ILE197      0.0266
     47  CG1       15.1510    2.5050  -27.6370 C.3   197  ILE197      0.0019
     48  CG2       15.0270    4.4910  -29.1780 C.3   197  ILE197      0.0020
     49  CD1       16.6470    2.5920  -27.4560 C.3   197  ILE197      0.0001
     50  N         12.9130    2.9290  -31.5970 N.am  198  ALA198     -0.1980
     51  CA        12.5150    3.5150  -32.8780 C.3   198  ALA198      0.1597
     52  C         11.0120    3.7770  -32.9720 C.2   198  ALA198      0.2287
     53  O         10.5880    4.7380  -33.6030 O.2   198  ALA198     -0.2864
     54  CB        12.9420    2.5940  -34.0320 C.3   198  ALA198      0.0319
     55  N          8.9760    4.1980  -30.3710 N.3   200  TYR200     -0.1241
     56  CA         8.4980    4.7530  -29.0990 C.3   200  TYR200      0.1605
     57  C          7.7100    3.7290  -28.2820 C.2   200  TYR200      0.2264
     58  O          6.6530    4.0320  -27.7240 O.2   200  TYR200     -0.2867
     59  CB         7.6890    6.0370  -29.3270 C.3   200  TYR200      0.0534
     60  CG         8.5330    7.2390  -29.7120 C.ar  200  TYR200     -0.0201
     61  CD1        9.0610    8.0820  -28.7420 C.ar  200  TYR200     -0.0009
     62  CD2        8.7910    7.5360  -31.0440 C.ar  200  TYR200     -0.0009
     63  CE1        9.8260    9.1840  -29.0860 C.ar  200  TYR200      0.0417
     64  CE2        9.5550    8.6380  -31.3990 C.ar  200  TYR200      0.0417
     65  CZ        10.0740    9.4550  -30.4130 C.ar  200  TYR200      0.1957
     66  OH        10.8420   10.5490  -30.7560 O.3   200  TYR200     -0.2866
     67  N         11.3550    0.5840  -39.2360 N.3   226  PRO226     -0.2102
     68  CA        10.2350    1.3600  -38.6950 C.3   226  PRO226      0.1504
     69  C         10.1070    2.7190  -39.3670 C.2   226  PRO226      0.2576
     70  O         11.0980    3.2800  -39.8100 O.2   226  PRO226     -0.2718
     71  CB        10.6270    1.5610  -37.2200 C.3   226  PRO226      0.0282
     72  CG        11.5760    0.4910  -36.9220 C.3   226  PRO226      0.0208
     73  CD        12.3380    0.2380  -38.1920 C.3   226  PRO226      0.0893
     74  N          8.8940    3.2540  -39.4190 N.am  227  GLU227     -0.1966
     75  CA         8.6930    4.5830  -39.9730 C.3   227  GLU227      0.1733
     76  C          9.6200    5.5920  -39.3060 C.2   227  GLU227      0.2617
     77  O          9.7180    5.6380  -38.0680 O.2   227  GLU227     -0.2715
     78  CB         7.2350    5.0250  -39.8100 C.3   227  GLU227      0.0429
     79  CG         6.9420    6.3990  -40.4230 C.3   227  GLU227      0.1163
     80  CD         5.4990    6.8540  -40.2170 C.2   227  GLU227      0.3649
     81  OE1        4.7230    6.1290  -39.5570 O.co2 227  GLU227     -0.2457
     82  OE2        5.1420    7.9450  -40.7150 O.co2 227  GLU227     -0.2457
     83  N         10.2930    6.3910  -40.1290 N.am  228  GLY228     -0.1940
     84  CA        11.1870    7.4310  -39.6480 C.3   228  GLY228      0.2014
     85  C         12.5800    6.9610  -39.2580 C.2   228  GLY228      0.2639
     86  O         13.4430    7.7630  -38.9140 O.2   228  GLY228     -0.2714
     87  N         12.8180    5.6560  -39.3120 N.am  229  CYS229     -0.1954
     88  CA        14.1100    5.1200  -38.8900 C.3   229  CYS229      0.1828
     89  C         15.1930    5.3550  -39.9530 C.2   229  CYS229      0.2467
     90  O         14.9900    5.0510  -41.1320 O.2   229  CYS229     -0.2730
     91  CB        13.9820    3.6180  -38.5710 C.3   229  CYS229      0.0996
     92  SG        15.4850    2.8700  -37.9250 S.3   229  CYS229     -0.0797
     93  N         16.3510    5.8970  -39.5370 N.am  230  PRO230     -0.2726
     94  CA        17.4890    6.0770  -40.4520 C.3   230  PRO230      0.1402
     95  C         18.0170    4.7280  -40.9470 C.2   230  PRO230      0.2269
     96  O         18.0240    3.7530  -40.1960 O.2   230  PRO230     -0.2865
     97  CB        18.5600    6.7310  -39.5730 C.3   230  PRO230      0.0296
     98  CG        17.8410    7.2510  -38.3660 C.3   230  PRO230      0.0237
     99  CD        16.6100    6.4320  -38.1880 C.3   230  PRO230      0.0939
    100  N         20.6540    3.1660  -38.7130 N.3   233  VAL233     -0.1245
    101  CA        20.1490    2.5440  -37.4890 C.3   233  VAL233      0.1561
    102  C         19.5460    1.1830  -37.8200 C.2   233  VAL233      0.2260
    103  O         19.7470    0.1960  -37.1040 O.2   233  VAL233     -0.2867
    104  CB        19.1130    3.4520  -36.7860 C.3   233  VAL233      0.0252
    105  CG1       18.4470    2.7230  -35.6320 C.3   233  VAL233      0.0019
    106  CG2       19.8000    4.7160  -36.2850 C.3   233  VAL233      0.0019
    107  N         27.2010    4.1040  -32.7960 N.3   258  PHE258     -0.1241
    108  CA        26.2490    5.0740  -32.2610 C.3   258  PHE258      0.1605
    109  C         26.9190    6.3730  -31.8400 C.2   258  PHE258      0.2264
    110  O         26.3730    7.4540  -32.0540 O.2   258  PHE258     -0.2867
    111  CB        25.4110    4.4750  -31.1170 C.3   258  PHE258      0.0534
    112  CG        24.1620    3.7990  -31.5970 C.ar  258  PHE258     -0.0203
    113  CD1       23.1010    4.5490  -32.0690 C.ar  258  PHE258     -0.0042
    114  CD2       24.0580    2.4220  -31.6100 C.ar  258  PHE258     -0.0042
    115  CE1       21.9450    3.9450  -32.5340 C.ar  258  PHE258     -0.0003
    116  CE2       22.9070    1.8040  -32.0810 C.ar  258  PHE258     -0.0003
    117  CZ        21.8480    2.5690  -32.5430 C.ar  258  PHE258     -0.0000
    118  N         27.1280    8.4010  -35.0000 N.3   261  MET261     -0.1245
    119  CA        25.8360    8.9570  -35.3890 C.3   261  MET261      0.1570
    120  C         25.3840   10.0670  -34.4480 C.2   261  MET261      0.2261
    121  O         24.8430   11.0810  -34.8840 O.2   261  MET261     -0.2867
    122  CB        24.7660    7.8680  -35.4220 C.3   261  MET261      0.0387
    123  CG        25.0670    6.7330  -36.3890 C.3   261  MET261      0.0595
    124  SD        23.6630    5.6120  -36.4770 S.3   261  MET261     -0.1393
    125  CE        22.4170    6.7450  -37.0780 C.3   261  MET261      0.0692
    126  N         24.8140   13.9860  -35.4750 N.3   265  SER265     -0.1217
    127  CA        23.4860   14.5670  -35.3290 C.3   265  SER265      0.1889
    128  C         23.4690   15.6610  -34.2660 C.2   265  SER265      0.2288
    129  O         22.5990   16.5280  -34.2810 O.2   265  SER265     -0.2866
    130  CB        22.4650   13.4830  -34.9870 C.3   265  SER265      0.2089
    131  OG        22.3670   12.5380  -36.0420 O.3   265  SER265     -0.2183
@<TRIPOS>BOND
     1    90    89    2
     2    95    94    1
     3    95    96    2
     4    82    80   ar
     5    94    97    1
     6    94    93    1
     7    79    80    1
     8    79    78    1
     9    80    81   ar
    10    83    84    1
    11    83    76   am
    12    75    78    1
    13    75    74    1
    14    75    76    1
    15    89    93   am
    16    89    88    1
    17    70    69    2
    18    84    85    1
    19    97    98    1
    20    93    99    1
    21    74    69   am
    22    69    68    1
    23    87    85   am
    24    87    88    1
    25    76    77    2
    26    85    86    2
    27    67    68    1
    28    67    73    1
    29    88    91    1
    30   100   101    1
    31    68    71    1
    32    91    92    1
    33    98    99    1
    34    73    72    1
    35   102   101    1
    36   102   103    2
    37   101   104    1
    38    71    72    1
    39   125   124    1
    40   104   106    1
    41   104   105    1
    42   124   123    1
    43   123   122    1
    44   131   130    1
    45   126   127    1
    46   122   119    1
    47   119   118    1
    48   119   120    1
    49   127   130    1
    50   127   128    1
    51   121   120    2
    52   129   128    2
    53     5     2    1
    54    54    51    1
    55    27    26    1
    56    53    52    2
    57    28    26    1
    58    26    25    1
    59    52    51    1
    60    51    50    1
    61    40    39    1
    62   107   108    1
    63     2     1    1
    64     2     3    1
    65   117   115   ar
    66   117   116   ar
    67   115   113   ar
    68   108   109    1
    69   108   111    1
    70     3     4    2
    71     3     6   am
    72   116   114   ar
    73   113   112   ar
    74   110   109    2
    75    38    39    1
    76    38    35    1
    77    37    36    2
    78     6     7    1
    79    36    35    1
    80   114   112   ar
    81   112   111    1
    82    50    44   am
    83    39    41    1
    84    25    22    1
    85    64    62   ar
    86    64    65   ar
    87     7    10    1
    88     7     8    1
    89    19    18    1
    90    10    11    1
    91    10    12    1
    92    62    60   ar
    93    35    34    1
    94    66    65    1
    95    22    21    1
    96    22    23    1
    97    44    45    2
    98    44    43    1
    99    65    63   ar
   100    55    56    1
   101    21    15   am
   102    17    18    1
   103    17    14    1
   104    18    20    1
   105     8     9    2
   106    60    59    1
   107    60    61   ar
   108    15    14    1
   109    15    16    2
   110    59    56    1
   111    42    43    1
   112    23    24    2
   113    33    30    1
   114    43    46    1
   115    48    46    1
   116    56    57    1
   117    63    61   ar
   118    14    13    1
   119    46    47    1
   120    57    58    2
   121    30    31    1
   122    30    29    1
   123    47    49    1
   124    31    32    2
