@<TRIPOS>MOLECULE
tmp/3pyzA00.pdb
 173 168 0 0 0
SMALL
GASTEIGER

@<TRIPOS>ATOM
      1  N         -4.7100   23.3810  -27.2610 N.3    53  THR53      -0.1203
      2  CA        -5.8220   24.2030  -26.7760 C.3    53  THR53       0.1994
      3  C         -6.5880   23.4870  -25.6880 C.2    53  THR53       0.2618
      4  O         -6.7390   23.9940  -24.6230 O.2    53  THR53      -0.2717
      5  CB        -6.7760   24.5120  -27.9380 C.3    53  THR53       0.1784
      6  OG1       -6.0380   25.2380  -28.9030 O.3    53  THR53      -0.2211
      7  CG2       -7.9700   25.3120  -27.4840 C.3    53  THR53       0.0376
      8  N         -7.0520   22.2850  -25.9690 N.am   54  ASN54      -0.1960
      9  CA        -7.7350   21.4700  -24.9650 C.3    54  ASN54       0.1819
     10  C         -7.0050   20.1170  -24.8900 C.2    54  ASN54       0.2622
     11  O         -6.4580   19.6170  -25.8690 O.2    54  ASN54      -0.2715
     12  CB        -9.1700   21.1880  -25.4100 C.3    54  ASN54       0.1195
     13  CG       -10.0800   22.4230  -25.3410 C.2    54  ASN54       0.2630
     14  OD1       -9.9650   23.2650  -24.4470 O.2    54  ASN54      -0.2716
     15  ND2      -10.9940   22.5220  -26.2810 N.am   54  ASN54      -0.0877
     16  N         -6.9870   19.5420  -23.7170 N.am   55  GLY55      -0.1940
     17  CA        -6.4890   18.2250  -23.5360 C.3    55  GLY55       0.2014
     18  C         -5.0680   18.1260  -22.9610 C.2    55  GLY55       0.2639
     19  O         -4.5590   17.0020  -22.7840 O.2    55  GLY55      -0.2714
     20  N         -4.4200   19.2360  -22.6650 N.am   56  LYS56      -0.1963
     21  CA        -3.0280   19.1750  -22.1200 C.3    56  LYS56       0.1728
     22  C         -2.9610   18.4450  -20.7920 C.2    56  LYS56       0.2617
     23  O         -2.1430   17.5400  -20.6330 O.2    56  LYS56      -0.2715
     24  CB        -2.4040   20.5370  -21.9150 C.3    56  LYS56       0.0311
     25  CG        -2.3030   21.3720  -23.1960 C.3    56  LYS56       0.0038
     26  CD        -1.6740   22.7760  -23.0130 C.3    56  LYS56       0.0206
     27  CE        -2.4820   23.6940  -22.0980 C.3    56  LYS56       0.1093
     28  NZ        -3.8810   24.0130  -22.7900 N.3    56  LYS56      -0.1314
     29  N         -3.8250   18.7850  -19.8460 N.am   57  GLY57      -0.1940
     30  CA        -3.7610   18.2090  -18.4980 C.3    57  GLY57       0.2014
     31  C         -4.0410   16.7160  -18.5320 C.2    57  GLY57       0.2639
     32  O         -3.3470   15.9430  -17.8850 O.2    57  GLY57      -0.2714
     33  N         -5.0580   16.2770  -19.2850 N.am   58  THR58      -0.1950
     34  CA        -5.3740   14.8290  -19.2460 C.3    58  THR58       0.1897
     35  C         -4.3800   13.9730  -20.0170 C.2    58  THR58       0.2313
     36  O         -4.1460   12.7830  -19.7090 O.2    58  THR58      -0.2863
     37  CB        -6.8360   14.5630  -19.6250 C.3    58  THR58       0.1794
     38  OG1       -7.1740   15.2500  -20.8440 O.3    58  THR58      -0.2208
     39  CG2       -7.7520   15.0860  -18.5120 C.3    58  THR58       0.0378
     40  N         -1.2550   23.4390  -15.1240 N.3    79  SER79      -0.1203
     41  CA        -1.9620   24.6810  -14.8750 C.3    79  SER79       0.2005
     42  C         -3.2360   24.7210  -15.6910 C.2    79  SER79       0.2460
     43  O         -3.4340   23.9020  -16.7510 O.2    79  SER79      -0.2732
     44  CB        -1.1030   25.9220  -15.2500 C.3    79  SER79       0.2103
     45  OG        -0.5220   25.7820  -16.5800 O.3    79  SER79      -0.2182
     46  N         -4.1570   25.6310  -15.2410 N.am   80  PRO80      -0.2728
     47  CA        -4.1320   26.3800  -14.0090 C.3    80  PRO80       0.1401
     48  C         -4.5980   25.4200  -12.8960 C.2    80  PRO80       0.2269
     49  O         -4.5410   24.2190  -13.1260 O.2    80  PRO80      -0.2865
     50  CB        -5.0960   27.5620  -14.2780 C.3    80  PRO80       0.0296
     51  CG        -6.0310   27.0920  -15.3240 C.3    80  PRO80       0.0237
     52  CD        -5.4520   25.8090  -15.9370 C.3    80  PRO80       0.0939
     53  N          3.3770   20.7860  -18.6920 N.3   142  GLU142     -0.1245
     54  CA         2.2620   21.3340  -19.4360 C.3   142  GLU142      0.1567
     55  C          2.5420   22.7890  -19.7480 C.2   142  GLU142      0.2260
     56  O          2.9320   23.5740  -18.8790 O.2   142  GLU142     -0.2867
     57  CB         0.9540   21.1710  -18.6710 C.3   142  GLU142      0.0388
     58  CG        -0.2180   22.0110  -19.2530 C.3   142  GLU142      0.1160
     59  CD        -1.5320   21.8820  -18.4610 C.2   142  GLU142      0.3649
     60  OE1       -1.5510   21.1370  -17.4590 O.co2 142  GLU142     -0.2457
     61  OE2       -2.5490   22.5420  -18.7980 O.co2 142  GLU142     -0.2457
     62  N         -1.8680   18.6010  -28.3420 N.3   163  THR163     -0.1203
     63  CA        -2.9980   17.7630  -28.1160 C.3   163  THR163      0.1994
     64  C         -4.1390   18.0700  -29.0640 C.2   163  THR163      0.2618
     65  O         -4.8240   17.1600  -29.4990 O.2   163  THR163     -0.2717
     66  CB        -3.5060   17.8780  -26.6790 C.3   163  THR163      0.1784
     67  OG1       -3.8720   19.2430  -26.3400 O.3   163  THR163     -0.2211
     68  CG2       -2.4400   17.4250  -25.7160 C.3   163  THR163      0.0376
     69  N         -4.3550   19.3550  -29.3240 N.am  164  SER164     -0.1951
     70  CA        -5.4360   19.8260  -30.1610 C.3   164  SER164      0.1924
     71  C         -5.2340   21.3140  -30.4820 C.2   164  SER164      0.2314
     72  O         -4.4460   21.9960  -29.8340 O.2   164  SER164     -0.2863
     73  CB        -6.8090   19.6200  -29.4950 C.3   164  SER164      0.2116
     74  OG        -7.0240   20.5170  -28.3940 O.3   164  SER164     -0.2180
     75  N        -10.3120   11.8220  -21.9730 N.3   249  PRO249     -0.2116
     76  CA       -10.7600   11.6860  -23.3610 C.3   249  PRO249      0.1372
     77  C         -9.8100   10.8440  -24.1880 C.2   249  PRO249      0.2244
     78  O         -8.5490   10.9940  -24.0940 O.2   249  PRO249     -0.2868
     79  CB       -10.7460   13.1450  -23.8690 C.3   249  PRO249      0.0268
     80  CG       -10.8200   13.9360  -22.6780 C.3   249  PRO249      0.0207
     81  CD       -10.1170   13.2190  -21.5810 C.3   249  PRO249      0.0892
     82  N         -8.8610   10.6700  -27.1800 N.3   251  ALA251     -0.1231
     83  CA        -7.9280   11.3290  -28.0530 C.3   251  ALA251      0.1694
     84  C         -6.6510   11.6620  -27.3370 C.2   251  ALA251      0.2588
     85  O         -5.5430   11.5760  -27.9400 O.2   251  ALA251     -0.2718
     86  CB        -8.5660   12.6310  -28.6250 C.3   251  ALA251      0.0304
     87  N         -6.7780   12.0610  -26.0750 N.am  252  ASN252     -0.2028
     88  CA        -5.6210   12.4490  -25.2920 C.3   252  ASN252      0.1374
     89  C         -4.8250   11.2650  -24.7670 C.3   252  ASN252      0.2041
     90  O         -3.5360   11.3260  -24.6830 O.3   252  ASN252     -0.2185
     91  CB        -6.0570   13.3210  -24.1430 C.3   252  ASN252      0.1128
     92  CG        -6.8140   14.5510  -24.5840 C.2   252  ASN252      0.2626
     93  OD1       -6.6170   15.0200  -25.6800 O.2   252  ASN252     -0.2716
     94  ND2       -7.6630   15.0910  -23.7170 N.am  252  ASN252     -0.0877
     95  N        -12.5690   16.8010  -15.0190 N.3   284  ARG284     -0.1245
     96  CA       -12.5380   16.4560  -16.4050 C.3   284  ARG284      0.1563
     97  C        -13.4530   15.2740  -16.5980 C.2   284  ARG284      0.2260
     98  O        -13.1070   14.1640  -16.3070 O.2   284  ARG284     -0.2867
     99  CB       -11.1230   16.1590  -16.8600 C.3   284  ARG284      0.0307
    100  CG       -10.3060   17.3700  -17.2210 C.3   284  ARG284      0.0489
    101  CD       -10.0080   18.2410  -16.0610 C.3   284  ARG284      0.2205
    102  NE        -8.8830   19.1010  -16.3240 N.pl3 284  ARG284     -0.0865
    103  CZ        -8.1100   19.6270  -15.4020 C.cat 284  ARG284      0.5346
    104  NH1       -7.1110   20.3770  -15.7420 N.pl3 284  ARG284      0.1354
    105  NH2       -8.3150   19.4090  -14.1470 N.pl3 284  ARG284      0.1354
    106  N        -17.2580   19.1330  -15.4260 N.3   297  ASP297     -0.1225
    107  CA       -16.3440   19.2640  -16.5650 C.3   297  ASP297      0.1805
    108  C        -16.0430   20.7240  -16.8280 C.2   297  ASP297      0.2598
    109  O        -16.9530   21.5240  -16.9960 O.2   297  ASP297     -0.2718
    110  CB       -16.8870   18.6350  -17.8250 C.3   297  ASP297      0.1424
    111  CG       -15.7860   18.5120  -18.9240 C.2   297  ASP297      0.3668
    112  OD1      -14.9250   17.6190  -18.8350 O.co2 297  ASP297     -0.2456
    113  OD2      -15.7390   19.3350  -19.8540 O.co2 297  ASP297     -0.2456
    114  N        -14.7610   21.0410  -16.9030 N.am  298  VAL298     -0.1966
    115  CA       -14.2780   22.3910  -17.0360 C.3   298  VAL298      0.1727
    116  C        -14.3080   23.0130  -18.4390 C.2   298  VAL298      0.2616
    117  O        -13.6630   24.0440  -18.6390 O.2   298  VAL298     -0.2715
    118  CB       -12.8170   22.4980  -16.5030 C.3   298  VAL298      0.0290
    119  CG1      -12.7690   22.1540  -14.9900 C.3   298  VAL298      0.0023
    120  CG2      -11.9000   21.6180  -17.2850 C.3   298  VAL298      0.0023
    121  N        -15.0150   22.4040  -19.3780 N.am  299  ALA299     -0.1963
    122  CA       -15.1910   22.8860  -20.7410 C.3   299  ALA299      0.1728
    123  C        -15.4780   24.3610  -20.8020 C.2   299  ALA299      0.2616
    124  O        -16.4030   24.8090  -20.1390 O.2   299  ALA299     -0.2715
    125  CB       -16.3830   22.1380  -21.4240 C.3   299  ALA299      0.0334
    126  N        -14.7250   25.0980  -21.6230 N.am  300  HIS300     -0.1973
    127  CA       -14.8030   26.5530  -21.6950 C.3   300  HIS300      0.1656
    128  C        -14.5300   27.1790  -23.0570 C.2   300  HIS300      0.2291
    129  O        -14.1490   28.3200  -23.1160 O.2   300  HIS300     -0.2864
    130  CB       -13.9220   27.2180  -20.6440 C.3   300  HIS300      0.0771
    131  CG       -12.4650   26.8630  -20.7280 C.ar  300  HIS300      0.0820
    132  ND1      -11.7880   26.3250  -19.6640 N.ar  300  HIS300     -0.2267
    133  CD2      -11.5430   27.0520  -21.7020 C.ar  300  HIS300      0.1154
    134  CE1      -10.5170   26.1410  -19.9950 C.ar  300  HIS300      0.1986
    135  NE2      -10.3460   26.5530  -21.2360 N.ar  300  HIS300     -0.2212
    136  N        -14.9830   23.9620  -28.7670 N.3   303  HIS303     -0.1226
    137  CA       -14.3370   22.6810  -29.0800 C.3   303  HIS303      0.1752
    138  C        -14.5390   21.7110  -27.9230 C.2   303  HIS303      0.2592
    139  O        -14.9080   20.5600  -28.1270 O.2   303  HIS303     -0.2718
    140  CB       -12.8310   22.9470  -29.3420 C.3   303  HIS303      0.0759
    141  CG       -12.0660   21.7490  -29.7920 C.ar  303  HIS303      0.0818
    142  ND1      -11.2870   20.9970  -28.9330 N.ar  303  HIS303     -0.2268
    143  CD2      -11.9720   21.1510  -31.0080 C.ar  303  HIS303      0.1154
    144  CE1      -10.7390   19.9900  -29.6070 C.ar  303  HIS303      0.1986
    145  NE2      -11.1400   20.0620  -30.8680 N.ar  303  HIS303     -0.2212
    146  N        -14.3030   22.1600  -26.7030 N.am  304  ALA304     -0.2033
    147  CA       -14.5720   21.2630  -25.5100 C.3   304  ALA304      0.1283
    148  C        -16.0800   20.9260  -25.3360 C.3   304  ALA304      0.2036
    149  O        -16.4870   19.7510  -25.0010 O.3   304  ALA304     -0.2185
    150  CB       -14.0490   21.8960  -24.2880 C.3   304  ALA304      0.0262
    151  N        -17.0350   18.2230  -27.5420 N.3   307  TYR307     -0.1241
    152  CA       -16.6150   16.9370  -27.0150 C.3   307  TYR307      0.1605
    153  C        -17.6030   16.5530  -25.9160 C.2   307  TYR307      0.2264
    154  O        -18.0130   15.4180  -25.8110 O.2   307  TYR307     -0.2867
    155  CB       -15.1630   17.0340  -26.4300 C.3   307  TYR307      0.0534
    156  CG       -14.8580   15.8910  -25.5310 C.ar  307  TYR307     -0.0201
    157  CD1      -14.4410   14.7080  -26.0750 C.ar  307  TYR307     -0.0009
    158  CD2      -15.0450   15.9600  -24.1620 C.ar  307  TYR307     -0.0009
    159  CE1      -14.1970   13.6110  -25.3100 C.ar  307  TYR307      0.0417
    160  CE2      -14.7790   14.8220  -23.3420 C.ar  307  TYR307      0.0417
    161  CZ       -14.3530   13.6430  -23.9560 C.ar  307  TYR307      0.1957
    162  OH       -14.0830   12.4290  -23.2760 O.3   307  TYR307     -0.2866
    163  N        -13.1870   26.6180  -15.1210 N.3   398  PHE398     -0.1241
    164  CA       -12.5780   26.1210  -13.9240 C.3   398  PHE398      0.1605
    165  C        -13.2370   26.5680  -12.6460 C.2   398  PHE398      0.2264
    166  O        -13.3200   25.8150  -11.6730 O.2   398  PHE398     -0.2867
    167  CB       -11.0830   26.6140  -13.8640 C.3   398  PHE398      0.0534
    168  CG       -10.1350   25.5690  -14.2200 C.ar  398  PHE398     -0.0203
    169  CD1      -10.1370   25.0230  -15.4720 C.ar  398  PHE398     -0.0042
    170  CD2       -9.2750   25.0360  -13.2700 C.ar  398  PHE398     -0.0042
    171  CE1       -9.2450   24.0020  -15.7930 C.ar  398  PHE398     -0.0003
    172  CE2       -8.4280   23.9890  -13.5950 C.ar  398  PHE398     -0.0003
    173  CZ        -8.4280   23.4780  -14.8670 C.ar  398  PHE398     -0.0000
@<TRIPOS>BOND
     1   143   145   ar
     2   143   141   ar
     3   145   144   ar
     4    71    70    1
     5    71    72    2
     6    70    73    1
     7    70    69    1
     8   141   140    1
     9   141   142   ar
    10   144   142   ar
    11    65    64    2
    12    73    74    1
    13   140   137    1
    14    69    64   am
    15   137   136    1
    16   137   138    1
    17    64    63    1
    18     6     5    1
    19    86    83    1
    20    62    63    1
    21   139   138    2
    22    63    66    1
    23    83    84    1
    24    83    82    1
    25    85    84    2
    26     5     7    1
    27     5     2    1
    28   138   146   am
    29   151   152    1
    30    84    87   am
    31     1     2    1
    32   152   155    1
    33   152   153    1
    34     2     3    1
    35   146   147    1
    36    66    67    1
    37    66    68    1
    38   155   156    1
    39    15    13   am
    40   157   156   ar
    41   157   159   ar
    42    87    88    1
    43     8     3   am
    44     8     9    1
    45   153   154    2
    46    11    10    2
    47     3     4    2
    48    93    92    2
    49   156   158   ar
    50   147   148    1
    51   147   150    1
    52    12    13    1
    53    12     9    1
    54    13    14    2
    55   148   149    1
    56   159   161   ar
    57    88    89    1
    58    88    91    1
    59     9    10    1
    60    10    16   am
    61    89    90    1
    62    92    91    1
    63    92    94   am
    64    77    78    2
    65    77    76    1
    66   158   160   ar
    67   161   160   ar
    68   161   162    1
    69    79    76    1
    70    79    80    1
    71    16    17    1
    72    17    18    1
    73    76    75    1
    74    25    26    1
    75    25    24    1
    76   129   128    2
    77   128   127    1
    78    26    27    1
    79    18    19    2
    80    18    20   am
    81    28    27    1
    82    80    81    1
    83    20    21    1
    84    21    24    1
    85    21    22    1
    86    75    81    1
    87   133   135   ar
    88   133   131   ar
    89   127   126    1
    90   127   130    1
    91   126   123   am
    92   125   122    1
    93   135   134   ar
    94    38    37    1
    95   123   122    1
    96   123   124    2
    97    22    23    2
    98    22    29   am
    99   122   121    1
   100   131   130    1
   101   131   132   ar
   102    35    36    2
   103    35    34    1
   104   134   132   ar
   105   113   111   ar
   106    29    30    1
   107    55    54    1
   108    55    56    2
   109    37    34    1
   110    37    39    1
   111    54    53    1
   112    54    57    1
   113   121   116   am
   114    33    34    1
   115    33    31   am
   116    58    57    1
   117    58    59    1
   118   111   112   ar
   119   111   110    1
   120    61    59   ar
   121   117   116    2
   122    31    30    1
   123    31    32    2
   124    59    60   ar
   125   116   115    1
   126   110   107    1
   127   120   118    1
   128   100    99    1
   129   100   101    1
   130   115   114    1
   131   115   118    1
   132   109   108    2
   133   114   108   am
   134    99    96    1
   135   108   107    1
   136    43    42    2
   137    97    96    1
   138    97    98    2
   139    45    44    1
   140   107   106    1
   141   118   119    1
   142    96    95    1
   143   102   101    1
   144   102   103    2
   145    52    51    1
   146    52    46    1
   147   171   169   ar
   148   171   173   ar
   149   104   103    1
   150    42    46   am
   151    42    41    1
   152   169   168   ar
   153   103   105    1
   154    51    50    1
   155    44    41    1
   156    46    47    1
   157    40    41    1
   158   163   164    1
   159   173   172   ar
   160    50    47    1
   161   168   167    1
   162   168   170   ar
   163    47    48    1
   164   164   167    1
   165   164   165    1
   166   172   170   ar
   167    49    48    2
   168   165   166    2
