@<TRIPOS>MOLECULE
tmp/3pz2B01.pdb
 266 263 0 0 0
SMALL
GASTEIGER

@<TRIPOS>ATOM
      1  N          1.7780   31.7690   25.9740 N.3    42  TYR42      -0.1227
      2  CA         1.5640   31.6060   24.5100 C.3    42  TYR42       0.1736
      3  C          0.4760   30.6030   24.1910 C.2    42  TYR42       0.2595
      4  O         -0.4450   30.8900   23.4150 O.2    42  TYR42      -0.2718
      5  CB         2.8680   31.1690   23.8190 C.3    42  TYR42       0.0548
      6  CG         2.6410   30.5870   22.4290 C.ar   42  TYR42      -0.0200
      7  CD1        2.0890   31.3690   21.4060 C.ar   42  TYR42      -0.0009
      8  CD2        2.9460   29.2520   22.1470 C.ar   42  TYR42      -0.0009
      9  CE1        1.8500   30.8420   20.1250 C.ar   42  TYR42       0.0417
     10  CE2        2.7170   28.7020   20.8520 C.ar   42  TYR42       0.0417
     11  CZ         2.1810   29.5050   19.8580 C.ar   42  TYR42       0.1957
     12  OH         1.9350   28.9810   18.6170 O.3    42  TYR42      -0.2866
     13  N          0.5540   29.4070   24.7720 N.am   43  TRP43      -0.1976
     14  CA        -0.4580   28.4040   24.4590 C.3    43  TRP43       0.1640
     15  C         -1.8250   28.9200   24.8330 C.2    43  TRP43       0.2290
     16  O         -2.7760   28.7610   24.0740 O.2    43  TRP43      -0.2864
     17  CB        -0.1890   27.0800   25.1600 C.3    43  TRP43       0.0576
     18  CG         1.1350   26.4620   24.7650 C.ar   43  TRP43       0.0006
     19  CD1        1.7480   26.5260   23.5460 C.ar   43  TRP43       0.0946
     20  CD2        1.9940   25.7040   25.6080 C.ar   43  TRP43       0.0152
     21  NE1        2.9470   25.8860   23.5840 N.ar   43  TRP43      -0.2442
     22  CE2        3.1310   25.3650   24.8410 C.ar   43  TRP43       0.0810
     23  CE3        1.9210   25.2950   26.9480 C.ar   43  TRP43       0.0012
     24  CZ2        4.1840   24.6260   25.3520 C.ar   43  TRP43       0.0191
     25  CZ3        2.9860   24.5530   27.4770 C.ar   43  TRP43       0.0001
     26  CH2        4.1010   24.2270   26.6770 C.ar   43  TRP43       0.0015
     27  N         13.2010   28.6830   23.1870 N.3    87  LEU87      -0.1245
     28  CA        11.7860   28.3030   23.2380 C.3    87  LEU87       0.1561
     29  C         10.8990   29.4810   23.6520 C.2    87  LEU87       0.2260
     30  O          9.8900   29.7980   22.9740 O.2    87  LEU87      -0.2867
     31  CB        11.5520   27.1350   24.1700 C.3    87  LEU87       0.0270
     32  CG        12.1700   25.7670   23.7870 C.3    87  LEU87       0.0019
     33  CD1       12.2510   24.7650   25.0000 C.3    87  LEU87       0.0001
     34  CD2       11.4580   25.1170   22.5460 C.3    87  LEU87       0.0001
     35  N         10.8240   32.4070   21.2890 N.3    90  LEU90      -0.1245
     36  CA         9.8170   32.2640   20.2390 C.3    90  LEU90       0.1561
     37  C          8.4710   32.5900   20.8380 C.2    90  LEU90       0.2260
     38  O          7.7380   33.4250   20.3020 O.2    90  LEU90      -0.2867
     39  CB         9.8320   30.8820   19.5380 C.3    90  LEU90       0.0270
     40  CG         8.6810   30.6250   18.5390 C.3    90  LEU90       0.0019
     41  CD1        8.6570   31.6670   17.3360 C.3    90  LEU90       0.0001
     42  CD2        8.5610   29.1600   18.0240 C.3    90  LEU90       0.0001
     43  N          5.9640   35.5470   19.6510 N.3    94  GLN94      -0.1245
     44  CA         4.6040   35.1750   19.1950 C.3    94  GLN94       0.1566
     45  C          3.5670   35.9630   19.9810 C.2    94  GLN94       0.2260
     46  O          2.7310   36.6290   19.3760 O.2    94  GLN94      -0.2867
     47  CB         4.3660   33.6530   19.3410 C.3    94  GLN94       0.0367
     48  CG         5.2410   32.8400   18.4160 C.3    94  GLN94       0.0905
     49  CD         5.0240   31.3420   18.5070 C.2    94  GLN94       0.2608
     50  OE1        5.3430   30.7290   19.5220 O.2    94  GLN94      -0.2717
     51  NE2        4.5330   30.7340   17.4180 N.am   94  GLN94      -0.0878
     52  N         13.8870   21.2690   16.5890 N.3   135  ARG135     -0.1245
     53  CA        13.0050   22.2390   17.2830 C.3   135  ARG135      0.1563
     54  C         13.5270   23.6750   17.2560 C.2   135  ARG135      0.2260
     55  O         12.7880   24.6290   17.0930 O.2   135  ARG135     -0.2867
     56  CB        12.9010   21.8830   18.7620 C.3   135  ARG135      0.0307
     57  CG        11.9100   20.8420   19.0620 C.3   135  ARG135      0.0489
     58  CD        11.7940   20.5990   20.5700 C.3   135  ARG135      0.2205
     59  NE        13.0030   19.9830   21.0220 N.pl3 135  ARG135     -0.0865
     60  CZ        13.6000   20.1680   22.2070 C.cat 135  ARG135      0.5346
     61  NH1       13.0860   20.9180   23.1580 N.pl3 135  ARG135      0.1354
     62  NH2       14.7440   19.5490   22.4330 N.pl3 135  ARG135      0.1354
     63  N         13.6180   25.4570   13.9080 N.3   138  PHE138     -0.1227
     64  CA        12.3270   26.0510   13.7330 C.3   138  PHE138      0.1736
     65  C         12.1600   27.2860   14.6150 C.2   138  PHE138      0.2595
     66  O         11.6960   28.3430   14.1560 O.2   138  PHE138     -0.2718
     67  CB        11.2030   25.0330   13.9830 C.3   138  PHE138      0.0547
     68  CG         9.8430   25.6320   13.9410 C.ar  138  PHE138     -0.0202
     69  CD1        9.2370   25.9200   12.7410 C.ar  138  PHE138     -0.0042
     70  CD2        9.1980   26.0040   15.1150 C.ar  138  PHE138     -0.0042
     71  CE1        7.9910   26.5410   12.7190 C.ar  138  PHE138     -0.0003
     72  CE2        7.9790   26.6190   15.0870 C.ar  138  PHE138     -0.0003
     73  CZ         7.3640   26.8810   13.8860 C.ar  138  PHE138     -0.0000
     74  N         12.4850   27.1800   15.8830 N.am  139  CYS139     -0.1970
     75  CA        12.2830   28.3280   16.7640 C.3   139  CYS139      0.1712
     76  C         13.1090   29.5150   16.2920 C.2   139  CYS139      0.2296
     77  O         12.6360   30.6770   16.3060 O.2   139  CYS139     -0.2864
     78  CB        12.6380   27.9810   18.1950 C.3   139  CYS139      0.0983
     79  SG        11.5980   26.7760   18.9400 S.3   139  CYS139     -0.0798
     80  N          9.7790   11.7200   13.5290 N.3   181  HIS181     -0.1241
     81  CA         8.8100   11.8990   14.6060 C.3   181  HIS181      0.1621
     82  C          7.9720   13.0470   14.1570 C.2   181  HIS181      0.2264
     83  O          8.5040   14.0030   13.7140 O.2   181  HIS181     -0.2867
     84  CB         9.5470   12.2040   15.9000 C.3   181  HIS181      0.0745
     85  CG         8.6640   12.3230   17.1020 C.ar  181  HIS181      0.0817
     86  ND1        8.6930   11.4200   18.1410 N.ar  181  HIS181     -0.2268
     87  CD2        7.7540   13.2630   17.4530 C.ar  181  HIS181      0.1154
     88  CE1        7.8140   11.7820   19.0650 C.ar  181  HIS181      0.1986
     89  NE2        7.2220   12.8890   18.6620 N.ar  181  HIS181     -0.2212
     90  N          6.6040   15.3670   15.4960 N.3   183  GLY183     -0.1210
     91  CA         6.9490   16.5740   16.1720 C.3   183  GLY183      0.1956
     92  C          8.0750   17.2910   15.4730 C.2   183  GLY183      0.2611
     93  O          8.0180   18.5250   15.2270 O.2   183  GLY183     -0.2717
     94  N          9.1210   16.5420   15.1700 N.am  184  GLN184     -0.1979
     95  CA        10.2520   17.1310   14.4780 C.3   184  GLN184      0.1601
     96  C          9.9180   17.3800   13.0210 C.2   184  GLN184      0.2287
     97  O         10.4560   18.2860   12.4400 O.2   184  GLN184     -0.2864
     98  CB        11.6060   16.3880   14.7070 C.3   184  GLN184      0.0394
     99  CG        12.4020   16.9630   16.0060 C.3   184  GLN184      0.0908
    100  CD        11.8420   16.2900   17.2150 C.2   184  GLN184      0.2608
    101  OE1       11.0800   15.3610   17.0700 O.2   184  GLN184     -0.2717
    102  NE2       12.2080   16.7030   18.3720 N.am  184  GLN184     -0.0878
    103  N          6.9630   18.5370   11.8800 N.3   186  TYR186     -0.1227
    104  CA         6.4040   19.8700   12.0270 C.3   186  TYR186      0.1736
    105  C          7.4900   20.9290   12.0510 C.2   186  TYR186      0.2595
    106  O          7.4340   21.8860   11.3120 O.2   186  TYR186     -0.2718
    107  CB         5.5000   19.9920   13.2730 C.3   186  TYR186      0.0548
    108  CG         5.1740   21.4140   13.5860 C.ar  186  TYR186     -0.0200
    109  CD1        4.3480   22.1480   12.7490 C.ar  186  TYR186     -0.0009
    110  CD2        5.7230   22.0610   14.7140 C.ar  186  TYR186     -0.0009
    111  CE1        4.1140   23.5000   12.9980 C.ar  186  TYR186      0.0417
    112  CE2        5.4700   23.4260   14.9710 C.ar  186  TYR186      0.0417
    113  CZ         4.6670   24.1330   14.1210 C.ar  186  TYR186      0.1957
    114  OH         4.3800   25.4760   14.3740 O.3   186  TYR186     -0.2866
    115  N          8.5260   20.7350   12.8390 N.am  187  CYS187     -0.1970
    116  CA         9.5540   21.7520   12.9490 C.3   187  CYS187      0.1712
    117  C         10.3280   21.9380   11.6250 C.2   187  CYS187      0.2296
    118  O         10.6120   23.0640   11.2020 O.2   187  CYS187     -0.2864
    119  CB        10.5160   21.3910   14.0770 C.3   187  CYS187      0.0983
    120  SG         9.7790   21.5260   15.7260 S.3   187  CYS187     -0.0798
    121  N          2.7300    9.6090   16.6550 N.3   222  GLY222     -0.1210
    122  CA         3.8630   10.4330   16.2650 C.3   222  GLY222      0.1956
    123  C          4.8280    9.6530   15.4260 C.2   222  GLY222      0.2611
    124  O          5.6960   10.2340   14.7410 O.2   222  GLY222     -0.2717
    125  N          4.6690    8.3180   15.4940 N.am  223  ARG223     -0.1979
    126  CA         5.5170    7.4090   14.7780 C.3   223  ARG223      0.1597
    127  C          5.0240    5.9570   14.8770 C.2   223  ARG223      0.2287
    128  O          4.1450    5.6620   15.6610 O.2   223  ARG223     -0.2864
    129  CB         6.9910    7.6330   15.1630 C.3   223  ARG223      0.0334
    130  CG         7.3380    7.3580   16.5490 C.3   223  ARG223      0.0492
    131  CD         8.6130    8.0790   17.0790 C.3   223  ARG223      0.2205
    132  NE         8.4280    8.1320   18.5430 N.pl3 223  ARG223     -0.0865
    133  CZ         9.1370    7.4750   19.4620 C.cat 223  ARG223      0.5346
    134  NH1       10.1850    6.7390   19.1330 N.pl3 223  ARG223      0.1354
    135  NH2        8.8200    7.6000   20.7540 N.pl3 223  ARG223      0.1354
    136  N          3.0310    3.3970   17.8570 N.3   226  LYS226     -0.1231
    137  CA         2.9000    4.0740   19.1500 C.3   226  LYS226      0.1693
    138  C          1.4240    4.4010   19.4000 C.2   226  LYS226      0.2591
    139  O          0.5970    4.2320   18.5310 O.2   226  LYS226     -0.2718
    140  CB         3.7160    5.3630   19.1300 C.3   226  LYS226      0.0285
    141  CG         5.2120    5.1840   18.9470 C.3   226  LYS226      0.0035
    142  CD         5.9210    4.5050   20.1320 C.3   226  LYS226      0.0206
    143  CE         5.6510    5.1690   21.4910 C.3   226  LYS226      0.1093
    144  NZ         6.3530    6.4240   21.6780 N.3   226  LYS226     -0.1314
    145  N          1.1100    4.9160   20.5730 N.am  227  LEU227     -0.1980
    146  CA        -0.2870    5.2480   20.9290 C.3   227  LEU227      0.1596
    147  C         -0.6330    6.6280   20.3780 C.2   227  LEU227      0.2287
    148  O          0.2360    7.4800   20.2710 O.2   227  LEU227     -0.2864
    149  CB        -0.4750    5.2660   22.4570 C.3   227  LEU227      0.0297
    150  CG        -1.0880    4.1470   23.3190 C.3   227  LEU227      0.0022
    151  CD1       -1.6650    2.9490   22.5320 C.3   227  LEU227      0.0001
    152  CD2       -0.1100    3.7320   24.4180 C.3   227  LEU227      0.0001
    153  N         -2.4000   10.5150   20.2760 N.3   229  ASP229     -0.1239
    154  CA        -2.3860   11.6190   21.2160 C.3   229  ASP229      0.1674
    155  C         -2.8750   12.8700   20.4600 C.2   229  ASP229      0.2266
    156  O         -2.4560   13.1160   19.3170 O.2   229  ASP229     -0.2867
    157  CB        -0.9600   11.7450   21.8100 C.3   229  ASP229      0.1410
    158  CG        -0.7640   12.9730   22.6500 C.2   229  ASP229      0.3668
    159  OD1       -1.5830   13.8970   22.5920 O.co2 229  ASP229     -0.2456
    160  OD2        0.2260   13.0100   23.3890 O.co2 229  ASP229     -0.2456
    161  N         -2.3090   15.9120   20.6160 N.3   231  CYS231     -0.1221
    162  CA        -1.4370   16.9620   20.2210 C.3   231  CYS231      0.1808
    163  C         -0.8600   16.6710   18.7840 C.2   231  CYS231      0.2601
    164  O         -0.4810   17.6100   18.0500 O.2   231  CYS231     -0.2717
    165  CB        -0.3690   17.2540   21.2710 C.3   231  CYS231      0.0970
    166  SG         0.8370   16.0620   21.4560 S.3   231  CYS231     -0.0800
    167  N         -0.8700   15.4010   18.3720 N.am  232  TYR232     -0.1976
    168  CA        -0.3720   15.0410   17.0620 C.3   232  TYR232      0.1639
    169  C         -1.3100   15.5200   16.0020 C.2   232  TYR232      0.2290
    170  O         -0.9270   15.6310   14.8450 O.2   232  TYR232     -0.2864
    171  CB        -0.1480   13.5550   16.9400 C.3   232  TYR232      0.0560
    172  CG         1.1110   13.1260   17.6800 C.ar  232  TYR232     -0.0198
    173  CD1        2.3690   13.5800   17.2650 C.ar  232  TYR232     -0.0009
    174  CD2        1.0320   12.2740   18.7910 C.ar  232  TYR232     -0.0009
    175  CE1        3.5180   13.2210   17.9470 C.ar  232  TYR232      0.0417
    176  CE2        2.1730   11.8840   19.4720 C.ar  232  TYR232      0.0417
    177  CZ         3.4000   12.3700   19.0600 C.ar  232  TYR232      0.1957
    178  OH         4.5160   11.9800   19.7260 O.3   232  TYR232     -0.2866
    179  N         -2.0490   18.3670   15.8790 N.3   234  TRP234     -0.1227
    180  CA        -1.2850   19.4990   15.4030 C.3   234  TRP234      0.1737
    181  C         -0.0440   19.1070   14.6270 C.2   234  TRP234      0.2595
    182  O          0.1750   19.5840   13.5130 O.2   234  TRP234     -0.2718
    183  CB        -0.8620   20.4290   16.5480 C.3   234  TRP234      0.0564
    184  CG         0.0120   21.5410   16.0050 C.ar  234  TRP234      0.0003
    185  CD1        1.3490   21.6520   16.1540 C.ar  234  TRP234      0.0946
    186  CD2       -0.4000   22.6220   15.1390 C.ar  234  TRP234      0.0152
    187  NE1        1.8040   22.7430   15.4910 N.ar  234  TRP234     -0.2442
    188  CE2        0.7530   23.3770   14.8690 C.ar  234  TRP234      0.0810
    189  CE3       -1.6440   23.0440   14.6160 C.ar  234  TRP234      0.0012
    190  CZ2        0.7350   24.5210   14.0860 C.ar  234  TRP234      0.0191
    191  CZ3       -1.6770   24.1910   13.8200 C.ar  234  TRP234      0.0001
    192  CH2       -0.4900   24.9150   13.5630 C.ar  234  TRP234      0.0015
    193  N          0.8140   18.2790   15.2220 N.am  235  TRP235     -0.1976
    194  CA         2.1150   18.0410   14.5800 C.3   235  TRP235      0.1640
    195  C          1.9290   17.4780   13.1730 C.2   235  TRP235      0.2290
    196  O          2.5750   17.9150   12.2510 O.2   235  TRP235     -0.2864
    197  CB         3.0900   17.2050   15.4610 C.3   235  TRP235      0.0576
    198  CG         3.0640   17.6350   16.8830 C.ar  235  TRP235      0.0006
    199  CD1        2.5350   16.9520   17.8960 C.ar  235  TRP235      0.0946
    200  CD2        3.4960   18.9030   17.4330 C.ar  235  TRP235      0.0152
    201  NE1        2.6210   17.6680   19.0520 N.ar  235  TRP235     -0.2442
    202  CE2        3.2060   18.8760   18.8000 C.ar  235  TRP235      0.0810
    203  CE3        4.0980   20.0400   16.8980 C.ar  235  TRP235      0.0012
    204  CZ2        3.4810   19.9610   19.6670 C.ar  235  TRP235      0.0191
    205  CZ3        4.3680   21.1400   17.7430 C.ar  235  TRP235      0.0001
    206  CH2        4.0440   21.0920   19.1130 C.ar  235  TRP235      0.0015
    207  N         -5.3630   11.7620   25.4710 N.3   272  ARG272     -0.1245
    208  CA        -6.3960   10.8170   24.9980 C.3   272  ARG272      0.1563
    209  C         -7.6170   10.8650   25.8820 C.2   272  ARG272      0.2260
    210  O         -7.5590   11.4660   26.9570 O.2   272  ARG272     -0.2867
    211  CB        -5.9040    9.3930   24.7150 C.3   272  ARG272      0.0307
    212  CG        -4.7720    8.9400   25.4910 C.3   272  ARG272      0.0489
    213  CD        -4.2480    7.6440   24.9770 C.3   272  ARG272      0.2205
    214  NE        -2.9190    7.8500   24.4740 N.pl3 272  ARG272     -0.0865
    215  CZ        -1.7900    7.6220   25.1320 C.cat 272  ARG272      0.5346
    216  NH1       -1.7810    7.1010   26.3480 N.pl3 272  ARG272      0.1354
    217  NH2       -0.6370    7.9020   24.5110 N.pl3 272  ARG272      0.1354
    218  N         -1.6800   22.7820   26.8690 N.3   280  PHE280     -0.1227
    219  CA        -0.9470   22.3680   25.6910 C.3   280  PHE280      0.1736
    220  C         -1.8860   21.5300   24.8070 C.2   280  PHE280      0.2595
    221  O         -2.1210   21.8510   23.6260 O.2   280  PHE280     -0.2718
    222  CB         0.2680   21.5870   26.2200 C.3   280  PHE280      0.0547
    223  CG         1.1220   20.9140   25.1860 C.ar  280  PHE280     -0.0202
    224  CD1        0.7220   19.7240   24.5750 C.ar  280  PHE280     -0.0042
    225  CD2        2.3920   21.4000   24.9040 C.ar  280  PHE280     -0.0042
    226  CE1        1.5820   19.0490   23.6880 C.ar  280  PHE280     -0.0003
    227  CE2        3.2530   20.7140   24.0120 C.ar  280  PHE280     -0.0003
    228  CZ         2.8340   19.5560   23.4010 C.ar  280  PHE280     -0.0000
    229  N         -2.4450   20.4790   25.3770 N.am  281  HIS281     -0.1975
    230  CA        -3.3110   19.5710   24.5980 C.3   281  HIS281      0.1656
    231  C         -4.5520   20.2850   24.1640 C.2   281  HIS281      0.2291
    232  O         -5.0970   19.9790   23.1220 O.2   281  HIS281     -0.2864
    233  CB        -3.6000   18.2740   25.3540 C.3   281  HIS281      0.0771
    234  CG        -2.4450   17.3370   25.3180 C.ar  281  HIS281      0.0820
    235  ND1       -1.5620   17.1960   26.3650 N.ar  281  HIS281     -0.2267
    236  CD2       -1.9600   16.5660   24.3110 C.ar  281  HIS281      0.1154
    237  CE1       -0.6100   16.3370   26.0210 C.ar  281  HIS281      0.1986
    238  NE2       -0.8270   15.9480   24.7750 N.ar  281  HIS281     -0.2212
    239  N         -3.6520   22.3560   21.0340 N.3   284  PHE284     -0.1241
    240  CA        -3.3740   21.5250   19.8400 C.3   284  PHE284      0.1605
    241  C         -4.5650   20.7730   19.3360 C.2   284  PHE284      0.2264
    242  O         -4.7080   20.5920   18.1040 O.2   284  PHE284     -0.2867
    243  CB        -2.1290   20.6640   20.0390 C.3   284  PHE284      0.0534
    244  CG        -0.8970   21.4790   20.2140 C.ar  284  PHE284     -0.0203
    245  CD1       -0.5930   22.4840   19.3020 C.ar  284  PHE284     -0.0042
    246  CD2       -0.0450   21.2730   21.2780 C.ar  284  PHE284     -0.0042
    247  CE1        0.5120   23.2690   19.4520 C.ar  284  PHE284     -0.0003
    248  CE2        1.1030   22.0670   21.4420 C.ar  284  PHE284     -0.0003
    249  CZ         1.3760   23.0650   20.5170 C.ar  284  PHE284     -0.0000
    250  N          3.0400   28.8510   11.8900 N.3   304  PHE304     -0.1227
    251  CA         3.2960   29.6250   13.0920 C.3   304  PHE304      0.1736
    252  C          2.3880   29.2840   14.2440 C.2   304  PHE304      0.2595
    253  O          2.5390   29.8410   15.3410 O.2   304  PHE304     -0.2718
    254  CB         3.1950   31.1120   12.7670 C.3   304  PHE304      0.0547
    255  CG         4.3170   31.6020   11.9110 C.ar  304  PHE304     -0.0202
    256  CD1        4.1480   31.7920   10.5670 C.ar  304  PHE304     -0.0042
    257  CD2        5.5510   31.8540   12.4560 C.ar  304  PHE304     -0.0042
    258  CE1        5.1780   32.2170    9.7960 C.ar  304  PHE304     -0.0003
    259  CE2        6.5900   32.2980   11.6840 C.ar  304  PHE304     -0.0003
    260  CZ         6.4110   32.4830   10.3600 C.ar  304  PHE304     -0.0000
    261  N          1.3990   28.4450   14.0080 N.am  305  CYS305     -0.1970
    262  CA         0.4440   28.1020   15.0530 C.3   305  CYS305      0.1712
    263  C         -0.0430   29.3880   15.7640 C.2   305  CYS305      0.2296
    264  O          0.0870   29.5860   16.9960 O.2   305  CYS305     -0.2864
    265  CB         1.0710   27.1420   16.0330 C.3   305  CYS305      0.0983
    266  SG        -0.1400   26.3140   17.0190 S.3   305  CYS305     -0.0798
@<TRIPOS>BOND
     1   258   260   ar
     2   258   256   ar
     3   260   259   ar
     4   256   255   ar
     5   118   117    2
     6   106   105    2
     7   117   116    1
     8   259   257   ar
     9   103   104    1
    10   250   251    1
    11   255   257   ar
    12   255   254    1
    13   104   105    1
    14   104   107    1
    15   105   115   am
    16   196   195    2
    17    97    96    2
    18    71    69   ar
    19    71    73   ar
    20    69    68   ar
    21   109   111   ar
    22   109   108   ar
    23   254   251    1
    24   115   116    1
    25   116   119    1
    26   111   113   ar
    27    96    95    1
    28   251   252    1
    29   195   194    1
    30   107   108    1
    31   182   181    2
    32    80    81    1
    33   192   191   ar
    34   192   190   ar
    35   108   110   ar
    36    83    82    2
    37    64    63    1
    38    64    67    1
    39    64    65    1
    40   191   189   ar
    41    73    72   ar
    42    68    67    1
    43    68    70   ar
    44   261   252   am
    45   261   262    1
    46   119   120    1
    47   190   188   ar
    48   113   114    1
    49   113   112   ar
    50    66    65    2
    51    82    81    1
    52   252   253    2
    53    95    98    1
    54    95    94    1
    55   194   193    1
    56   194   197    1
    57    81    84    1
    58    65    74   am
    59   189   186   ar
    60   181   193   am
    61   181   180    1
    62    98    99    1
    63   110   112   ar
    64   124   123    2
    65   126   127    1
    66   126   129    1
    67   126   125    1
    68   170   169    2
    69   188   186   ar
    70   188   187   ar
    71   127   128    2
    72   262   263    1
    73   262   265    1
    74    72    70   ar
    75   186   184   ar
    76   129   130    1
    77    94    92   am
    78    93    92    2
    79   180   179    1
    80   180   183    1
    81   123   125   am
    82   123   122    1
    83   197   198    1
    84    92    91    1
    85   187   185   ar
    86    90    91    1
    87   263   264    2
    88    74    75    1
    89    84    85    1
    90   169   168    1
    91   184   185   ar
    92   184   183    1
    93    99   100    1
    94   265   266    1
    95   122   121    1
    96    76    77    2
    97    76    75    1
    98   130   131    1
    99    52    53    1
   100    75    78    1
   101   198   200   ar
   102   198   199   ar
   103   203   200   ar
   104   203   205   ar
   105   171   168    1
   106   171   172    1
   107   168   167    1
   108   101   100    2
   109   131   132    1
   110    55    54    2
   111    85    87   ar
   112    85    86   ar
   113   100   102   am
   114    54    53    1
   115   173   172   ar
   116   173   175   ar
   117    53    56    1
   118    41    40    1
   119    51    49   am
   120   200   202   ar
   121    87    89   ar
   122   172   174   ar
   123   205   206   ar
   124   136   137    1
   125   199   201   ar
   126   175   177   ar
   127    42    40    1
   128   164   163    2
   129   242   241    2
   130    86    88   ar
   131    78    79    1
   132   167   163   am
   133    48    49    1
   134    48    47    1
   135    49    50    2
   136   139   138    2
   137    40    39    1
   138   132   133    2
   139    12    11    1
   140    89    88   ar
   141    56    57    1
   142   163   162    1
   143   174   176   ar
   144   202   201   ar
   145   202   204   ar
   146   141   140    1
   147   141   142    1
   148   177   176   ar
   149   177   178    1
   150    57    58    1
   151   206   204   ar
   152   140   137    1
   153   134   133    1
   154   137   138    1
   155    44    47    1
   156    44    43    1
   157    44    45    1
   158   245   247   ar
   159   245   244   ar
   160   156   155    2
   161   241   240    1
   162    46    45    2
   163   138   145   am
   164   247   249   ar
   165   133   135    1
   166    39    36    1
   167   240   243    1
   168   240   239    1
   169    11     9   ar
   170    11    10   ar
   171   243   244    1
   172     9     7   ar
   173   142   143    1
   174   244   246   ar
   175   162   161    1
   176   162   165    1
   177    36    37    1
   178    36    35    1
   179   148   147    2
   180   153   154    1
   181    38    37    2
   182   147   146    1
   183   155   154    1
   184   249   248   ar
   185    58    59    1
   186   145   146    1
   187    10     8   ar
   188   146   149    1
   189    59    60    2
   190   154   157    1
   191   165   166    1
   192   246   248   ar
   193     7     6   ar
   194   143   144    1
   195   157   158    1
   196     8     6   ar
   197    60    62    1
   198    60    61    1
   199     6     5    1
   200   149   150    1
   201   151   150    1
   202    34    32    1
   203   159   158   ar
   204   158   160   ar
   205    30    29    2
   206   232   231    2
   207    27    28    1
   208    28    29    1
   209    28    31    1
   210   150   152    1
   211   228   226   ar
   212   228   227   ar
   213     4     3    2
   214    19    21   ar
   215    19    18   ar
   216    21    22   ar
   217   221   220    2
   218   226   224   ar
   219    32    31    1
   220    32    33    1
   221     5     2    1
   222   227   225   ar
   223    16    15    2
   224   231   230    1
   225     3     2    1
   226     3    13   am
   227   236   238   ar
   228   236   234   ar
   229    14    13    1
   230    14    15    1
   231    14    17    1
   232   214   213    1
   233   214   215    2
   234     2     1    1
   235   217   215    1
   236   224   223   ar
   237   230   233    1
   238   230   229    1
   239   211   208    1
   240   211   212    1
   241    18    17    1
   242    18    20   ar
   243   238   237   ar
   244   220   229   am
   245   220   219    1
   246    22    24   ar
   247    22    20   ar
   248   225   223   ar
   249   213   212    1
   250   208   207    1
   251   208   209    1
   252   215   216    1
   253   223   222    1
   254   234   233    1
   255   234   235   ar
   256    24    26   ar
   257    20    23   ar
   258   219   222    1
   259   219   218    1
   260   209   210    2
   261   237   235   ar
   262    26    25   ar
   263    23    25   ar
