@<TRIPOS>MOLECULE
tmp/3pz2B00.pdb
 193 191 0 0 0
SMALL
GASTEIGER

@<TRIPOS>ATOM
      1  N         -7.0540   29.4460   34.3660 N.3    26  TYR26      -0.1241
      2  CA        -6.0050   28.4650   34.6260 C.3    26  TYR26       0.1605
      3  C         -4.9030   29.0100   35.5470 C.2    26  TYR26       0.2264
      4  O         -4.3330   30.0790   35.3110 O.2    26  TYR26      -0.2867
      5  CB        -5.4240   27.9320   33.3100 C.3    26  TYR26       0.0534
      6  CG        -4.3240   26.9320   33.5350 C.ar   26  TYR26      -0.0201
      7  CD1       -4.6100   25.6440   33.9250 C.ar   26  TYR26      -0.0009
      8  CD2       -2.9930   27.2950   33.3930 C.ar   26  TYR26      -0.0009
      9  CE1       -3.6040   24.7410   34.1620 C.ar   26  TYR26       0.0417
     10  CE2       -1.9850   26.3960   33.6200 C.ar   26  TYR26       0.0417
     11  CZ        -2.2950   25.1270   34.0150 C.ar   26  TYR26       0.1957
     12  OH        -1.2880   24.2360   34.2420 O.3    26  TYR26      -0.2866
     13  N          1.2100   21.3080   39.5070 N.3    29  GLU29      -0.1245
     14  CA         1.0450   21.4060   38.0570 C.3    29  GLU29       0.1567
     15  C          1.2680   22.8310   37.5360 C.2    29  GLU29       0.2260
     16  O          1.9590   23.0240   36.5430 O.2    29  GLU29      -0.2867
     17  CB        -0.3330   20.8720   37.6090 C.3    29  GLU29       0.0388
     18  CG        -0.3030   19.5260   36.8420 C.3    29  GLU29       0.1160
     19  CD         0.0300   18.3040   37.7190 C.2    29  GLU29       0.3649
     20  OE1        1.1200   18.2670   38.3250 O.co2  29  GLU29      -0.2457
     21  OE2       -0.7880   17.3590   37.7780 O.co2  29  GLU29      -0.2457
     22  N          5.2170   23.8890   36.9150 N.3    33  SER33      -0.1217
     23  CA         5.3980   24.1650   35.4930 C.3    33  SER33       0.1889
     24  C          5.7480   25.6210   35.1870 C.2    33  SER33       0.2288
     25  O          5.6040   26.0730   34.0620 O.2    33  SER33      -0.2866
     26  CB         4.1610   23.7420   34.7270 C.3    33  SER33       0.2089
     27  OG         3.1070   24.6540   34.9500 O.3    33  SER33      -0.2183
     28  N          8.6570   26.7210   34.9860 N.3    35  TYR35      -0.1227
     29  CA         9.7420   26.6160   34.0070 C.3    35  TYR35       0.1736
     30  C          9.3340   26.7140   32.5090 C.2    35  TYR35       0.2595
     31  O         10.1900   26.9290   31.6740 O.2    35  TYR35      -0.2718
     32  CB        10.5700   25.3400   34.2330 C.3    35  TYR35       0.0548
     33  CG         9.9000   24.0830   33.7410 C.ar   35  TYR35      -0.0200
     34  CD1        9.1780   23.2670   34.6000 C.ar   35  TYR35      -0.0009
     35  CD2        9.9810   23.7320   32.3910 C.ar   35  TYR35      -0.0009
     36  CE1        8.5580   22.1240   34.1220 C.ar   35  TYR35       0.0417
     37  CE2        9.3760   22.6170   31.9050 C.ar   35  TYR35       0.0417
     38  CZ         8.6760   21.8100   32.7580 C.ar   35  TYR35       0.1957
     39  OH         8.0870   20.7040   32.2010 O.3    35  TYR35      -0.2866
     40  N          8.0560   26.5140   32.1920 N.am   36  LEU36      -0.1980
     41  CA         7.5500   26.6640   30.8140 C.3    36  LEU36       0.1596
     42  C          6.5770   27.8460   30.6780 C.2    36  LEU36       0.2287
     43  O          5.9260   28.0200   29.6310 O.2    36  LEU36      -0.2864
     44  CB         6.9030   25.3630   30.2940 C.3    36  LEU36       0.0297
     45  CG         5.7970   24.5880   31.0340 C.3    36  LEU36       0.0022
     46  CD1        4.4680   25.3660   31.1980 C.3    36  LEU36       0.0001
     47  CD2        5.5510   23.2290   30.2760 C.3    36  LEU36       0.0001
     48  N          5.7350   29.9290   27.5660 N.3    39  SER39      -0.1217
     49  CA         5.0960   29.1010   26.5440 C.3    39  SER39       0.1889
     50  C          3.6950   28.7040   26.9300 C.2    39  SER39       0.2288
     51  O          2.8300   28.6410   26.0650 O.2    39  SER39      -0.2866
     52  CB         5.9460   27.8960   26.2090 C.3    39  SER39       0.2089
     53  OG         7.1590   28.3280   25.5960 O.3    39  SER39      -0.2183
     54  N          0.5540   29.4070   24.7720 N.3    43  TRP43      -0.1241
     55  CA        -0.4580   28.4040   24.4590 C.3    43  TRP43       0.1605
     56  C         -1.8250   28.9200   24.8330 C.2    43  TRP43       0.2264
     57  O         -2.7760   28.7610   24.0740 O.2    43  TRP43      -0.2867
     58  CB        -0.1890   27.0800   25.1600 C.3    43  TRP43       0.0550
     59  CG         1.1350   26.4620   24.7650 C.ar   43  TRP43       0.0003
     60  CD1        1.7480   26.5260   23.5460 C.ar   43  TRP43       0.0946
     61  CD2        1.9940   25.7040   25.6080 C.ar   43  TRP43       0.0152
     62  NE1        2.9470   25.8860   23.5840 N.ar   43  TRP43      -0.2442
     63  CE2        3.1310   25.3650   24.8410 C.ar   43  TRP43       0.0810
     64  CE3        1.9210   25.2950   26.9480 C.ar   43  TRP43       0.0012
     65  CZ2        4.1840   24.6260   25.3520 C.ar   43  TRP43       0.0191
     66  CZ3        2.9860   24.5530   27.4770 C.ar   43  TRP43       0.0001
     67  CH2        4.1010   24.2270   26.6770 C.ar   43  TRP43       0.0015
     68  N         13.2010   28.6830   23.1870 N.3    87  LEU87      -0.1231
     69  CA        11.7860   28.3030   23.2380 C.3    87  LEU87       0.1693
     70  C         10.8990   29.4810   23.6520 C.2    87  LEU87       0.2592
     71  O          9.8900   29.7980   22.9740 O.2    87  LEU87      -0.2718
     72  CB        11.5520   27.1350   24.1700 C.3    87  LEU87       0.0284
     73  CG        12.1700   25.7670   23.7870 C.3    87  LEU87       0.0019
     74  CD1       12.2510   24.7650   25.0000 C.3    87  LEU87       0.0001
     75  CD2       11.4580   25.1170   22.5460 C.3    87  LEU87       0.0001
     76  N         11.2910   30.1370   24.7350 N.am   88  TYR88      -0.1976
     77  CA        10.4760   31.1530   25.3840 C.3    88  TYR88       0.1639
     78  C         10.7330   32.4420   24.6320 C.2    88  TYR88       0.2290
     79  O          9.8800   33.3310   24.6100 O.2    88  TYR88      -0.2864
     80  CB        10.8110   31.2120   26.8990 C.3    88  TYR88       0.0560
     81  CG        10.8300   29.8040   27.4490 C.ar   88  TYR88      -0.0198
     82  CD1        9.6760   29.0150   27.3600 C.ar   88  TYR88      -0.0009
     83  CD2       12.0010   29.2210   27.9550 C.ar   88  TYR88      -0.0009
     84  CE1        9.6640   27.7170   27.7680 C.ar   88  TYR88       0.0417
     85  CE2       12.0010   27.8400   28.3660 C.ar   88  TYR88       0.0417
     86  CZ        10.8190   27.1260   28.2700 C.ar   88  TYR88       0.1957
     87  OH        10.7070   25.8110   28.6580 O.3    88  TYR88      -0.2866
     88  N         13.8870   21.2690   16.5890 N.3   135  ARG135     -0.1245
     89  CA        13.0050   22.2390   17.2830 C.3   135  ARG135      0.1563
     90  C         13.5270   23.6750   17.2560 C.2   135  ARG135      0.2260
     91  O         12.7880   24.6290   17.0930 O.2   135  ARG135     -0.2867
     92  CB        12.9010   21.8830   18.7620 C.3   135  ARG135      0.0307
     93  CG        11.9100   20.8420   19.0620 C.3   135  ARG135      0.0489
     94  CD        11.7940   20.5990   20.5700 C.3   135  ARG135      0.2205
     95  NE        13.0030   19.9830   21.0220 N.pl3 135  ARG135     -0.0865
     96  CZ        13.6000   20.1680   22.2070 C.cat 135  ARG135      0.5346
     97  NH1       13.0860   20.9180   23.1580 N.pl3 135  ARG135      0.1354
     98  NH2       14.7440   19.5490   22.4330 N.pl3 135  ARG135      0.1354
     99  N         -2.4000   10.5150   20.2760 N.3   229  ASP229     -0.1239
    100  CA        -2.3860   11.6190   21.2160 C.3   229  ASP229      0.1674
    101  C         -2.8750   12.8700   20.4600 C.2   229  ASP229      0.2266
    102  O         -2.4560   13.1160   19.3170 O.2   229  ASP229     -0.2867
    103  CB        -0.9600   11.7450   21.8100 C.3   229  ASP229      0.1410
    104  CG        -0.7640   12.9730   22.6500 C.2   229  ASP229      0.3668
    105  OD1       -1.5830   13.8970   22.5920 O.co2 229  ASP229     -0.2456
    106  OD2        0.2260   13.0100   23.3890 O.co2 229  ASP229     -0.2456
    107  N         -2.3090   15.9120   20.6160 N.3   231  CYS231     -0.1221
    108  CA        -1.4370   16.9620   20.2210 C.3   231  CYS231      0.1808
    109  C         -0.8600   16.6710   18.7840 C.2   231  CYS231      0.2601
    110  O         -0.4810   17.6100   18.0500 O.2   231  CYS231     -0.2717
    111  CB        -0.3690   17.2540   21.2710 C.3   231  CYS231      0.0970
    112  SG         0.8370   16.0620   21.4560 S.3   231  CYS231     -0.0800
    113  N         -0.8700   15.4010   18.3720 N.am  232  TYR232     -0.1976
    114  CA        -0.3720   15.0410   17.0620 C.3   232  TYR232      0.1639
    115  C         -1.3100   15.5200   16.0020 C.2   232  TYR232      0.2290
    116  O         -0.9270   15.6310   14.8450 O.2   232  TYR232     -0.2864
    117  CB        -0.1480   13.5550   16.9400 C.3   232  TYR232      0.0560
    118  CG         1.1110   13.1260   17.6800 C.ar  232  TYR232     -0.0198
    119  CD1        2.3690   13.5800   17.2650 C.ar  232  TYR232     -0.0009
    120  CD2        1.0320   12.2740   18.7910 C.ar  232  TYR232     -0.0009
    121  CE1        3.5180   13.2210   17.9470 C.ar  232  TYR232      0.0417
    122  CE2        2.1730   11.8840   19.4720 C.ar  232  TYR232      0.0417
    123  CZ         3.4000   12.3700   19.0600 C.ar  232  TYR232      0.1957
    124  OH         4.5160   11.9800   19.7260 O.3   232  TYR232     -0.2866
    125  N          0.8140   18.2790   15.2220 N.3   235  TRP235     -0.1241
    126  CA         2.1150   18.0410   14.5800 C.3   235  TRP235      0.1605
    127  C          1.9290   17.4780   13.1730 C.2   235  TRP235      0.2264
    128  O          2.5750   17.9150   12.2510 O.2   235  TRP235     -0.2867
    129  CB         3.0900   17.2050   15.4610 C.3   235  TRP235      0.0550
    130  CG         3.0640   17.6350   16.8830 C.ar  235  TRP235      0.0003
    131  CD1        2.5350   16.9520   17.8960 C.ar  235  TRP235      0.0946
    132  CD2        3.4960   18.9030   17.4330 C.ar  235  TRP235      0.0152
    133  NE1        2.6210   17.6680   19.0520 N.ar  235  TRP235     -0.2442
    134  CE2        3.2060   18.8760   18.8000 C.ar  235  TRP235      0.0810
    135  CE3        4.0980   20.0400   16.8980 C.ar  235  TRP235      0.0012
    136  CZ2        3.4810   19.9610   19.6670 C.ar  235  TRP235      0.0191
    137  CZ3        4.3680   21.1400   17.7430 C.ar  235  TRP235      0.0001
    138  CH2        4.0440   21.0920   19.1130 C.ar  235  TRP235      0.0015
    139  N         -4.4270   14.3840   26.1880 N.3   271  ASP271     -0.1239
    140  CA        -3.7520   13.5710   25.1690 C.3   271  ASP271      0.1674
    141  C         -4.6650   12.4930   24.5980 C.2   271  ASP271      0.2266
    142  O         -4.7240   12.3160   23.3770 O.2   271  ASP271     -0.2867
    143  CB        -2.4460   12.9450   25.6730 C.3   271  ASP271      0.1410
    144  CG        -2.6250   12.0740   26.8980 C.2   271  ASP271      0.3668
    145  OD1       -1.8090   11.1410   27.0490 O.co2 271  ASP271     -0.2456
    146  OD2       -3.5530   12.3020   27.7170 O.co2 271  ASP271     -0.2456
    147  N         -4.8370   19.4190   29.9160 N.3   278  ASP278     -0.1225
    148  CA        -3.8930   20.4710   30.1790 C.3   278  ASP278      0.1790
    149  C         -4.0140   21.4860   29.0320 C.2   278  ASP278      0.2440
    150  O         -4.6850   21.2230   28.0490 O.2   278  ASP278     -0.2733
    151  CB        -2.4960   19.8890   30.3750 C.3   278  ASP278      0.1423
    152  CG        -1.9780   19.2420   29.1560 C.2   278  ASP278      0.3668
    153  OD1       -1.7220   19.9860   28.1610 O.co2 278  ASP278     -0.2456
    154  OD2       -1.8310   17.9960   29.2030 O.co2 278  ASP278     -0.2456
    155  N         -3.4680   22.6860   29.2120 N.am  279  PRO279     -0.2718
    156  CA        -3.4320   23.7720   28.2290 C.3   279  PRO279      0.1535
    157  C         -2.7760   23.5190   26.8420 C.2   279  PRO279      0.2599
    158  O         -3.1960   24.0660   25.8170 O.2   279  PRO279     -0.2715
    159  CB        -2.5800   24.8300   28.9710 C.3   279  PRO279      0.0310
    160  CG        -2.9320   24.6300   30.3630 C.3   279  PRO279      0.0237
    161  CD        -2.8900   23.1250   30.4880 C.3   279  PRO279      0.0939
    162  N         -1.6800   22.7820   26.8690 N.am  280  PHE280     -0.1960
    163  CA        -0.9470   22.3680   25.6910 C.3   280  PHE280      0.1771
    164  C         -1.8860   21.5300   24.8070 C.2   280  PHE280      0.2619
    165  O         -2.1210   21.8510   23.6260 O.2   280  PHE280     -0.2715
    166  CB         0.2680   21.5870   26.2200 C.3   280  PHE280      0.0574
    167  CG         1.1220   20.9140   25.1860 C.ar  280  PHE280     -0.0200
    168  CD1        0.7220   19.7240   24.5750 C.ar  280  PHE280     -0.0042
    169  CD2        2.3920   21.4000   24.9040 C.ar  280  PHE280     -0.0042
    170  CE1        1.5820   19.0490   23.6880 C.ar  280  PHE280     -0.0003
    171  CE2        3.2530   20.7140   24.0120 C.ar  280  PHE280     -0.0003
    172  CZ         2.8340   19.5560   23.4010 C.ar  280  PHE280     -0.0000
    173  N         -2.4450   20.4790   25.3770 N.am  281  HIS281     -0.1973
    174  CA        -3.3110   19.5710   24.5980 C.3   281  HIS281      0.1656
    175  C         -4.5520   20.2850   24.1640 C.2   281  HIS281      0.2291
    176  O         -5.0970   19.9790   23.1220 O.2   281  HIS281     -0.2864
    177  CB        -3.6000   18.2740   25.3540 C.3   281  HIS281      0.0771
    178  CG        -2.4450   17.3370   25.3180 C.ar  281  HIS281      0.0820
    179  ND1       -1.5620   17.1960   26.3650 N.ar  281  HIS281     -0.2267
    180  CD2       -1.9600   16.5660   24.3110 C.ar  281  HIS281      0.1154
    181  CE1       -0.6100   16.3370   26.0210 C.ar  281  HIS281      0.1986
    182  NE2       -0.8270   15.9480   24.7750 N.ar  281  HIS281     -0.2212
    183  N         -3.6520   22.3560   21.0340 N.3   284  PHE284     -0.1241
    184  CA        -3.3740   21.5250   19.8400 C.3   284  PHE284      0.1605
    185  C         -4.5650   20.7730   19.3360 C.2   284  PHE284      0.2264
    186  O         -4.7080   20.5920   18.1040 O.2   284  PHE284     -0.2867
    187  CB        -2.1290   20.6640   20.0390 C.3   284  PHE284      0.0534
    188  CG        -0.8970   21.4790   20.2140 C.ar  284  PHE284     -0.0203
    189  CD1       -0.5930   22.4840   19.3020 C.ar  284  PHE284     -0.0042
    190  CD2       -0.0450   21.2730   21.2780 C.ar  284  PHE284     -0.0042
    191  CE1        0.5120   23.2690   19.4520 C.ar  284  PHE284     -0.0003
    192  CE2        1.1030   22.0670   21.4420 C.ar  284  PHE284     -0.0003
    193  CZ         1.3760   23.0650   20.5170 C.ar  284  PHE284     -0.0000
@<TRIPOS>BOND
     1   128   127    2
     2   127   126    1
     3   126   125    1
     4   126   129    1
     5   116   115    2
     6   129   130    1
     7   115   114    1
     8    88    89    1
     9   130   132   ar
    10   130   131   ar
    11   135   132   ar
    12   135   137   ar
    13   117   114    1
    14   117   118    1
    15   114   113    1
    16    91    90    2
    17    90    89    1
    18   119   118   ar
    19   119   121   ar
    20    89    92    1
    21   132   134   ar
    22   118   120   ar
    23   137   138   ar
    24   131   133   ar
    25   121   123   ar
    26   110   109    2
    27   186   185    2
    28   113   109   am
    29    92    93    1
    30   109   108    1
    31   120   122   ar
    32   134   133   ar
    33   134   136   ar
    34   123   122   ar
    35   123   124    1
    36    93    94    1
    37   138   136   ar
    38   189   191   ar
    39   189   188   ar
    40   102   101    2
    41   185   184    1
    42   191   193   ar
    43   184   187    1
    44   184   183    1
    45   187   188    1
    46   188   190   ar
    47   108   107    1
    48   108   111    1
    49    99   100    1
    50   101   100    1
    51   193   192   ar
    52    94    95    1
    53    95    96    2
    54   100   103    1
    55   111   112    1
    56   190   192   ar
    57   103   104    1
    58    96    98    1
    59    96    97    1
    60    75    73    1
    61   105   104   ar
    62   104   106   ar
    63    71    70    2
    64   176   175    2
    65    68    69    1
    66    69    70    1
    67    69    72    1
    68   142   141    2
    69   172   170   ar
    70   172   171   ar
    71    60    62   ar
    72    60    59   ar
    73    62    63   ar
    74   165   164    2
    75    70    76   am
    76   170   168   ar
    77    73    72    1
    78    73    74    1
    79   171   169   ar
    80    57    56    2
    81   175   174    1
    82   180   182   ar
    83   180   178   ar
    84    55    54    1
    85    55    56    1
    86    55    58    1
    87   168   167   ar
    88   174   177    1
    89   174   173    1
    90   141   140    1
    91    79    78    2
    92    78    77    1
    93    76    77    1
    94    59    58    1
    95    59    61   ar
    96   182   181   ar
    97   164   173   am
    98   164   163    1
    99    63    65   ar
   100    63    61   ar
   101   169   167   ar
   102   140   143    1
   103   140   139    1
   104   167   166    1
   105   178   177    1
   106   178   179   ar
   107    65    67   ar
   108    77    80    1
   109    53    52    1
   110    61    64   ar
   111   143   144    1
   112   163   166    1
   113   163   162    1
   114   158   157    2
   115   181   179   ar
   116    51    50    2
   117    52    49    1
   118    49    50    1
   119    49    48    1
   120    67    66   ar
   121   157   162   am
   122   157   156    1
   123   144   145   ar
   124   144   146   ar
   125    80    81    1
   126    64    66   ar
   127    82    81   ar
   128    82    84   ar
   129    81    83   ar
   130    84    86   ar
   131    83    85   ar
   132   150   149    2
   133   153   152   ar
   134   156   159    1
   135   156   155    1
   136    86    85   ar
   137    86    87    1
   138   159   160    1
   139   149   155   am
   140   149   148    1
   141   152   154   ar
   142   152   151    1
   143   155   161    1
   144    43    42    2
   145   147   148    1
   146   148   151    1
   147    47    45    1
   148    44    41    1
   149    44    45    1
   150   160   161    1
   151    42    41    1
   152    41    40    1
   153    45    46    1
   154    31    30    2
   155    37    35   ar
   156    37    38   ar
   157    40    30   am
   158    39    38    1
   159    35    33   ar
   160    30    29    1
   161    38    36   ar
   162     5     6    1
   163     5     2    1
   164     8     6   ar
   165     8    10   ar
   166     6     7   ar
   167    10    11   ar
   168    33    32    1
   169    33    34   ar
   170     7     9   ar
   171    29    32    1
   172    29    28    1
   173    11     9   ar
   174    11    12    1
   175    25    24    2
   176    36    34   ar
   177     1     2    1
   178     2     3    1
   179    26    27    1
   180    26    23    1
   181    24    23    1
   182     4     3    2
   183    23    22    1
   184    16    15    2
   185    18    17    1
   186    18    19    1
   187    15    14    1
   188    17    14    1
   189    19    21   ar
   190    19    20   ar
   191    14    13    1
