@<TRIPOS>MOLECULE
tmp/3pz4B01.pdb
 177 176 0 0 0
SMALL
GASTEIGER

@<TRIPOS>ATOM
      1  N         44.2860  -60.3610    4.7250 N.3    73  TYR73      -0.1241
      2  CA        45.5380  -60.2390    4.0160 C.3    73  TYR73       0.1605
      3  C         45.4980  -60.5950    2.5290 C.2    73  TYR73       0.2264
      4  O         46.5510  -60.8440    1.9480 O.2    73  TYR73      -0.2867
      5  CB        46.6150  -61.0260    4.7300 C.3    73  TYR73       0.0534
      6  CG        46.9580  -60.3700    6.0530 C.ar   73  TYR73      -0.0201
      7  CD1       48.0790  -59.5660    6.1750 C.ar   73  TYR73      -0.0009
      8  CD2       46.1550  -60.5280    7.1650 C.ar   73  TYR73      -0.0009
      9  CE1       48.3860  -58.9280    7.3620 C.ar   73  TYR73       0.0417
     10  CE2       46.4550  -59.8950    8.3710 C.ar   73  TYR73       0.0417
     11  CZ        47.5940  -59.0970    8.4500 C.ar   73  TYR73       0.1957
     12  OH        47.9550  -58.4860    9.6120 O.3    73  TYR73      -0.2866
     13  N         44.8530  -58.4130    0.2420 N.3    75  CYS75      -0.1221
     14  CA        45.5920  -57.2530   -0.2560 C.3    75  CYS75       0.1808
     15  C         47.1180  -57.3440   -0.1890 C.2    75  CYS75       0.2601
     16  O         47.8180  -56.5270   -0.7830 O.2    75  CYS75      -0.2717
     17  CB        45.1640  -56.0010    0.5310 C.3    75  CYS75       0.0970
     18  SG        45.5400  -55.9710    2.3300 S.3    75  CYS75      -0.0800
     19  N         47.6290  -58.3080    0.5540 N.am   76  LEU76      -0.1979
     20  CA        49.0500  -58.5740    0.6180 C.3    76  LEU76       0.1596
     21  C         49.3730  -59.9000   -0.0410 C.2    76  LEU76       0.2287
     22  O         50.4410  -60.4410    0.1790 O.2    76  LEU76      -0.2864
     23  CB        49.4860  -58.5620    2.0740 C.3    76  LEU76       0.0297
     24  CG        49.4890  -57.1370    2.6580 C.3    76  LEU76       0.0022
     25  CD1       49.6410  -57.0900    4.1770 C.3    76  LEU76       0.0001
     26  CD2       50.5540  -56.2920    1.9990 C.3    76  LEU76       0.0001
     27  N         52.5990  -59.8850   -1.6970 N.3    79  SER79      -0.1217
     28  CA        53.6270  -59.4520   -0.7420 C.3    79  SER79       0.1889
     29  C         53.9320  -60.5480    0.2250 C.2    79  SER79       0.2288
     30  O         54.3540  -60.2900    1.3110 O.2    79  SER79      -0.2866
     31  CB        53.1650  -58.2290    0.0530 C.3    79  SER79       0.2089
     32  OG        53.2980  -57.0280   -0.6800 O.3    79  SER79      -0.2183
     33  N         57.2140  -60.4590    2.1330 N.3    82  TRP82      -0.1241
     34  CA        57.1790  -59.4110    3.1410 C.3    82  TRP82       0.1605
     35  C         56.5810  -59.9410    4.4170 C.2    82  TRP82       0.2264
     36  O         57.0180  -59.5940    5.5170 O.2    82  TRP82      -0.2867
     37  CB        56.3200  -58.2290    2.6830 C.3    82  TRP82       0.0550
     38  CG        57.0410  -57.2250    1.8760 C.ar   82  TRP82       0.0003
     39  CD1       56.8410  -56.9570    0.5930 C.ar   82  TRP82       0.0946
     40  CD2       58.1170  -56.4040    2.3050 C.ar   82  TRP82       0.0152
     41  NE1       57.6820  -55.9840    0.1790 N.ar   82  TRP82      -0.2442
     42  CE2       58.4880  -55.6240    1.2180 C.ar   82  TRP82       0.0810
     43  CE3       58.7680  -56.2290    3.5170 C.ar   82  TRP82       0.0012
     44  CZ2       59.5100  -54.6580    1.2780 C.ar   82  TRP82       0.0191
     45  CZ3       59.8170  -55.2430    3.5930 C.ar   82  TRP82       0.0001
     46  CH2       60.1570  -54.4790    2.4890 C.ar   82  TRP82       0.0015
     47  N         58.3130  -59.7920    7.9180 N.3    86  TRP86      -0.1241
     48  CA        57.8160  -59.0660    9.0500 C.3    86  TRP86       0.1605
     49  C         57.6540  -59.9870   10.2530 C.2    86  TRP86       0.2264
     50  O         57.9880  -59.6700   11.3830 O.2    86  TRP86      -0.2867
     51  CB        56.4980  -58.3500    8.6980 C.3    86  TRP86       0.0550
     52  CG        56.6660  -57.2780    7.6570 C.ar   86  TRP86       0.0003
     53  CD1       57.7750  -56.4620    7.4590 C.ar   86  TRP86       0.0946
     54  CD2       55.7110  -56.9070    6.6640 C.ar   86  TRP86       0.0152
     55  NE1       57.5410  -55.6100    6.3870 N.ar   86  TRP86      -0.2442
     56  CE2       56.2760  -55.8650    5.8970 C.ar   86  TRP86       0.0810
     57  CE3       54.4250  -57.3470    6.3570 C.ar   86  TRP86       0.0012
     58  CZ2       55.5980  -55.2850    4.8370 C.ar   86  TRP86       0.0191
     59  CZ3       53.7660  -56.7880    5.2990 C.ar   86  TRP86       0.0001
     60  CH2       54.3520  -55.7580    4.5470 C.ar   86  TRP86       0.0015
     61  N         61.0200  -55.3670   -4.2180 N.3   131  ALA131     -0.1245
     62  CA        60.5010  -55.2950   -2.8630 C.3   131  ALA131      0.1562
     63  C         60.3830  -56.6450   -2.1980 C.2   131  ALA131      0.2260
     64  O         60.9600  -56.8360   -1.1140 O.2   131  ALA131     -0.2867
     65  CB        59.1470  -54.4940   -2.7910 C.3   131  ALA131      0.0290
     66  N         63.2310  -46.4100   -3.1540 N.3   182  ARG182     -0.1245
     67  CA        63.0790  -47.6800   -2.4400 C.3   182  ARG182      0.1563
     68  C         63.8320  -48.7200   -3.1470 C.2   182  ARG182      0.2260
     69  O         64.4360  -49.5800   -2.5270 O.2   182  ARG182     -0.2867
     70  CB        61.6290  -48.1170   -2.3700 C.3   182  ARG182      0.0307
     71  CG        60.7770  -47.3480   -1.4280 C.3   182  ARG182      0.0489
     72  CD        59.3530  -47.9380   -1.5430 C.3   182  ARG182      0.2205
     73  NE        58.6920  -47.5720   -2.8040 N.pl3 182  ARG182     -0.0865
     74  CZ        57.5230  -46.9310   -2.8830 C.cat 182  ARG182      0.5346
     75  NH1       56.8230  -46.6130   -1.7880 N.pl3 182  ARG182      0.1354
     76  NH2       57.0320  -46.6240   -4.0710 N.pl3 182  ARG182      0.1354
     77  N         52.6840  -42.2080   13.5610 N.3   277  ASP277     -0.1239
     78  CA        52.4070  -43.5760   13.1780 C.3   277  ASP277      0.1674
     79  C         53.5900  -44.3810   13.6580 C.2   277  ASP277      0.2266
     80  O         54.7350  -43.9860   13.4500 O.2   277  ASP277     -0.2867
     81  CB        52.2510  -43.6290   11.6690 C.3   277  ASP277      0.1410
     82  CG        52.0650  -45.0330   11.0960 C.2   277  ASP277      0.3668
     83  OD1       52.2290  -46.0810   11.7690 O.co2 277  ASP277     -0.2456
     84  OD2       51.7780  -45.0730    9.8790 O.co2 277  ASP277     -0.2456
     85  N         54.9400  -47.0490   12.8170 N.3   279  CYS279     -0.1221
     86  CA        55.9000  -47.7140   11.9380 C.3   279  CYS279      0.1808
     87  C         57.1400  -46.8450   11.6400 C.2   279  CYS279      0.2601
     88  O         58.2160  -47.3690   11.3100 O.2   279  CYS279     -0.2717
     89  CB        55.2390  -48.2000   10.6800 C.3   279  CYS279      0.0970
     90  SG        54.7220  -47.0610    9.5170 S.3   279  CYS279     -0.0800
     91  N         56.9760  -45.5330   11.7950 N.am  280  TYR280     -0.1976
     92  CA        58.0520  -44.5730   11.6820 C.3   280  TYR280      0.1639
     93  C         58.9230  -44.5650   12.9090 C.2   280  TYR280      0.2290
     94  O         59.9980  -43.9390   12.9130 O.2   280  TYR280     -0.2864
     95  CB        57.4980  -43.1590   11.4970 C.3   280  TYR280      0.0560
     96  CG        56.7260  -42.9760   10.2310 C.ar  280  TYR280     -0.0198
     97  CD1       57.3110  -43.2160    9.0150 C.ar  280  TYR280     -0.0009
     98  CD2       55.4190  -42.5240   10.2580 C.ar  280  TYR280     -0.0009
     99  CE1       56.6240  -43.0420    7.8370 C.ar  280  TYR280      0.0417
    100  CE2       54.7040  -42.3330    9.0630 C.ar  280  TYR280      0.0417
    101  CZ        55.3200  -42.6090    7.8850 C.ar  280  TYR280      0.1957
    102  OH        54.6650  -42.4140    6.7450 O.3   280  TYR280     -0.2866
    103  N         61.2950  -46.3810   10.5790 N.3   283  TRP283     -0.1241
    104  CA        61.7480  -45.6610    9.3960 C.3   283  TRP283      0.1605
    105  C         62.3360  -44.3040    9.7060 C.2   283  TRP283      0.2264
    106  O         63.2790  -43.9020    9.0560 O.2   283  TRP283     -0.2867
    107  CB        60.5970  -45.4980    8.3840 C.3   283  TRP283      0.0550
    108  CG        59.9950  -46.7820    7.9340 C.ar  283  TRP283      0.0003
    109  CD1       58.7210  -47.1880    8.1500 C.ar  283  TRP283      0.0946
    110  CD2       60.6370  -47.8350    7.2080 C.ar  283  TRP283      0.0152
    111  NE1       58.5240  -48.4230    7.6000 N.ar  283  TRP283     -0.2442
    112  CE2       59.6730  -48.8370    6.9890 C.ar  283  TRP283      0.0810
    113  CE3       61.9130  -48.0040    6.6780 C.ar  283  TRP283      0.0012
    114  CZ2       59.9450  -50.0130    6.3020 C.ar  283  TRP283      0.0191
    115  CZ3       62.1930  -49.1730    5.9800 C.ar  283  TRP283      0.0001
    116  CH2       61.2090  -50.1680    5.7960 C.ar  283  TRP283      0.0015
    117  N         49.5150  -48.7740   14.1700 N.3   332  ASP332     -0.1239
    118  CA        49.9650  -47.4740   13.6640 C.3   332  ASP332      0.1674
    119  C         49.7670  -46.4720   14.8070 C.2   332  ASP332      0.2266
    120  O         50.7110  -45.8360   15.2500 O.2   332  ASP332     -0.2867
    121  CB        49.1550  -47.2130   12.3540 C.3   332  ASP332      0.1410
    122  CG        48.9600  -45.7520   11.9830 C.2   332  ASP332      0.3668
    123  OD1       49.2730  -44.8240   12.7230 O.co2 332  ASP332     -0.2456
    124  OD2       48.4040  -45.5190   10.8940 O.co2 332  ASP332     -0.2456
    125  N         48.4440  -55.1870   12.6810 N.3   339  ASP339     -0.1225
    126  CA        48.8650  -55.9170   11.5030 C.3   339  ASP339      0.1805
    127  C         50.3140  -56.3650   11.6670 C.2   339  ASP339      0.2598
    128  O         50.9680  -55.9000   12.5950 O.2   339  ASP339     -0.2718
    129  CB        48.5790  -55.0980   10.2600 C.3   339  ASP339      0.1424
    130  CG        49.2730  -53.7560   10.2580 C.2   339  ASP339      0.3668
    131  OD1       50.5170  -53.7390   10.2970 O.co2 339  ASP339     -0.2456
    132  OD2       48.5770  -52.7220   10.1600 O.co2 339  ASP339     -0.2456
    133  N         50.8060  -57.3140   10.8540 N.am  340  PHE340     -0.1962
    134  CA        52.1740  -57.7950   11.0240 C.3   340  PHE340      0.1771
    135  C         53.2470  -56.7720   10.6220 C.2   340  PHE340      0.2620
    136  O         54.3820  -56.8510   11.0880 O.2   340  PHE340     -0.2715
    137  CB        52.3430  -59.1010   10.2620 C.3   340  PHE340      0.0574
    138  CG        51.4190  -60.1900   10.7640 C.ar  340  PHE340     -0.0200
    139  CD1       51.6530  -60.7970   11.9830 C.ar  340  PHE340     -0.0042
    140  CD2       50.3030  -60.5380   10.0670 C.ar  340  PHE340     -0.0042
    141  CE1       50.8110  -61.7420   12.4790 C.ar  340  PHE340     -0.0003
    142  CE2       49.4500  -61.5200   10.5830 C.ar  340  PHE340     -0.0003
    143  CZ        49.7260  -62.0890   11.7840 C.ar  340  PHE340     -0.0000
    144  N         52.8510  -55.7930    9.8130 N.am  341  TYR341     -0.1960
    145  CA        53.7130  -54.6960    9.3510 C.3   341  TYR341      0.1771
    146  C         54.0840  -53.8330   10.5320 C.2   341  TYR341      0.2619
    147  O         55.2870  -53.6960   10.8420 O.2   341  TYR341     -0.2715
    148  CB        53.0310  -53.8940    8.2160 C.3   341  TYR341      0.0574
    149  CG        53.7580  -52.6490    7.8400 C.ar  341  TYR341     -0.0198
    150  CD1       54.7390  -52.6330    6.8680 C.ar  341  TYR341     -0.0009
    151  CD2       53.4630  -51.4760    8.4800 C.ar  341  TYR341     -0.0009
    152  CE1       55.4260  -51.4360    6.5630 C.ar  341  TYR341      0.0417
    153  CE2       54.1290  -50.3400    8.1970 C.ar  341  TYR341      0.0417
    154  CZ        55.1000  -50.3070    7.2490 C.ar  341  TYR341      0.1957
    155  OH        55.6770  -49.0750    7.0370 O.3   341  TYR341     -0.2866
    156  N         53.0590  -53.3760   11.2630 N.am  342  HIS342     -0.1973
    157  CA        53.2380  -52.5110   12.3770 C.3   342  HIS342      0.1656
    158  C         53.8060  -53.1660   13.5640 C.2   342  HIS342      0.2291
    159  O         54.4520  -52.4940   14.3960 O.2   342  HIS342     -0.2864
    160  CB        51.9270  -51.8350   12.7250 C.3   342  HIS342      0.0771
    161  CG        51.6080  -50.7230   11.7900 C.ar  342  HIS342      0.0820
    162  ND1       50.7180  -50.8480   10.7500 N.ar  342  HIS342     -0.2267
    163  CD2       52.1600  -49.4970   11.6730 C.ar  342  HIS342      0.1154
    164  CE1       50.7090  -49.7320   10.0450 C.ar  342  HIS342      0.1986
    165  NE2       51.5930  -48.9010   10.5730 N.ar  342  HIS342     -0.2212
    166  N         57.6230  -53.1620   12.5480 N.3   345  TYR345     -0.1241
    167  CA        58.2840  -51.8080   12.6530 C.3   345  TYR345      0.1605
    168  C         58.1590  -51.0880   13.9740 C.2   345  TYR345      0.2264
    169  O         59.1020  -50.4530   14.4110 O.2   345  TYR345     -0.2867
    170  CB        57.9400  -50.9070   11.4640 C.3   345  TYR345      0.0534
    171  CG        58.4970  -51.5020   10.2530 C.ar  345  TYR345     -0.0201
    172  CD1       59.8680  -51.6840   10.1040 C.ar  345  TYR345     -0.0009
    173  CD2       57.6890  -52.0470    9.3090 C.ar  345  TYR345     -0.0009
    174  CE1       60.3790  -52.2770    9.0000 C.ar  345  TYR345      0.0417
    175  CE2       58.2130  -52.6490    8.1900 C.ar  345  TYR345      0.0417
    176  CZ        59.5440  -52.7790    8.0420 C.ar  345  TYR345      0.1957
    177  OH        59.9910  -53.4190    6.8870 O.3   345  TYR345     -0.2866
@<TRIPOS>BOND
     1    61    62    1
     2    76    74    1
     3    66    67    1
     4    68    69    2
     5    68    67    1
     6    74    73    2
     7    74    75    1
     8    62    65    1
     9    62    63    1
    10    73    72    1
    11    67    70    1
    12    70    71    1
    13    63    64    2
    14    27    28    1
    15    72    71    1
    16    16    15    2
    17    28    31    1
    18    28    29    1
    19    32    31    1
    20    14    15    1
    21    14    13    1
    22    14    17    1
    23    15    19   am
    24    21    22    2
    25    21    20    1
    26    41    39   ar
    27    41    42   ar
    28    29    30    2
    29    17    18    1
    30    19    20    1
    31    39    38   ar
    32    20    23    1
    33    42    44   ar
    34    42    40   ar
    35    44    46   ar
    36    38    40   ar
    37    38    37    1
    38     4     3    2
    39    26    24    1
    40    23    24    1
    41    33    34    1
    42    40    43   ar
    43    46    45   ar
    44     3     2    1
    45    24    25    1
    46    37    34    1
    47    34    35    1
    48    43    45   ar
    49     2     1    1
    50     2     5    1
    51    35    36    2
    52    60    58   ar
    53    60    59   ar
    54     5     6    1
    55    58    56   ar
    56    59    57   ar
    57   116   115   ar
    58   116   114   ar
    59    56    55   ar
    60    56    54   ar
    61   115   113   ar
    62     6     7   ar
    63     6     8   ar
    64     7     9   ar
    65   114   112   ar
    66    57    54   ar
    67    55    53   ar
    68   152   150   ar
    69   152   154   ar
    70    54    52   ar
    71   113   110   ar
    72   102   101    1
    73   150   149   ar
    74   177   176    1
    75   112   110   ar
    76   112   111   ar
    77   155   154    1
    78     8    10   ar
    79   110   108   ar
    80   154   153   ar
    81     9    11   ar
    82    53    52   ar
    83   111   109   ar
    84    52    51    1
    85    99   101   ar
    86    99    97   ar
    87   149   148    1
    88   149   151   ar
    89   101   100   ar
    90    47    48    1
    91   108   109   ar
    92   108   107    1
    93   176   175   ar
    94   176   174   ar
    95   175   173   ar
    96   153   151   ar
    97   148   145    1
    98    10    11   ar
    99   107   104    1
   100    11    12    1
   101    51    48    1
   102   174   172   ar
   103    97    96   ar
   104    48    49    1
   105   106   105    2
   106   100    98   ar
   107   173   171   ar
   108   145   144    1
   109   145   146    1
   110   104   105    1
   111   104   103    1
   112    90    89    1
   113   144   135   am
   114    84    82   ar
   115   164   165   ar
   116   164   162   ar
   117   140   142   ar
   118   140   138   ar
   119   172   171   ar
   120   132   130   ar
   121    96    98   ar
   122    96    95    1
   123   171   170    1
   124    49    50    2
   125   130   129    1
   126   130   131   ar
   127   129   126    1
   128   137   138    1
   129   137   134    1
   130   146   147    2
   131   146   156   am
   132   165   163   ar
   133   142   143   ar
   134   135   134    1
   135   135   136    2
   136    89    86    1
   137   162   161   ar
   138   138   139   ar
   139   133   134    1
   140   133   127   am
   141   124   122   ar
   142    82    81    1
   143    82    83   ar
   144   156   157    1
   145    88    87    2
   146   170   167    1
   147    95    92    1
   148   126   127    1
   149   126   125    1
   150    87    91   am
   151    87    86    1
   152   127   128    2
   153    81    78    1
   154   163   161   ar
   155    92    91    1
   156    92    93    1
   157   143   141   ar
   158   161   160    1
   159    86    85    1
   160   139   141   ar
   161   122   121    1
   162   122   123   ar
   163   121   118    1
   164   157   160    1
   165   157   158    1
   166   166   167    1
   167   167   168    1
   168    93    94    2
   169    78    77    1
   170    78    79    1
   171    80    79    2
   172   158   159    2
   173   118   117    1
   174   118   119    1
   175   168   169    2
   176   119   120    2
