@<TRIPOS>MOLECULE
tmp/3pzcA00.pdb
 219 207 0 0 0
SMALL
GASTEIGER

@<TRIPOS>ATOM
      1  N         95.4920   26.1920    8.0910 N.3   113  ALA113     -0.1245
      2  CA        94.9890   27.1700    9.0490 C.3   113  ALA113      0.1562
      3  C         95.5850   26.8470   10.4060 C.2   113  ALA113      0.2260
      4  O         95.7890   25.6840   10.7240 O.2   113  ALA113     -0.2867
      5  CB        93.4730   27.1250    9.1030 C.3   113  ALA113      0.0290
      6  N         94.4520   27.0210   13.5460 N.3   115  CYS115     -0.1221
      7  CA        93.6900   26.4530   14.6560 C.3   115  CYS115      0.1808
      8  C         93.4630   24.9290   14.6070 C.2   115  CYS115      0.2601
      9  O         93.2590   24.2990   15.6460 O.2   115  CYS115     -0.2717
     10  CB        92.3560   27.1850   14.8000 C.3   115  CYS115      0.0970
     11  SG        91.2650   26.8900   13.4310 S.3   115  CYS115     -0.0800
     12  N         93.5130   24.3400   13.4160 N.am  116  TYR116     -0.1976
     13  CA        93.1450   22.9280   13.2390 C.3   116  TYR116      0.1639
     14  C         93.6740   21.9680   14.3010 C.2   116  TYR116      0.2290
     15  O         92.9080   21.2150   14.8900 O.2   116  TYR116     -0.2864
     16  CB        93.5200   22.4110   11.8420 C.3   116  TYR116      0.0560
     17  CG        92.5350   22.8080   10.7720 C.ar  116  TYR116     -0.0198
     18  CD1       91.2150   22.3780   10.8200 C.ar  116  TYR116     -0.0009
     19  CD2       92.9220   23.6100    9.7100 C.ar  116  TYR116     -0.0009
     20  CE1       90.3030   22.7390    9.8390 C.ar  116  TYR116      0.0417
     21  CE2       92.0160   23.9770    8.7260 C.ar  116  TYR116      0.0417
     22  CZ        90.7090   23.5340    8.8000 C.ar  116  TYR116      0.1957
     23  OH        89.8080   23.9010    7.8290 O.3   116  TYR116     -0.2866
     24  N         98.5630   27.4770    1.4030 N.3   143  ARG143     -0.1245
     25  CA        97.4300   27.2780    0.5180 C.3   143  ARG143      0.1563
     26  C         97.9110   27.2870   -0.9200 C.2   143  ARG143      0.2260
     27  O         98.6580   28.1750   -1.3410 O.2   143  ARG143     -0.2867
     28  CB        96.3150   28.2890    0.7860 C.3   143  ARG143      0.0307
     29  CG        95.7480   28.1330    2.2130 C.3   143  ARG143      0.0489
     30  CD        94.5080   28.9780    2.4540 C.3   143  ARG143      0.2205
     31  NE        94.1520   28.9660    3.8650 N.pl3 143  ARG143     -0.0865
     32  CZ        93.2120   29.7340    4.4050 C.cat 143  ARG143      0.5346
     33  NH1       92.5270   30.5770    3.6460 N.pl3 143  ARG143      0.1354
     34  NH2       92.9660   29.6580    5.7030 N.pl3 143  ARG143      0.1354
     35  N         97.6340   28.2920   -3.8740 N.3   145  GLU145     -0.1245
     36  CA        97.0640   29.3220   -4.7410 C.3   145  GLU145      0.1567
     37  C         98.1530   30.2460   -5.2510 C.2   145  GLU145      0.2260
     38  O         98.2850   31.3750   -4.7880 O.2   145  GLU145     -0.2867
     39  CB        95.9800   30.1270   -4.0210 C.3   145  GLU145      0.0388
     40  CG        96.1210   30.2260   -2.5090 C.3   145  GLU145      0.1160
     41  CD        94.7750   30.4960   -1.8290 C.2   145  GLU145      0.3649
     42  OE1       93.7330   30.2500   -2.4710 O.co2 145  GLU145     -0.2457
     43  OE2       94.7490   30.9570   -0.6670 O.co2 145  GLU145     -0.2457
     44  N         99.3830   40.2560   -1.7920 N.3   151  ASP151     -0.1225
     45  CA        98.4180   39.9270   -0.7420 C.3   151  ASP151      0.1805
     46  C         97.8130   38.5370   -0.9310 C.2   151  ASP151      0.2598
     47  O         96.8460   38.1730   -0.2610 O.2   151  ASP151     -0.2718
     48  CB        97.3070   40.9850   -0.6490 C.3   151  ASP151      0.1424
     49  CG        96.4930   41.1050   -1.9360 C.2   151  ASP151      0.3668
     50  OD1       96.9850   40.7320   -3.0190 O.co2 151  ASP151     -0.2456
     51  OD2       95.3540   41.5910   -1.8610 O.co2 151  ASP151     -0.2456
     52  N         98.3900   37.7650   -1.8420 N.am  152  ARG152     -0.1966
     53  CA        97.9680   36.3880   -2.0770 C.3   152  ARG152      0.1729
     54  C         99.1860   35.4730   -2.1290 C.2   152  ARG152      0.2616
     55  O         99.7870   35.2700   -3.1930 O.2   152  ARG152     -0.2715
     56  CB        97.1820   36.2800   -3.3800 C.3   152  ARG152      0.0348
     57  CG        96.4060   34.9760   -3.5250 C.3   152  ARG152      0.0492
     58  CD        95.2120   35.1480   -4.4650 C.3   152  ARG152      0.2205
     59  NE        94.1320   34.2180   -4.1420 N.pl3 152  ARG152     -0.0865
     60  CZ        93.0650   34.5340   -3.4110 C.cat 152  ARG152      0.5346
     61  NH1       92.9240   35.7650   -2.9320 N.pl3 152  ARG152      0.1354
     62  NH2       92.1310   33.6200   -3.1640 N.pl3 152  ARG152      0.1354
     63  N         99.5470   34.9250   -0.9740 N.am  153  LEU153     -0.1977
     64  CA       100.7250   34.0820   -0.8580 C.3   153  LEU153      0.1596
     65  C        100.3440   32.6170   -0.8230 C.2   153  LEU153      0.2287
     66  O         99.1800   32.2730   -0.6560 O.2   153  LEU153     -0.2864
     67  CB       101.4650   34.4310    0.4260 C.3   153  LEU153      0.0297
     68  CG       101.7970   35.9110    0.5040 C.3   153  LEU153      0.0022
     69  CD1      102.4850   36.2210    1.8090 C.3   153  LEU153      0.0001
     70  CD2      102.6550   36.3030   -0.6890 C.3   153  LEU153      0.0001
     71  N        102.1430   31.5610    4.2920 N.3   156  PHE156     -0.1241
     72  CA       101.9200   32.7890    5.0450 C.3   156  PHE156      0.1605
     73  C        101.6590   32.4810    6.5130 C.2   156  PHE156      0.2264
     74  O        101.1480   31.4030    6.8400 O.2   156  PHE156     -0.2867
     75  CB       100.7390   33.5650    4.4410 C.3   156  PHE156      0.0534
     76  CG        99.4610   32.7750    4.3900 C.ar  156  PHE156     -0.0203
     77  CD1       98.5160   32.8990    5.3940 C.ar  156  PHE156     -0.0042
     78  CD2       99.2160   31.9000    3.3520 C.ar  156  PHE156     -0.0042
     79  CE1       97.3320   32.1670    5.3640 C.ar  156  PHE156     -0.0003
     80  CE2       98.0350   31.1660    3.3020 C.ar  156  PHE156     -0.0003
     81  CZ        97.0880   31.2980    4.3160 C.ar  156  PHE156     -0.0000
     82  N         99.7920   32.7750   10.1180 N.3   158  MET158     -0.1245
     83  CA        98.4560   33.0220   10.6450 C.3   158  MET158      0.1570
     84  C         98.4590   32.9560   12.1770 C.2   158  MET158      0.2261
     85  O         99.0330   32.0400   12.7740 O.2   158  MET158     -0.2867
     86  CB        97.4630   32.0050   10.0710 C.3   158  MET158      0.0387
     87  CG        96.0190   32.2020   10.5070 C.3   158  MET158      0.0595
     88  SD        94.8770   30.9220    9.9000 S.3   158  MET158     -0.1393
     89  CE        95.1550   31.0220    8.1340 C.3   158  MET158      0.0692
     90  N         95.8590   33.2570   15.5690 N.3   160  GLU160     -0.1245
     91  CA        94.4370   33.1500   15.9220 C.3   160  GLU160      0.1567
     92  C         94.1450   33.1030   17.4210 C.2   160  GLU160      0.2260
     93  O         94.9300   32.5820   18.2100 O.2   160  GLU160     -0.2867
     94  CB        93.8160   31.9020   15.2940 C.3   160  GLU160      0.0388
     95  CG        94.0360   31.7290   13.8090 C.3   160  GLU160      0.1160
     96  CD        93.1880   30.6040   13.2810 C.2   160  GLU160      0.3649
     97  OE1       92.0070   30.5540   13.6900 O.co2 160  GLU160     -0.2457
     98  OE2       93.6900   29.7690   12.4950 O.co2 160  GLU160     -0.2457
     99  N         83.8840   31.3880    2.9660 N.3   199  ASP199     -0.1225
    100  CA        85.1010   30.7210    2.5440 C.3   199  ASP199      0.1790
    101  C         85.0260   30.3840    1.0530 C.2   199  ASP199      0.2439
    102  O         83.9340   30.2840    0.4830 O.2   199  ASP199     -0.2733
    103  CB        85.3100   29.4660    3.3850 C.3   199  ASP199      0.1423
    104  CG        85.6140   29.7880    4.8280 C.2   199  ASP199      0.3668
    105  OD1       86.5250   30.6090    5.0810 O.co2 199  ASP199     -0.2456
    106  OD2       84.9380   29.2280    5.7160 O.co2 199  ASP199     -0.2456
    107  N         86.1880   30.2190    0.4090 N.am  200  PRO200     -0.2729
    108  CA        86.2020   29.8870   -1.0210 C.3   200  PRO200      0.1401
    109  C         85.9330   28.3950   -1.2560 C.2   200  PRO200      0.2269
    110  O         86.7820   27.7080   -1.8240 O.2   200  PRO200     -0.2865
    111  CB        87.6410   30.2180   -1.4450 C.3   200  PRO200      0.0296
    112  CG        88.3970   30.5690   -0.1730 C.3   200  PRO200      0.0237
    113  CD        87.5380   30.2120    0.9910 C.3   200  PRO200      0.0939
    114  N         80.5940   33.8140    9.0380 N.3   219  LYS219     -0.1245
    115  CA        81.9320   34.3280    8.7920 C.3   219  LYS219      0.1561
    116  C         81.9320   35.8190    8.4790 C.2   219  LYS219      0.2260
    117  O         81.3250   36.2510    7.5060 O.2   219  LYS219     -0.2867
    118  CB        82.6030   33.5650    7.6430 C.3   219  LYS219      0.0271
    119  CG        84.0670   33.9430    7.4170 C.3   219  LYS219      0.0035
    120  CD        84.6080   33.3820    6.0990 C.3   219  LYS219      0.0206
    121  CE        86.0970   33.7130    5.9240 C.3   219  LYS219      0.1093
    122  NZ        86.9410   32.8680    6.8030 N.3   219  LYS219     -0.1314
    123  N         84.6300   39.2280    7.8690 N.3   221  GLU221     -0.1245
    124  CA        85.9900   39.5860    7.5110 C.3   221  GLU221      0.1567
    125  C         86.2050   41.0700    7.7150 C.2   221  GLU221      0.2260
    126  O         85.2750   41.8680    7.5840 O.2   221  GLU221     -0.2867
    127  CB        86.2840   39.2160    6.0500 C.3   221  GLU221      0.0388
    128  CG        86.4980   37.7240    5.8460 C.3   221  GLU221      0.1160
    129  CD        86.6360   37.3300    4.3830 C.2   221  GLU221      0.3649
    130  OE1       86.2110   38.1090    3.5070 O.co2 221  GLU221     -0.2457
    131  OE2       87.1650   36.2290    4.1100 O.co2 221  GLU221     -0.2457
    132  N         90.7900   40.7320    2.5850 N.3   234  ALA234     -0.1231
    133  CA        90.4620   40.2420    3.9160 C.3   234  ALA234      0.1694
    134  C         91.7420   40.0280    4.7270 C.2   234  ALA234      0.2592
    135  O         92.5590   39.1710    4.3950 O.2   234  ALA234     -0.2718
    136  CB        89.6700   38.9460    3.8130 C.3   234  ALA234      0.0304
    137  N         91.9160   40.8090    5.7840 N.am  235  CYS235     -0.1956
    138  CA        93.1140   40.7170    6.6190 C.3   235  CYS235      0.1843
    139  C         92.8390   40.1090    8.0030 C.2   235  CYS235      0.2625
    140  O         93.7580   39.8330    8.7680 O.2   235  CYS235     -0.2714
    141  CB        93.7680   42.0930    6.7680 C.3   235  CYS235      0.0997
    142  SG        94.2190   42.8640    5.2090 S.3   235  CYS235     -0.0797
    143  N         91.5640   39.9170    8.3170 N.am  236  MET236     -0.1963
    144  CA        91.1640   39.1990    9.5100 C.3   236  MET236      0.1736
    145  C         89.8500   38.5280    9.1930 C.2   236  MET236      0.2617
    146  O         89.0950   39.0010    8.3490 O.2   236  MET236     -0.2715
    147  CB        90.9270   40.1420   10.6930 C.3   236  MET236      0.0427
    148  CG        92.0420   41.1030   11.0100 C.3   236  MET236      0.0599
    149  SD        91.6460   42.0330   12.5120 S.3   236  MET236     -0.1393
    150  CE        92.8570   43.3500   12.4260 C.3   236  MET236      0.0692
    151  N         89.5550   37.4380    9.8800 N.am  237  SER237     -0.1950
    152  CA        88.2420   36.8500    9.7470 C.3   237  SER237      0.1924
    153  C         87.7430   36.4460   11.1180 C.2   237  SER237      0.2314
    154  O         88.5210   36.2030   12.0430 O.2   237  SER237     -0.2863
    155  CB        88.2540   35.6700    8.7670 C.3   237  SER237      0.2116
    156  OG        89.0560   34.6020    9.2420 O.3   237  SER237     -0.2180
    157  N         85.2190   33.6590   12.6010 N.3   239  ASN239     -0.1240
    158  CA        84.5930   32.4310   12.1310 C.3   239  ASN239      0.1653
    159  C         83.8290   31.7210   13.2300 C.2   239  ASN239      0.2266
    160  O         84.3960   31.3800   14.2680 O.2   239  ASN239     -0.2867
    161  CB        85.6630   31.4930   11.5690 C.3   239  ASN239      0.1155
    162  CG        86.5740   32.1900   10.5920 C.2   239  ASN239      0.2627
    163  OD1       86.1530   32.5660    9.4950 O.2   239  ASN239     -0.2716
    164  ND2       87.8340   32.3750   10.9840 N.am  239  ASN239     -0.0877
    165  N         82.0450   28.3180   13.8990 N.3   241  HIS241     -0.1241
    166  CA        81.9640   26.9660   13.3410 C.3   241  HIS241      0.1621
    167  C         80.7600   26.1700   13.8600 C.2   241  HIS241      0.2264
    168  O         80.6000   24.9990   13.5210 O.2   241  HIS241     -0.2867
    169  CB        83.2310   26.1760   13.6640 C.3   241  HIS241      0.0745
    170  CG        84.4980   26.9560   13.4930 C.ar  241  HIS241      0.0817
    171  ND1       85.3440   27.2370   14.5470 N.ar  241  HIS241     -0.2268
    172  CD2       85.0710   27.5000   12.3930 C.ar  241  HIS241      0.1154
    173  CE1       86.3760   27.9340   14.1050 C.ar  241  HIS241      0.1986
    174  NE2       86.2340   28.1070   12.8030 N.ar  241  HIS241     -0.2212
    175  N         86.8210   31.1860   15.9270 N.3   263  CYS263     -0.1235
    176  CA        88.1740   31.7070   15.9740 C.3   263  CYS263      0.1677
    177  C         88.2330   33.0890   15.3360 C.2   263  CYS263      0.2270
    178  O         87.4440   33.4090   14.4460 O.2   263  CYS263     -0.2867
    179  CB        89.1340   30.7380   15.2700 C.3   263  CYS263      0.0956
    180  SG        88.6750   30.3520   13.5680 S.3   263  CYS263     -0.0801
    181  N         90.9540   35.2560   13.2760 N.3   265  ALA265     -0.1231
    182  CA        92.2270   35.0200   12.6170 C.3   265  ALA265      0.1694
    183  C         92.8180   36.3050   12.0470 C.2   265  ALA265      0.2592
    184  O         92.1290   37.0980   11.4140 O.2   265  ALA265     -0.2718
    185  CB        92.0730   33.9720   11.5340 C.3   265  ALA265      0.0304
    186  N         94.1050   36.4990   12.2900 N.am  266  PHE266     -0.1962
    187  CA        94.8250   37.6440   11.7610 C.3   266  PHE266      0.1771
    188  C         95.7860   37.1560   10.6970 C.2   266  PHE266      0.2620
    189  O         96.5840   36.2480   10.9420 O.2   266  PHE266     -0.2715
    190  CB        95.6140   38.3450   12.8620 C.3   266  PHE266      0.0574
    191  CG        94.8090   38.6660   14.0820 C.ar  266  PHE266     -0.0200
    192  CD1       94.2990   39.9390   14.2750 C.ar  266  PHE266     -0.0042
    193  CD2       94.5730   37.7010   15.0480 C.ar  266  PHE266     -0.0042
    194  CE1       93.5600   40.2400   15.4100 C.ar  266  PHE266     -0.0003
    195  CE2       93.8420   37.9950   16.1890 C.ar  266  PHE266     -0.0003
    196  CZ        93.3320   39.2620   16.3710 C.ar  266  PHE266     -0.0000
    197  N         95.6870   37.7340    9.5060 N.am  267  GLY267     -0.1954
    198  CA        96.6200   37.4280    8.4370 C.3   267  GLY267      0.1869
    199  C         97.8390   38.3210    8.6180 C.2   267  GLY267      0.2309
    200  O         97.8140   39.5030    8.2610 O.2   267  GLY267     -0.2863
    201  N        100.8440   38.5260    7.2400 N.3   269  ASP269     -0.1225
    202  CA       101.4720   39.0490    6.0350 C.3   269  ASP269      0.1805
    203  C        100.5670   40.0600    5.3740 C.2   269  ASP269      0.2597
    204  O        101.0250   41.0910    4.9150 O.2   269  ASP269     -0.2718
    205  CB       101.8020   37.9200    5.0610 C.3   269  ASP269      0.1424
    206  CG       103.0480   37.1490    5.4670 C.2   269  ASP269      0.3668
    207  OD1      104.1510   37.7250    5.3600 O.co2 269  ASP269     -0.2456
    208  OD2      102.9290   35.9780    5.8990 O.co2 269  ASP269     -0.2456
    209  N         99.2720   39.7730    5.3430 N.am  270  ARG270     -0.1979
    210  CA        98.3340   40.7320    4.7950 C.3   270  ARG270      0.1597
    211  C         98.2790   42.0120    5.6160 C.2   270  ARG270      0.2287
    212  O         98.2230   43.1040    5.0610 O.2   270  ARG270     -0.2864
    213  CB        96.9520   40.1030    4.6110 C.3   270  ARG270      0.0334
    214  CG        96.7820   39.4710    3.2300 C.3   270  ARG270      0.0492
    215  CD        95.4610   38.7250    3.1320 C.3   270  ARG270      0.2205
    216  NE        95.3180   38.0290    1.8570 N.pl3 270  ARG270     -0.0865
    217  CZ        94.2360   37.3380    1.5010 C.cat 270  ARG270      0.5346
    218  NH1       93.1960   37.2500    2.3160 N.pl3 270  ARG270      0.1354
    219  NH2       94.2040   36.7220    0.3380 N.pl3 270  ARG270      0.1354
@<TRIPOS>BOND
     1    37    38    2
     2    37    36    1
     3    36    39    1
     4    36    35    1
     5    58    59    1
     6    58    57    1
     7    59    60    2
     8    39    40    1
     9    57    56    1
    10    60    62    1
    11    60    61    1
    12    56    53    1
    13    55    54    2
    14    50    49   ar
    15    40    41    1
    16    42    41   ar
    17    54    53    1
    18    54    63   am
    19    53    52    1
    20    49    51   ar
    21    49    48    1
    22    52    46   am
    23    41    43   ar
    24   110   109    2
    25    44    45    1
    26   111   108    1
    27   111   112    1
    28    27    26    2
    29   109   108    1
    30   108   107    1
    31    63    64    1
    32    46    45    1
    33    46    47    2
    34    26    25    1
    35    64    65    1
    36    64    67    1
    37    65    66    2
    38    45    48    1
    39    70    68    1
    40   112   113    1
    41   219   217    1
    42   107   113    1
    43   107   101   am
    44    67    68    1
    45   102   101    2
    46    68    69    1
    47    25    28    1
    48    25    24    1
    49    28    29    1
    50   101   100    1
    51   217   216    2
    52   217   218    1
    53   216   215    1
    54    29    30    1
    55    30    31    1
    56   100    99    1
    57   100   103    1
    58   132   133    1
    59   215   214    1
    60   214   213    1
    61    80    78   ar
    62    80    81   ar
    63    78    76   ar
    64   103   104    1
    65   130   129   ar
    66    33    32    1
    67   136   133    1
    68    31    32    2
    69   133   134    1
    70   131   129   ar
    71    71    72    1
    72    81    79   ar
    73   129   128    1
    74    76    75    1
    75    76    77   ar
    76   135   134    2
    77    32    34    1
    78    75    72    1
    79   213   210    1
    80   134   137   am
    81   210   209    1
    82   210   211    1
    83   104   105   ar
    84   104   106   ar
    85   204   203    2
    86    72    73    1
    87   205   206    1
    88   205   202    1
    89   212   211    2
    90   142   141    1
    91   209   203   am
    92   207   206   ar
    93    79    77   ar
    94   203   202    1
    95   206   208   ar
    96   137   138    1
    97   128   127    1
    98   121   120    1
    99   121   122    1
   100   202   201    1
   101   127   124    1
   102   120   119    1
   103    73    74    2
   104   138   141    1
   105   138   139    1
   106   119   118    1
   107   117   116    2
   108   124   125    1
   109   124   123    1
   110   126   125    2
   111   118   115    1
   112    23    22    1
   113   139   143   am
   114   139   140    2
   115     1     2    1
   116    89    88    1
   117   200   199    2
   118   143   144    1
   119   146   145    2
   120   198   199    1
   121   198   197    1
   122   116   115    1
   123    21    22   ar
   124    21    19   ar
   125   155   156    1
   126   155   152    1
   127   115   114    1
   128    22    20   ar
   129     2     5    1
   130     2     3    1
   131   145   144    1
   132   145   151   am
   133   163   162    2
   134   197   188   am
   135   144   147    1
   136    19    17   ar
   137   152   151    1
   138   152   153    1
   139    20    18   ar
   140    88    87    1
   141    86    87    1
   142    86    83    1
   143    82    83    1
   144     3     4    2
   145   162   164   am
   146   162   161    1
   147    83    84    1
   148   147   148    1
   149   188   189    2
   150   188   187    1
   151    17    18   ar
   152    17    16    1
   153   148   149    1
   154   153   154    2
   155   184   183    2
   156   185   182    1
   157   161   158    1
   158   187   186    1
   159   187   190    1
   160    16    13    1
   161   183   186   am
   162   183   182    1
   163   158   157    1
   164   158   159    1
   165    84    85    2
   166   172   174   ar
   167   172   170   ar
   168   150   149    1
   169    98    96   ar
   170   182   181    1
   171   174   173   ar
   172   190   191    1
   173   159   160    2
   174    13    12    1
   175    13    14    1
   176    96    97   ar
   177    96    95    1
   178   166   169    1
   179   166   167    1
   180   166   165    1
   181    12     8   am
   182    11    10    1
   183   170   169    1
   184   170   171   ar
   185   168   167    2
   186     6     7    1
   187   180   179    1
   188    95    94    1
   189   191   192   ar
   190   191   193   ar
   191   173   171   ar
   192   192   194   ar
   193    14    15    2
   194   178   177    2
   195     8     7    1
   196     8     9    2
   197     7    10    1
   198   193   195   ar
   199   179   176    1
   200    94    91    1
   201   177   176    1
   202   194   196   ar
   203    90    91    1
   204    91    92    1
   205   175   176    1
   206   195   196   ar
   207    92    93    2
