@<TRIPOS>MOLECULE
tmp/3pzcB00.pdb
 163 150 0 0 0
SMALL
GASTEIGER

@<TRIPOS>ATOM
      1  N        115.1530   21.7590    3.6900 N.3   111  PRO111     -0.2116
      2  CA       115.9960   20.8820    4.5160 C.3   111  PRO111      0.1372
      3  C        117.0510   21.6570    5.2910 C.2   111  PRO111      0.2244
      4  O        117.5690   21.1620    6.2850 O.2   111  PRO111     -0.2868
      5  CB       116.7090   19.9900    3.4840 C.3   111  PRO111      0.0268
      6  CG       116.1810   20.3750    2.1510 C.3   111  PRO111      0.0207
      7  CD       115.5530   21.7210    2.2760 C.3   111  PRO111      0.0892
      8  N        112.8620   17.3540    7.9690 N.3   142  ARG142     -0.1245
      9  CA       113.5800   16.1160    7.7360 C.3   142  ARG142      0.1563
     10  C        112.5760   14.9940    7.9660 C.2   142  ARG142      0.2260
     11  O        111.9890   14.8800    9.0460 O.2   142  ARG142     -0.2867
     12  CB       114.7680   15.9740    8.6940 C.3   142  ARG142      0.0307
     13  CG       115.3450   14.5620    8.7580 C.3   142  ARG142      0.0489
     14  CD       115.9170   14.2220   10.1450 C.3   142  ARG142      0.2205
     15  NE       117.0450   15.0760   10.4920 N.pl3 142  ARG142     -0.0865
     16  CZ       118.3150   14.6860   10.4820 C.cat 142  ARG142      0.5346
     17  NH1      118.6270   13.4360   10.1620 N.pl3 142  ARG142      0.1354
     18  NH2      119.2720   15.5460   10.8010 N.pl3 142  ARG142      0.1354
     19  N        112.0840   11.9790    9.0530 N.3   144  GLU144     -0.1245
     20  CA       112.6990   10.9400    9.8670 C.3   144  GLU144      0.1567
     21  C        112.0110   10.8920   11.2300 C.2   144  GLU144      0.2260
     22  O        112.4630   11.5110   12.1910 O.2   144  GLU144     -0.2867
     23  CB       114.1990   11.2130   10.0240 C.3   144  GLU144      0.0388
     24  CG       114.9330   10.1980   10.8990 C.3   144  GLU144      0.1160
     25  CD       116.4480   10.3500   10.8510 C.2   144  GLU144      0.3649
     26  OE1      117.0510   10.6190   11.9140 O.co2 144  GLU144     -0.2457
     27  OE2      117.0350   10.1980    9.7550 O.co2 144  GLU144     -0.2457
     28  N        113.1910   13.7160   21.7230 N.3   149  LEU149     -0.1231
     29  CA       112.8740   15.1400   21.7200 C.3   149  LEU149      0.1693
     30  C        113.9100   15.9640   20.9730 C.2   149  LEU149      0.2592
     31  O        113.6700   17.1210   20.6310 O.2   149  LEU149     -0.2718
     32  CB       112.7160   15.6540   23.1530 C.3   149  LEU149      0.0284
     33  CG       111.2680   15.7270   23.6380 C.3   149  LEU149      0.0019
     34  CD1      110.4470   14.5780   23.0880 C.3   149  LEU149      0.0001
     35  CD2      111.1870   15.7880   25.1610 C.3   149  LEU149      0.0001
     36  N        115.0640   15.3640   20.7200 N.am  150  ASP150     -0.1960
     37  CA       116.1150   16.0530   19.9830 C.3   150  ASP150      0.1840
     38  C        116.1770   15.5890   18.5270 C.2   150  ASP150      0.2622
     39  O        117.0970   15.9600   17.7920 O.2   150  ASP150     -0.2715
     40  CB       117.4620   15.8380   20.6540 C.3   150  ASP150      0.1450
     41  CG       117.8870   14.3860   20.6420 C.2   150  ASP150      0.3671
     42  OD1      117.0160   13.5040   20.4820 O.co2 150  ASP150     -0.2456
     43  OD2      119.0960   14.1360   20.7970 O.co2 150  ASP150     -0.2456
     44  N        115.1930   14.7820   18.1300 N.am  151  ARG151     -0.1963
     45  CA       115.0610   14.3080   16.7540 C.3   151  ARG151      0.1729
     46  C        113.6560   14.6150   16.2240 C.2   151  ARG151      0.2616
     47  O        112.7740   13.7560   16.2500 O.2   151  ARG151     -0.2715
     48  CB       115.3600   12.8040   16.6720 C.3   151  ARG151      0.0348
     49  CG       116.7850   12.4680   16.2080 C.3   151  ARG151      0.0492
     50  CD       117.2730   11.0800   16.6550 C.3   151  ARG151      0.2205
     51  NE       116.3130   10.0010   16.4170 N.pl3 151  ARG151     -0.0865
     52  CZ       116.5300    8.7240   16.7270 C.cat 151  ARG151      0.5346
     53  NH1      117.6820    8.3600   17.2780 N.pl3 151  ARG151      0.1354
     54  NH2      115.5990    7.8090   16.4890 N.pl3 151  ARG151      0.1354
     55  N        113.4500   15.8480   15.7620 N.am  152  LEU152     -0.1977
     56  CA       112.1470   16.2700   15.2670 C.3   152  LEU152      0.1596
     57  C        112.0740   16.1770   13.7510 C.2   152  LEU152      0.2287
     58  O        113.1020   16.1530   13.0850 O.2   152  LEU152     -0.2864
     59  CB       111.8940   17.7110   15.6640 C.3   152  LEU152      0.0297
     60  CG       112.0780   18.0570   17.1350 C.3   152  LEU152      0.0022
     61  CD1      111.9210   19.5550   17.3000 C.3   152  LEU152      0.0001
     62  CD2      111.0420   17.2960   17.9650 C.3   152  LEU152      0.0001
     63  N        111.7900   21.5330   12.5620 N.3   155  PHE155     -0.1241
     64  CA       112.6090   22.2510   13.5450 C.3   155  PHE155      0.1605
     65  C        113.1690   23.5400   12.9460 C.2   155  PHE155      0.2264
     66  O        113.3580   23.6450   11.7300 O.2   155  PHE155     -0.2867
     67  CB       113.7730   21.3650   14.0000 C.3   155  PHE155      0.0534
     68  CG       114.5820   20.8180   12.8580 C.ar  155  PHE155     -0.0203
     69  CD1      114.2140   19.6350   12.2400 C.ar  155  PHE155     -0.0042
     70  CD2      115.6900   21.5130   12.3750 C.ar  155  PHE155     -0.0042
     71  CE1      114.9450   19.1390   11.1670 C.ar  155  PHE155     -0.0003
     72  CE2      116.4260   21.0250   11.3160 C.ar  155  PHE155     -0.0003
     73  CZ       116.0520   19.8340   10.7040 C.ar  155  PHE155     -0.0000
     74  N        115.9090   26.3820   12.1550 N.3   157  MET157     -0.1245
     75  CA       117.3410   26.5540   11.9510 C.3   157  MET157      0.1570
     76  C        117.6650   28.0240   11.8250 C.2   157  MET157      0.2261
     77  O        116.9130   28.7920   11.2270 O.2   157  MET157     -0.2867
     78  CB       117.8110   25.8290   10.6870 C.3   157  MET157      0.0387
     79  CG       117.7510   24.3180   10.7820 C.3   157  MET157      0.0595
     80  SD       118.7280   23.6270   12.1530 S.3   157  MET157     -0.1393
     81  CE       120.3500   24.3140   11.8650 C.3   157  MET157      0.0692
     82  N        121.0290   30.5180   10.7800 N.3   159  GLU159     -0.1245
     83  CA       122.3730   30.4150   10.2270 C.3   159  GLU159      0.1567
     84  C        123.0030   31.7380    9.8090 C.2   159  GLU159      0.2260
     85  O        122.3420   32.6130    9.2590 O.2   159  GLU159     -0.2867
     86  CB       122.3880   29.4860    9.0200 C.3   159  GLU159      0.0388
     87  CG       121.7140   28.1510    9.2100 C.3   159  GLU159      0.1160
     88  CD       121.8560   27.2970    7.9760 C.2   159  GLU159      0.3649
     89  OE1      122.8830   27.4680    7.2980 O.co2 159  GLU159     -0.2457
     90  OE2      120.9500   26.4870    7.6650 O.co2 159  GLU159     -0.2457
     91  N        133.6560   19.2830    8.2850 N.3   198  LYS198     -0.1245
     92  CA       132.5580   19.7420    9.1410 C.3   198  LYS198      0.1561
     93  C        132.9150   19.7910   10.6250 C.2   198  LYS198      0.2260
     94  O        133.5080   18.8670   11.1720 O.2   198  LYS198     -0.2867
     95  CB       131.3060   18.8840    8.9360 C.3   198  LYS198      0.0271
     96  CG       130.0570   19.4050    9.6470 C.3   198  LYS198      0.0035
     97  CD       128.9820   18.3220    9.7240 C.3   198  LYS198      0.0206
     98  CE       127.6440   18.8680   10.2200 C.3   198  LYS198      0.1093
     99  NZ       126.7230   19.2770    9.1150 N.3   198  LYS198     -0.1314
    100  N        131.3520   20.2670   14.5110 N.3   200  GLU200     -0.1245
    101  CA       130.1050   20.0970   15.2550 C.3   200  GLU200      0.1567
    102  C        130.2570   20.2760   16.7520 C.2   200  GLU200      0.2260
    103  O        131.2130   19.7980   17.3580 O.2   200  GLU200     -0.2867
    104  CB       129.4510   18.7540   14.9520 C.3   200  GLU200      0.0388
    105  CG       128.7570   18.7230   13.6000 C.3   200  GLU200      0.1160
    106  CD       127.7890   17.5640   13.4630 C.2   200  GLU200      0.3649
    107  OE1      128.0520   16.4880   14.0450 O.co2 200  GLU200     -0.2457
    108  OE2      126.7630   17.7310   12.7680 O.co2 200  GLU200     -0.2457
    109  N        124.3080   17.0250   18.2140 N.3   213  ALA213     -0.1245
    110  CA       124.8860   18.1850   17.5360 C.3   213  ALA213      0.1562
    111  C        123.8910   19.3480   17.5330 C.2   213  ALA213      0.2260
    112  O        122.8210   19.2550   16.9490 O.2   213  ALA213     -0.2867
    113  CB       125.2910   17.8160   16.1000 C.3   213  ALA213      0.0290
    114  N        125.0270   22.7980   17.1840 N.3   215  MET215     -0.1230
    115  CA       125.5040   23.8040   16.2500 C.3   215  MET215      0.1702
    116  C        126.5510   23.1440   15.3750 C.2   215  MET215      0.2593
    117  O        127.2530   22.2400   15.8230 O.2   215  MET215     -0.2718
    118  CB       126.1370   24.9870   16.9670 C.3   215  MET215      0.0401
    119  CG       125.5150   25.3890   18.2890 C.3   215  MET215      0.0596
    120  SD       126.5450   26.6940   18.9780 S.3   215  MET215     -0.1393
    121  CE       125.7750   27.0130   20.5650 C.3   215  MET215      0.0692
    122  N        126.6730   23.6010   14.1340 N.am  216  SER216     -0.1952
    123  CA       127.6600   23.0270   13.2320 C.3   216  SER216      0.1924
    124  C        128.2530   24.0860   12.3200 C.2   216  SER216      0.2314
    125  O        127.7180   25.1840   12.2090 O.2   216  SER216     -0.2863
    126  CB       127.0300   21.9090   12.4030 C.3   216  SER216      0.2116
    127  OG       126.1050   22.4420   11.4860 O.3   216  SER216     -0.2180
    128  N        129.3730   24.2260    8.2840 N.3   218  ASN218     -0.1240
    129  CA       129.4170   23.5610    6.9830 C.3   218  ASN218      0.1653
    130  C        130.2310   24.3760    5.9820 C.2   218  ASN218      0.2266
    131  O        129.9540   25.5580    5.7620 O.2   218  ASN218     -0.2867
    132  CB       127.9960   23.3460    6.4510 C.3   218  ASN218      0.1155
    133  CG       127.0920   22.6670    7.4700 C.2   218  ASN218      0.2627
    134  OD1      127.2250   21.4730    7.7310 O.2   218  ASN218     -0.2716
    135  ND2      126.1760   23.4300    8.0580 N.am  218  ASN218     -0.0877
    136  N        125.5900   27.0060   11.6850 N.3   244  ALA244     -0.1245
    137  CA       124.1880   26.6430   11.8400 C.3   244  ALA244      0.1562
    138  C        123.8600   26.3180   13.2910 C.2   244  ALA244      0.2260
    139  O        124.5810   25.5610   13.9390 O.2   244  ALA244     -0.2867
    140  CB       123.8480   25.4330   10.9420 C.3   244  ALA244      0.0290
    141  N        120.8420   24.8120   15.7050 N.3   246  GLY246     -0.1225
    142  CA       119.5830   24.1090   15.8340 C.3   246  GLY246      0.1811
    143  C        118.7730   24.6830   16.9830 C.2   246  GLY246      0.2280
    144  O        118.9380   24.2590   18.1320 O.2   246  GLY246     -0.2866
    145  N        115.6870   24.5020   18.0610 N.3   248  ASP248     -0.1225
    146  CA       114.9040   23.5700   18.8640 C.3   248  ASP248      0.1805
    147  C        115.7940   22.6130   19.6270 C.2   248  ASP248      0.2597
    148  O        115.4810   22.2400   20.7570 O.2   248  ASP248     -0.2718
    149  CB       113.8790   22.8250   17.9970 C.3   248  ASP248      0.1424
    150  CG       112.7050   23.7140   17.6150 C.2   248  ASP248      0.3668
    151  OD1      111.9770   24.1380   18.5320 O.co2 248  ASP248     -0.2456
    152  OD2      112.5280   24.0370   16.4220 O.co2 248  ASP248     -0.2456
    153  N        116.9240   22.2320   19.0400 N.am  249  ARG249     -0.1979
    154  CA       117.8630   21.4150   19.7950 C.3   249  ARG249      0.1597
    155  C        118.4750   22.1940   20.9560 C.2   249  ARG249      0.2287
    156  O        118.6240   21.6630   22.0400 O.2   249  ARG249     -0.2864
    157  CB       118.9360   20.8130   18.9020 C.3   249  ARG249      0.0334
    158  CG       118.4790   19.5190   18.2680 C.3   249  ARG249      0.0492
    159  CD       119.5650   18.8620   17.4470 C.3   249  ARG249      0.2205
    160  NE       119.0910   17.5880   16.9150 N.pl3 249  ARG249     -0.0865
    161  CZ       119.8190   16.7800   16.1500 C.cat 249  ARG249      0.5346
    162  NH1      121.0630   17.1050   15.8240 N.pl3 249  ARG249      0.1354
    163  NH2      119.2960   15.6460   15.7150 N.pl3 249  ARG249      0.1354
@<TRIPOS>BOND
     1     6     7    1
     2     6     5    1
     3     7     1    1
     4     5     2    1
     5     1     2    1
     6     2     3    1
     7     3     4    2
     8   131   130    2
     9   130   129    1
    10   132   129    1
    11   132   133    1
    12   129   128    1
    13    89    88   ar
    14   133   134    2
    15   133   135   am
    16    90    88   ar
    17     9    10    1
    18     9     8    1
    19     9    12    1
    20    10    11    2
    21    88    87    1
    22    91    92    1
    23    12    13    1
    24    13    14    1
    25    95    92    1
    26    95    96    1
    27    86    87    1
    28    86    83    1
    29    19    20    1
    30    99    98    1
    31    92    93    1
    32    85    84    2
    33    96    97    1
    34    97    98    1
    35    27    25   ar
    36    84    83    1
    37    20    23    1
    38    20    21    1
    39    23    24    1
    40    14    15    1
    41    17    16    1
    42    83    82    1
    43    16    15    2
    44    16    18    1
    45    93    94    2
    46    78    79    1
    47    78    75    1
    48    73    71   ar
    49    73    72   ar
    50    79    80    1
    51    25    24    1
    52    25    26   ar
    53   140   137    1
    54    71    69   ar
    55    77    76    2
    56    21    22    2
    57    72    70   ar
    58   127   126    1
    59   136   137    1
    60    66    65    2
    61    76    75    1
    62   137   138    1
    63    81    80    1
    64    75    74    1
    65   125   124    2
    66    69    68   ar
    67   124   123    1
    68    70    68   ar
    69   126   123    1
    70    63    64    1
    71   108   106   ar
    72    68    67    1
    73    65    64    1
    74    58    57    2
    75   123   122    1
    76   138   139    2
    77   106   105    1
    78   106   107   ar
    79    64    67    1
    80   105   104    1
    81    57    56    1
    82   122   116   am
    83   100   101    1
    84   104   101    1
    85   101   102    1
    86    56    59    1
    87    56    55    1
    88   116   117    2
    89   116   115    1
    90    59    60    1
    91   141   142    1
    92   163   161    1
    93    55    46   am
    94   162   161    1
    95   142   143    1
    96   113   110    1
    97   161   160    2
    98    49    50    1
    99    49    48    1
   100    46    47    2
   101    46    45    1
   102   115   118    1
   103   115   114    1
   104    51    50    1
   105    51    52    2
   106   152   150   ar
   107    54    52    1
   108    48    45    1
   109    52    53    1
   110   102   103    2
   111    45    44    1
   112   160   159    1
   113   112   111    2
   114   118   119    1
   115   143   144    2
   116    60    61    1
   117    60    62    1
   118   159   158    1
   119   111   110    1
   120   110   109    1
   121   150   149    1
   122   150   151   ar
   123    39    38    2
   124   149   146    1
   125   145   146    1
   126    44    38   am
   127   158   157    1
   128   119   120    1
   129    38    37    1
   130   146   147    1
   131   157   154    1
   132   120   121    1
   133   153   147   am
   134   153   154    1
   135   147   148    2
   136   154   155    1
   137    37    40    1
   138    37    36    1
   139    42    41   ar
   140    31    30    2
   141    41    40    1
   142    41    43   ar
   143    36    30   am
   144   155   156    2
   145    30    29    1
   146    29    28    1
   147    29    32    1
   148    34    33    1
   149    32    33    1
   150    33    35    1
