@<TRIPOS>MOLECULE
tmp/3pzeA00.pdb
 159 147 0 0 0
SMALL
GASTEIGER

@<TRIPOS>ATOM
      1  N         27.7050    8.3950   35.7070 N.3    26  ILE26      -0.1231
      2  CA        27.3840    7.8790   34.3770 C.3    26  ILE26       0.1696
      3  C         27.4190    8.9860   33.3400 C.2    26  ILE26       0.2632
      4  O         27.4580    8.7040   32.1460 O.2    26  ILE26      -0.2714
      5  CB        26.0700    7.0540   34.3270 C.3    26  ILE26       0.0266
      6  CG1       24.8300    7.9060   34.6850 C.3    26  ILE26       0.0019
      7  CG2       26.1960    5.7870   35.1790 C.3    26  ILE26       0.0020
      8  CD1       23.5060    7.2960   34.3310 C.3    26  ILE26       0.0001
      9  N         27.3920   10.2340   33.8040 N.am   27  GLY27      -0.1718
     10  CA        27.3980   11.3780   32.9120 C.2    27  GLY27       0.1480
     11  C         27.3660   12.7290   33.5820 C.2    27  GLY27       0.2821
     12  O         27.1850   12.8460   34.7960 O.2    27  GLY27      -0.2669
     13  N         27.5120   13.7580   32.7490 N.am   28  SER28      -0.1901
     14  CA        27.5290   15.1540   33.1340 C.3    28  SER28       0.2058
     15  C         26.8170   15.9960   32.0780 C.2    28  SER28       0.2643
     16  O         26.7360   15.6360   30.9040 O.2    28  SER28      -0.2714
     17  CB        28.9750   15.6260   33.2900 C.3    28  SER28       0.2130
     18  OG        29.0630   16.7860   34.0970 O.3    28  SER28      -0.2179
     19  N         26.2910   17.1150   32.5250 N.am   29  GLY29      -0.1954
     20  CA        25.6370   18.0970   31.6730 C.3    29  GLY29       0.1869
     21  C         26.0080   19.4660   32.1850 C.2    29  GLY29       0.2309
     22  O         26.7550   19.5670   33.1660 O.2    29  GLY29      -0.2863
     23  N         23.8500   21.4250   33.5410 N.3    31  GLN31      -0.1231
     24  CA        23.0370   21.4580   34.7650 C.3    31  GLN31       0.1698
     25  C         23.7870   20.8520   35.9620 C.2    31  GLN31       0.2592
     26  O         23.8500   21.4700   37.0330 O.2    31  GLN31      -0.2718
     27  CB        21.7410   20.6620   34.5530 C.3    31  GLN31       0.0381
     28  CG        20.7060   21.2580   33.6100 C.3    31  GLN31       0.0905
     29  CD        19.5340   20.3080   33.4940 C.2    31  GLN31       0.2608
     30  OE1       19.6530   19.1740   32.9950 O.2    31  GLN31      -0.2717
     31  NE2       18.3940   20.7180   34.0260 N.am   31  GLN31      -0.0878
     32  N         24.3300   19.6440   35.7660 N.am   32  GLY32      -0.1957
     33  CA        25.0820   18.9060   36.7760 C.3    32  GLY32       0.1869
     34  C         25.4680   17.4940   36.3690 C.2    32  GLY32       0.2309
     35  O         25.3190   17.0960   35.2130 O.2    32  GLY32      -0.2863
     36  N         25.3050   13.2280   36.8060 N.3    34  VAL34      -0.1245
     37  CA        24.3030   12.1950   36.9550 C.3    34  VAL34       0.1561
     38  C         25.0040   10.9490   37.4750 C.2    34  VAL34       0.2260
     39  O         26.0400   10.5470   36.9280 O.2    34  VAL34      -0.2867
     40  CB        23.4800   11.9270   35.6580 C.3    34  VAL34       0.0252
     41  CG1       22.4000   10.8750   35.8970 C.3    34  VAL34       0.0019
     42  CG2       22.8470   13.2180   35.1420 C.3    34  VAL34       0.0019
     43  N         18.7380    6.6550   38.4630 N.3    47  ALA47      -0.1245
     44  CA        19.6580    7.6910   38.0400 C.3    47  ALA47       0.1562
     45  C         19.3190    8.9030   38.8970 C.2    47  ALA47       0.2260
     46  O         18.1350    9.1970   39.1020 O.2    47  ALA47      -0.2867
     47  CB        19.4800    8.0040   36.5510 C.3    47  ALA47       0.0290
     48  N         20.2770   12.9400   39.3140 N.3    49  LYS49      -0.1245
     49  CA        20.8850   14.1180   38.6980 C.3    49  LYS49       0.1561
     50  C         21.0000   15.2060   39.7570 C.2    49  LYS49       0.2260
     51  O         20.0090   15.5920   40.3760 O.2    49  LYS49      -0.2867
     52  CB        20.0260   14.6090   37.5170 C.3    49  LYS49       0.0271
     53  CG        20.6400   15.8120   36.7760 C.3    49  LYS49       0.0035
     54  CD        19.6280   16.5060   35.8660 C.3    49  LYS49       0.0206
     55  CE        19.6210   15.9760   34.4600 C.3    49  LYS49       0.1093
     56  NZ        18.4510   16.4880   33.7000 N.3    49  LYS49      -0.1314
     57  N         15.1130   26.2080   32.9670 N.3    63  ARG63      -0.1245
     58  CA        15.3200   24.8000   32.6280 C.3    63  ARG63       0.1563
     59  C         15.0100   23.8870   33.8110 C.2    63  ARG63       0.2260
     60  O         14.3120   22.8920   33.6180 O.2    63  ARG63      -0.2867
     61  CB        16.7330   24.5440   32.0900 C.3    63  ARG63       0.0307
     62  CG        16.9270   23.0910   31.6620 C.3    63  ARG63       0.0489
     63  CD        18.1230   22.9100   30.7800 C.3    63  ARG63       0.2205
     64  NE        18.3280   21.4900   30.4920 N.pl3  63  ARG63      -0.0865
     65  CZ        19.4710   20.9770   30.0520 C.cat  63  ARG63       0.5346
     66  NH1       20.5300   21.7620   29.8580 N.pl3  63  ARG63       0.1354
     67  NH2       19.5680   19.6790   29.8010 N.pl3  63  ARG63       0.1354
     68  N         10.8900   10.2650   30.3150 N.3    80  ILE80      -0.1245
     69  CA        11.4840    9.8200   31.5790 C.3    80  ILE80       0.1561
     70  C         10.6260   10.2390   32.7840 C.2    80  ILE80       0.2260
     71  O         10.2150   11.3960   32.8870 O.2    80  ILE80      -0.2867
     72  CB        12.9850   10.1750   31.7180 C.3    80  ILE80       0.0252
     73  CG1       13.7120    9.2040   32.6830 C.3    80  ILE80       0.0019
     74  CG2       13.2100   11.6310   32.0860 C.3    80  ILE80       0.0019
     75  CD1       14.3360    7.9480   31.9740 C.3    80  ILE80       0.0001
     76  N         15.3060    9.4420   38.7460 N.3   102  MET102     -0.1230
     77  CA        14.6290    8.8910   37.5700 C.3   102  MET102      0.1702
     78  C         14.9460    7.4230   37.4580 C.2   102  MET102      0.2592
     79  O         15.9100    6.9510   38.0560 O.2   102  MET102     -0.2718
     80  CB        15.1950    9.5150   36.2690 C.3   102  MET102      0.0401
     81  CG        15.3090   10.9880   36.2670 C.3   102  MET102      0.0596
     82  SD        16.3700   11.5040   34.8860 S.3   102  MET102     -0.1393
     83  CE        17.9010   11.8620   35.7870 C.3   102  MET102      0.0692
     84  N         14.2060    6.7120   36.6060 N.am  103  GLU103     -0.1966
     85  CA        14.4730    5.2890   36.3200 C.3   103  GLU103      0.1733
     86  C         15.7950    5.2080   35.5870 C.2   103  GLU103      0.2616
     87  O         16.1200    6.1300   34.8390 O.2   103  GLU103     -0.2715
     88  CB        13.3510    4.6540   35.4560 C.3   103  GLU103      0.0429
     89  CG        12.7740    5.5740   34.3980 C.3   103  GLU103      0.1163
     90  CD        11.3260    5.3220   34.0150 C.2   103  GLU103      0.3649
     91  OE1       10.8880    4.1490   34.0730 O.co2 103  GLU103     -0.2457
     92  OE2       10.6490    6.2890   33.5870 O.co2 103  GLU103     -0.2457
     93  N         16.6070    4.1870   35.8900 N.am  104  LEU104     -0.1963
     94  CA        17.8950    4.0550   35.2180 C.3   104  LEU104      0.1728
     95  C         17.7260    3.3060   33.9150 C.2   104  LEU104      0.2616
     96  O         17.1600    2.2210   33.9150 O.2   104  LEU104     -0.2715
     97  CB        18.9450    3.3590   36.0830 C.3   104  LEU104      0.0311
     98  CG        20.3670    3.3140   35.4960 C.3   104  LEU104      0.0022
     99  CD1       21.0140    4.7080   35.4620 C.3   104  LEU104      0.0001
    100  CD2       21.2250    2.3810   36.2680 C.3   104  LEU104      0.0001
    101  N         18.2160    3.8900   32.8110 N.am  105  MET105     -0.1963
    102  CA        18.1810    3.2540   31.4960 C.3   105  MET105      0.1736
    103  C         19.5970    2.7510   31.1830 C.2   105  MET105      0.2616
    104  O         20.5690    3.2510   31.7620 O.2   105  MET105     -0.2715
    105  CB        17.6280    4.2310   30.4420 C.3   105  MET105      0.0427
    106  CG        16.2270    4.7440   30.7820 C.3   105  MET105      0.0599
    107  SD        14.9410    3.5130   30.5120 S.3   105  MET105     -0.1393
    108  CE        14.6210    3.7900   28.7350 C.3   105  MET105      0.0692
    109  N         19.7170    1.7440   30.3190 N.am  106  ASP106     -0.1957
    110  CA        20.9940    1.0960   29.9880 C.3   106  ASP106      0.1840
    111  C         21.9570    1.8560   29.1440 C.2   106  ASP106      0.2622
    112  O         23.1620    1.6410   29.2670 O.2   106  ASP106     -0.2715
    113  CB        20.7720   -0.3150   29.4480 C.3   106  ASP106      0.1450
    114  CG        19.8960   -1.1300   30.3730 C.2   106  ASP106      0.3671
    115  OD1       20.1160   -1.0770   31.5850 O.co2 106  ASP106     -0.2456
    116  OD2       18.9620   -1.7770   29.8850 O.co2 106  ASP106     -0.2456
    117  N         21.4580    2.7430   28.2770 N.am  107  ALA107     -0.1963
    118  CA        22.3230    3.5090   27.3870 C.3   107  ALA107      0.1728
    119  C         21.6030    4.7010   26.8450 C.2   107  ALA107      0.2616
    120  O         20.3830    4.7940   26.9650 O.2   107  ALA107     -0.2715
    121  CB        22.7610    2.6220   26.2150 C.3   107  ALA107      0.0334
    122  N         22.3540    5.6060   26.2210 N.am  108  ASN108     -0.1972
    123  CA        21.7780    6.7130   25.5160 C.3   108  ASN108      0.1688
    124  C         21.9170    6.3860   24.0270 C.2   108  ASN108      0.2292
    125  O         22.5700    5.3840   23.6790 O.2   108  ASN108     -0.2864
    126  CB        22.3300    8.0810   25.9680 C.3   108  ASN108      0.1181
    127  CG        23.7230    8.4610   25.5640 C.2   108  ASN108      0.2629
    128  OD1       24.3940    7.8290   24.7570 O.2   108  ASN108     -0.2716
    129  ND2       24.1780    9.5530   26.1080 N.am  108  ASN108     -0.0877
    130  N         25.3100    5.7660   21.8910 N.3   111  GLN111     -0.1245
    131  CA        25.8230    4.3990   21.9510 C.3   111  GLN111      0.1566
    132  C         25.0950    3.5120   20.9250 C.2   111  GLN111      0.2260
    133  O         25.7580    2.7730   20.1850 O.2   111  GLN111     -0.2867
    134  CB        25.7230    3.8470   23.3960 C.3   111  GLN111      0.0367
    135  CG        26.4940    4.7170   24.4140 C.3   111  GLN111      0.0905
    136  CD        26.0800    4.5600   25.8610 C.2   111  GLN111      0.2608
    137  OE1       25.7790    5.5430   26.5450 O.2   111  GLN111     -0.2717
    138  NE2       26.1350    3.3430   26.3890 N.am  111  GLN111     -0.0878
    139  N         21.9240   12.4290   22.7580 N.3   149  SER149     -0.1217
    140  CA        22.3590   12.3460   24.1690 C.3   149  SER149      0.1889
    141  C         21.2010   12.5060   25.1390 C.2   149  SER149      0.2288
    142  O         21.3090   12.0390   26.2680 O.2   149  SER149     -0.2866
    143  CB        23.4700   13.3570   24.4690 C.3   149  SER149      0.2089
    144  OG        22.9980   14.6890   24.3900 O.3   149  SER149     -0.2183
    145  N         17.2550    8.0220   25.8720 N.3   152  VAL152     -0.1245
    146  CA        17.8230    6.8410   26.5170 C.3   152  VAL152      0.1561
    147  C         17.0890    5.5590   26.1740 C.2   152  VAL152      0.2260
    148  O         15.8910    5.5920   25.8790 O.2   152  VAL152     -0.2867
    149  CB        18.0700    7.0160   28.0570 C.3   152  VAL152      0.0252
    150  CG1       19.2720    7.9130   28.2900 C.3   152  VAL152      0.0019
    151  CG2       16.8400    7.5790   28.7630 C.3   152  VAL152      0.0019
    152  N         14.7120   12.1570   27.6930 N.3   162  LEU162     -0.1245
    153  CA        15.2320   12.6550   28.9880 C.3   162  LEU162      0.1561
    154  C         14.8190   14.0410   29.3940 C.2   162  LEU162      0.2260
    155  O         14.7860   14.3290   30.5890 O.2   162  LEU162     -0.2867
    156  CB        16.7740   12.6140   29.0370 C.3   162  LEU162      0.0270
    157  CG        17.4600   11.3100   29.3870 C.3   162  LEU162      0.0019
    158  CD1       18.9540   11.5270   29.4450 C.3   162  LEU162      0.0001
    159  CD2       16.9860   10.7750   30.7470 C.3   162  LEU162      0.0001
@<TRIPOS>BOND
     1   133   132    2
     2   132   131    1
     3   130   131    1
     4   131   134    1
     5   139   140    1
     6   134   135    1
     7   125   124    2
     8   124   123    1
     9   140   143    1
    10   140   141    1
    11   144   143    1
    12   135   136    1
    13   128   127    2
    14   141   142    2
    15   123   126    1
    16   123   122    1
    17   127   126    1
    18   127   129   am
    19   136   138   am
    20   136   137    2
    21   145   146    1
    22   148   147    2
    23   147   146    1
    24   121   118    1
    25   122   119   am
    26   146   149    1
    27   119   120    2
    28   119   118    1
    29   118   117    1
    30   152   153    1
    31   149   150    1
    32   149   151    1
    33   117   111   am
    34   108   107    1
    35   153   156    1
    36   153   154    1
    37   156   157    1
    38   111   112    2
    39   111   110    1
    40   157   158    1
    41   157   159    1
    42   154   155    2
    43   113   110    1
    44   113   114    1
    45    67    65    1
    46    66    65    1
    47   116   114   ar
    48   110   109    1
    49    65    64    2
    50    68    69    1
    51   109   103   am
    52   114   115   ar
    53   105   106    1
    54   105   102    1
    55    64    63    1
    56   107   106    1
    57    63    62    1
    58    16    15    2
    59   103   102    1
    60   103   104    2
    61   102   101    1
    62    69    72    1
    63    69    70    1
    64    62    61    1
    65    20    21    1
    66    20    19    1
    67    72    74    1
    68    72    73    1
    69    75    73    1
    70    15    19   am
    71    15    14    1
    72    61    58    1
    73     4     3    2
    74    21    22    2
    75    58    57    1
    76    58    59    1
    77    13    14    1
    78    13    11   am
    79    70    71    2
    80   101    95   am
    81    10    11    1
    82    10     9    2
    83    30    29    2
    84    14    17    1
    85    17    18    1
    86     3     9    1
    87     3     2    1
    88    29    28    1
    89    29    31   am
    90    23    24    1
    91    11    12    2
    92    92    90   ar
    93    28    27    1
    94    60    59    2
    95    56    55    1
    96    95    96    2
    97    95    94    1
    98    90    91   ar
    99    90    89    1
   100     5     2    1
   101     5     6    1
   102     5     7    1
   103     8     6    1
   104     2     1    1
   105    89    88    1
   106    55    54    1
   107    27    24    1
   108    24    25    1
   109    87    86    2
   110    82    83    1
   111    82    81    1
   112    42    40    1
   113    35    34    2
   114    94    93    1
   115    94    97    1
   116    88    85    1
   117    99    98    1
   118    98    97    1
   119    98   100    1
   120    86    93   am
   121    86    85    1
   122    40    41    1
   123    40    37    1
   124    32    25   am
   125    32    33    1
   126    54    53    1
   127    25    26    2
   128    81    80    1
   129    80    77    1
   130    85    84    1
   131    34    33    1
   132    47    44    1
   133    84    78   am
   134    53    52    1
   135    36    37    1
   136    39    38    2
   137    37    38    1
   138    78    77    1
   139    78    79    2
   140    52    49    1
   141    77    76    1
   142    44    43    1
   143    44    45    1
   144    49    48    1
   145    49    50    1
   146    45    46    2
   147    50    51    2
