@<TRIPOS>MOLECULE
tmp/3pzhA00.pdb
 158 148 0 0 0
SMALL
GASTEIGER

@<TRIPOS>ATOM
      1  N         26.3020    7.5290   25.9170 N.3    39  VAL39      -0.1231
      2  CA        24.9810    6.9010   25.9560 C.3    39  VAL39       0.1692
      3  C         24.9420    5.5760   25.2040 C.2    39  VAL39       0.2593
      4  O         24.0200    4.7980   25.3860 O.2    39  VAL39      -0.2718
      5  CB        23.8740    7.8300   25.4140 C.3    39  VAL39       0.0266
      6  CG1       23.8440    9.1370   26.1990 C.3    39  VAL39       0.0020
      7  CG2       24.0870    8.0970   23.9240 C.3    39  VAL39       0.0020
      8  N         25.9410    5.3160   24.3650 N.am   40  GLY40      -0.1942
      9  CA        25.9860    4.0600   23.6470 C.3    40  GLY40       0.2014
     10  C         27.3420    3.7500   23.0560 C.2    40  GLY40       0.2638
     11  O         28.2530    4.5820   23.0770 O.2    40  GLY40      -0.2714
     12  N         27.4740    2.5430   22.5170 N.am   41  ARG41      -0.1977
     13  CA        28.7280    2.1100   21.9260 C.3    41  ARG41       0.1597
     14  C         28.5310    0.8380   21.1310 C.2    41  ARG41       0.2287
     15  O         27.5760    0.0960   21.3620 O.2    41  ARG41      -0.2864
     16  CB        29.7960    1.8960   23.0030 C.3    41  ARG41       0.0334
     17  CG        29.4090    0.9090   24.0920 C.3    41  ARG41       0.0492
     18  CD        29.6000   -0.5370   23.6380 C.3    41  ARG41       0.2205
     19  NE        29.0120   -1.4810   24.5910 N.pl3  41  ARG41      -0.0865
     20  CZ        27.8300   -2.0710   24.4300 C.cat  41  ARG41       0.5346
     21  NH1       27.1020   -1.8320   23.3450 N.pl3  41  ARG41       0.1354
     22  NH2       27.3790   -2.9100   25.3500 N.pl3  41  ARG41       0.1354
     23  N         31.7700    2.5960   16.7680 N.3    45  SER45      -0.1217
     24  CA        31.5760    3.9410   17.2790 C.3    45  SER45       0.1889
     25  C         31.2900    3.9860   18.7720 C.2    45  SER45       0.2288
     26  O         30.9040    2.9830   19.3800 O.2    45  SER45      -0.2866
     27  CB        30.4410    4.6250   16.5010 C.3    45  SER45       0.2089
     28  OG        29.1850    4.0300   16.7820 O.3    45  SER45      -0.2183
     29  N         29.0370    6.6760   21.3030 N.3    47  VAL47      -0.1245
     30  CA        28.0110    7.6880   21.1130 C.3    47  VAL47       0.1561
     31  C         27.7280    8.4200   22.4260 C.2    47  VAL47       0.2260
     32  O         27.6390    7.8000   23.4790 O.2    47  VAL47      -0.2867
     33  CB        26.7310    7.0420   20.5700 C.3    47  VAL47       0.0252
     34  CG1       25.6570    8.0840   20.3650 C.3    47  VAL47       0.0019
     35  CG2       27.0280    6.3200   19.2560 C.3    47  VAL47       0.0019
     36  N         23.5790   14.7610   19.4000 N.3    60  ILE60      -0.1245
     37  CA        24.2200   13.4680   19.5950 C.3    60  ILE60       0.1561
     38  C         25.5840   13.4880   18.9170 C.2    60  ILE60       0.2260
     39  O         25.7100   13.9500   17.7890 O.2    60  ILE60      -0.2867
     40  CB        23.3880   12.3330   19.0000 C.3    60  ILE60       0.0252
     41  CG1       22.0910   12.1330   19.7970 C.3    60  ILE60       0.0019
     42  CG2       24.2050   11.0600   18.9560 C.3    60  ILE60       0.0019
     43  CD1       22.3050   11.6450   21.2270 C.3    60  ILE60       0.0001
     44  N         28.6040   11.1680   17.6410 N.3    62  LYS62      -0.1245
     45  CA        29.0140    9.8110   17.3440 C.3    62  LYS62       0.1561
     46  C         30.4780    9.8150   16.9140 C.2    62  LYS62       0.2260
     47  O         30.8100   10.2780   15.8200 O.2    62  LYS62      -0.2867
     48  CB        28.1350    9.2230   16.2330 C.3    62  LYS62       0.0271
     49  CG        28.5460    7.8320   15.7560 C.3    62  LYS62       0.0035
     50  CD        27.5720    7.3510   14.6550 C.3    62  LYS62       0.0206
     51  CE        27.8120    5.9000   14.2700 C.3    62  LYS62       0.1093
     52  NZ        26.8020    5.4390   13.2490 N.3    62  LYS62      -0.1314
     53  N         28.8260    6.3160    4.8870 N.3    75  GLU75      -0.1245
     54  CA        27.8280    6.6760    5.8920 C.3    75  GLU75       0.1567
     55  C         27.4660    8.1470    5.7770 C.2    75  GLU75       0.2260
     56  O         26.3000    8.5130    5.8900 O.2    75  GLU75      -0.2867
     57  CB        28.2980    6.3640    7.3140 C.3    75  GLU75       0.0388
     58  CG        27.2830    6.8100    8.3900 C.3    75  GLU75       0.1160
     59  CD        27.6400    6.3530    9.8010 C.2    75  GLU75       0.3649
     60  OE1       28.6500    5.6480    9.9670 O.co2  75  GLU75      -0.2457
     61  OE2       26.8960    6.6910   10.7490 O.co2  75  GLU75      -0.2457
     62  N         23.7240    9.5820    4.7560 N.3    79  LEU79      -0.1245
     63  CA        23.0200   10.4020    5.7340 C.3    79  LEU79       0.1561
     64  C         22.6260   11.7300    5.1070 C.2    79  LEU79       0.2260
     65  O         21.5260   12.2390    5.3480 O.2    79  LEU79      -0.2867
     66  CB        23.8960   10.6380    6.9770 C.3    79  LEU79       0.0270
     67  CG        24.0300    9.4740    7.9690 C.3    79  LEU79       0.0019
     68  CD1       25.1820    9.6880    8.9560 C.3    79  LEU79       0.0001
     69  CD2       22.7130    9.2280    8.7010 C.3    79  LEU79       0.0001
     70  N         17.2720    9.7160   11.2310 N.3    88  VAL88      -0.1245
     71  CA        18.0900   10.5800   12.0770 C.3    88  VAL88       0.1561
     72  C         18.7550   11.6630   11.2090 C.2    88  VAL88       0.2260
     73  O         19.1900   11.3860   10.0850 O.2    88  VAL88      -0.2867
     74  CB        19.1140    9.7480   12.8820 C.3    88  VAL88       0.0252
     75  CG1       20.2550    9.2720   11.9840 C.3    88  VAL88       0.0019
     76  CG2       19.6340   10.5410   14.0770 C.3    88  VAL88       0.0019
     77  N         24.5460   14.6900   15.2580 N.3   106  PHE106     -0.1241
     78  CA        23.1580   14.4610   14.8840 C.3   106  PHE106      0.1605
     79  C         22.2180   15.2770   15.7470 C.2   106  PHE106      0.2264
     80  O         22.5520   15.6290   16.8730 O.2   106  PHE106     -0.2867
     81  CB        22.7770   12.9850   15.0690 C.3   106  PHE106      0.0534
     82  CG        23.5550   12.0290   14.2080 C.ar  106  PHE106     -0.0203
     83  CD1       23.1130   11.7110   12.9250 C.ar  106  PHE106     -0.0042
     84  CD2       24.7130   11.4300   14.6830 C.ar  106  PHE106     -0.0042
     85  CE1       23.8110   10.8170   12.1290 C.ar  106  PHE106     -0.0003
     86  CE2       25.4260   10.5350   13.8960 C.ar  106  PHE106     -0.0003
     87  CZ        24.9720   10.2190   12.6160 C.ar  106  PHE106     -0.0000
     88  N         18.4200   12.9460   20.0030 N.3   109  VAL109     -0.1245
     89  CA        17.3850   11.9300   20.0800 C.3   109  VAL109      0.1561
     90  C         17.3820   11.3590   21.4850 C.2   109  VAL109      0.2260
     91  O         18.4260   10.9710   22.0100 O.2   109  VAL109     -0.2867
     92  CB        17.6300   10.7990   19.0750 C.3   109  VAL109      0.0252
     93  CG1       16.3200   10.0810   18.7760 C.3   109  VAL109      0.0019
     94  CG2       18.2530   11.3430   17.7820 C.3   109  VAL109      0.0019
     95  N         16.4610    8.5120   23.5470 N.3   111  ASN111     -0.1240
     96  CA        16.0560    7.1130   23.5290 C.3   111  ASN111      0.1653
     97  C         15.5860    6.5140   24.8440 C.2   111  ASN111      0.2266
     98  O         16.1430    6.7890   25.9150 O.2   111  ASN111     -0.2867
     99  CB        17.1730    6.2250   22.9960 C.3   111  ASN111      0.1155
    100  CG        16.7630    4.7650   22.9450 C.2   111  ASN111      0.2627
    101  OD1       15.6680    4.4270   22.4670 O.2   111  ASN111     -0.2716
    102  ND2       17.6210    3.8940   23.4580 N.am  111  ASN111     -0.0877
    103  N         18.1190   -2.1810   18.4650 N.3   153  HIS153     -0.1226
    104  CA        19.1520   -1.2490   18.9240 C.3   153  HIS153      0.1752
    105  C         19.2760   -0.0550   18.0050 C.2   153  HIS153      0.2596
    106  O         19.7950    0.9820   18.4100 O.2   153  HIS153     -0.2718
    107  CB        20.5410   -1.8980   18.9820 C.3   153  HIS153      0.0759
    108  CG        20.6470   -3.0550   19.9240 C.ar  153  HIS153      0.0818
    109  ND1       20.1310   -4.3020   19.6360 N.ar  153  HIS153     -0.2268
    110  CD2       21.2390   -3.1610   21.1370 C.ar  153  HIS153      0.1154
    111  CE1       20.3920   -5.1220   20.6390 C.ar  153  HIS153      0.1986
    112  NE2       21.0610   -4.4540   21.5620 N.ar  153  HIS153     -0.2212
    113  N         18.8630   -0.2180   16.7490 N.am  154  ASN154     -0.1974
    114  CA        19.0130    0.8530   15.7580 C.3   154  ASN154      0.1688
    115  C         17.7140    1.5860   15.4770 C.2   154  ASN154      0.2292
    116  O         17.6340    2.4110   14.5630 O.2   154  ASN154     -0.2864
    117  CB        19.6500    0.3400   14.4490 C.3   154  ASN154      0.1181
    118  CG        21.1300    0.0650   14.5990 C.2   154  ASN154      0.2629
    119  OD1       21.7830    0.5670   15.5310 O.2   154  ASN154     -0.2716
    120  ND2       21.6840   -0.7180   13.6750 N.am  154  ASN154     -0.0877
    121  N         15.6230    4.0250   17.5370 N.3   156  MET156     -0.1245
    122  CA        15.5000    4.8360   18.7400 C.3   156  MET156      0.1570
    123  C         14.0800    5.3660   18.8940 C.2   156  MET156      0.2261
    124  O         13.5030    5.9170   17.9490 O.2   156  MET156     -0.2867
    125  CB        16.5100    5.9800   18.7240 C.3   156  MET156      0.0387
    126  CG        17.9600    5.4940   18.7470 C.3   156  MET156      0.0595
    127  SD        18.3580    4.6760   20.3140 S.3   156  MET156     -0.1393
    128  CE        19.6290    3.5160   19.8330 C.3   156  MET156      0.0692
    129  N         18.4410    4.7240   13.1210 N.3   167  ILE167     -0.1231
    130  CA        19.8010    5.2270   13.2770 C.3   167  ILE167      0.1692
    131  C         20.8710    4.2630   12.7920 C.2   167  ILE167      0.2592
    132  O         20.5730    3.1700   12.3300 O.2   167  ILE167     -0.2718
    133  CB        20.1240    5.5410   14.7490 C.3   167  ILE167      0.0266
    134  CG1       20.0550    4.2590   15.5950 C.3   167  ILE167      0.0019
    135  CG2       19.1760    6.6190   15.2880 C.3   167  ILE167      0.0020
    136  CD1       20.7690    4.3820   16.9460 C.3   167  ILE167      0.0001
    137  N         22.1240    4.6880   12.9630 N.am  168  ASP168     -0.1960
    138  CA        23.3120    3.9390   12.5620 C.3   168  ASP168      0.1840
    139  C         23.2950    3.4320   11.1250 C.2   168  ASP168      0.2622
    140  O         23.1160    2.2420   10.8600 O.2   168  ASP168     -0.2715
    141  CB        23.6270    2.8020   13.5180 C.3   168  ASP168      0.1450
    142  CG        25.0900    2.4060   13.4540 C.2   168  ASP168      0.3671
    143  OD1       25.7640    2.7990   12.4700 O.co2 168  ASP168     -0.2456
    144  OD2       25.5730    1.7330   14.3820 O.co2 168  ASP168     -0.2456
    145  N         23.5310    4.3590   10.2140 N.am  169  TRP169     -0.1974
    146  CA        23.6180    4.0710    8.7900 C.3   169  TRP169      0.1640
    147  C         25.0210    3.6300    8.3480 C.2   169  TRP169      0.2290
    148  O         25.3670    3.6870    7.1630 O.2   169  TRP169     -0.2864
    149  CB        23.1090    5.2960    8.0190 C.3   169  TRP169      0.0576
    150  CG        21.6440    5.5480    8.3540 C.ar  169  TRP169      0.0006
    151  CD1       21.1510    6.1890    9.4560 C.ar  169  TRP169      0.0946
    152  CD2       20.5050    5.1010    7.6110 C.ar  169  TRP169      0.0152
    153  NE1       19.7730    6.1750    9.4400 N.ar  169  TRP169     -0.2442
    154  CE2       19.3550    5.5240    8.3100 C.ar  169  TRP169      0.0810
    155  CE3       20.3450    4.3990    6.4080 C.ar  169  TRP169      0.0012
    156  CZ2       18.0640    5.2620    7.8560 C.ar  169  TRP169      0.0191
    157  CZ3       19.0500    4.1390    5.9560 C.ar  169  TRP169      0.0001
    158  CH2       17.9330    4.5620    6.6820 C.ar  169  TRP169      0.0015
@<TRIPOS>BOND
     1    62    63    1
     2    53    54    1
     3    64    65    2
     4    64    63    1
     5    63    66    1
     6    55    56    2
     7    55    54    1
     8    54    57    1
     9   157   155   ar
    10   157   158   ar
    11   155   152   ar
    12   158   156   ar
    13    66    67    1
    14   148   147    2
    15    57    58    1
    16   152   154   ar
    17   152   150   ar
    18   156   154   ar
    19    67    69    1
    20    67    68    1
    21   149   150    1
    22   149   146    1
    23   154   153   ar
    24   147   146    1
    25   150   151   ar
    26    58    59    1
    27   146   145    1
    28   153   151   ar
    29    59    60   ar
    30    59    61   ar
    31    73    72    2
    32   145   139   am
    33   140   139    2
    34   139   138    1
    35    72    71    1
    36    70    71    1
    37    75    74    1
    38    71    74    1
    39    85    87   ar
    40    85    83   ar
    41   132   131    2
    42   143   142   ar
    43   138   137    1
    44   138   141    1
    45    87    86   ar
    46   131   137   am
    47   131   130    1
    48    74    76    1
    49    83    82   ar
    50   129   130    1
    51    52    51    1
    52   130   133    1
    53   142   141    1
    54   142   144   ar
    55   120   118   am
    56    86    84   ar
    57    82    84   ar
    58    82    81    1
    59    51    50    1
    60   117   118    1
    61   117   114    1
    62   116   115    2
    63   118   119    2
    64    50    49    1
    65   133   135    1
    66   133   134    1
    67    78    81    1
    68    78    77    1
    69    78    79    1
    70   115   114    1
    71   134   136    1
    72    79    80    2
    73    49    48    1
    74   114   113    1
    75    47    46    2
    76    48    45    1
    77    27    28    1
    78    27    24    1
    79   113   105   am
    80    23    24    1
    81    46    45    1
    82    24    25    1
    83    45    44    1
    84   121   122    1
    85    94    92    1
    86    39    38    2
    87   124   123    2
    88   105   106    2
    89   105   104    1
    90   103   104    1
    91   125   122    1
    92   125   126    1
    93   122   123    1
    94   126   127    1
    95    25    26    2
    96    93    92    1
    97    38    37    1
    98   104   107    1
    99    42    40    1
   100   107   108    1
   101    40    37    1
   102    40    41    1
   103    92    89    1
   104    35    33    1
   105    36    37    1
   106   109   108   ar
   107   109   111   ar
   108    41    43    1
   109   128   127    1
   110   108   110   ar
   111    88    89    1
   112    89    90    1
   113    34    33    1
   114    33    30    1
   115   111   112   ar
   116    30    29    1
   117    30    31    1
   118    14    15    2
   119    14    13    1
   120   110   112   ar
   121    90    91    2
   122    13    12    1
   123    13    16    1
   124    31    32    2
   125   101   100    2
   126    12    10   am
   127   100    99    1
   128   100   102   am
   129    99    96    1
   130    16    17    1
   131    10    11    2
   132    10     9    1
   133    21    20    1
   134    96    95    1
   135    96    97    1
   136    18    17    1
   137    18    19    1
   138     9     8    1
   139     7     5    1
   140     8     3   am
   141    20    19    2
   142    20    22    1
   143    97    98    2
   144     3     4    2
   145     3     2    1
   146     5     2    1
   147     5     6    1
   148     1     2    1
