@<TRIPOS>MOLECULE
tmp/3pziA00.pdb
 110 109 0 0 0
SMALL
GASTEIGER

@<TRIPOS>ATOM
      1  N          1.0030   23.1320  -26.3020 N.3    98  TRP98      -0.1241
      2  CA         1.9250   24.1010  -25.6340 C.3    98  TRP98       0.1605
      3  C          3.3870   23.8070  -26.0050 C.2    98  TRP98       0.2264
      4  O          3.6990   22.7610  -26.5680 O.2    98  TRP98      -0.2867
      5  CB         1.7290   24.0500  -24.1380 C.3    98  TRP98       0.0550
      6  CG         0.2450   24.1720  -23.8020 C.ar   98  TRP98       0.0003
      7  CD1       -0.5100   23.2200  -23.1740 C.ar   98  TRP98       0.0946
      8  CD2       -0.6770   25.2530  -24.1450 C.ar   98  TRP98       0.0152
      9  NE1       -1.8370   23.6130  -23.1020 N.ar   98  TRP98      -0.2442
     10  CE2       -1.9550   24.8800  -23.6590 C.ar   98  TRP98       0.0810
     11  CE3       -0.5250   26.4860  -24.7560 C.ar   98  TRP98       0.0012
     12  CZ2       -3.0850   25.6870  -23.8310 C.ar   98  TRP98       0.0191
     13  CZ3       -1.6330   27.3250  -24.8810 C.ar   98  TRP98       0.0001
     14  CH2       -2.8980   26.9220  -24.4620 C.ar   98  TRP98       0.0015
     15  N          5.9130   23.1460  -24.0200 N.3   100  ASP100     -0.1239
     16  CA         6.6270   22.1520  -23.1860 C.3   100  ASP100      0.1674
     17  C          6.8260   20.8920  -24.0350 C.2   100  ASP100      0.2266
     18  O          5.8920   20.4070  -24.6880 O.2   100  ASP100     -0.2867
     19  CB         5.8140   21.8260  -21.9230 C.3   100  ASP100      0.1410
     20  CG         5.3900   23.0900  -21.1800 C.2   100  ASP100      0.3668
     21  OD1        6.3160   23.8360  -20.7510 O.co2 100  ASP100     -0.2456
     22  OD2        4.1780   23.3920  -21.0750 O.co2 100  ASP100     -0.2456
     23  N         -4.6320   19.4260  -25.2250 N.3   162  GLU162     -0.1245
     24  CA        -5.1980   20.7960  -25.0480 C.3   162  GLU162      0.1567
     25  C         -5.0900   21.5630  -26.3900 C.2   162  GLU162      0.2260
     26  O         -4.8500   22.7920  -26.4390 O.2   162  GLU162     -0.2867
     27  CB        -4.5060   21.5640  -23.8860 C.3   162  GLU162      0.0388
     28  CG        -4.6590   20.8030  -22.5670 C.3   162  GLU162      0.1160
     29  CD        -4.4850   21.6360  -21.3630 C.2   162  GLU162      0.3649
     30  OE1       -3.7390   22.6280  -21.3910 O.co2 162  GLU162     -0.2457
     31  OE2       -5.0750   21.2410  -20.3100 O.co2 162  GLU162     -0.2457
     32  N         -5.7920   23.9650  -29.3280 N.3   164  ARG164     -0.1245
     33  CA        -6.5640   25.1870  -29.5200 C.3   164  ARG164      0.1563
     34  C         -6.2010   25.7490  -30.9030 C.2   164  ARG164      0.2260
     35  O         -5.0920   25.5340  -31.4190 O.2   164  ARG164     -0.2867
     36  CB        -6.2510   26.2400  -28.4620 C.3   164  ARG164      0.0307
     37  CG        -6.5560   25.7840  -27.0280 C.3   164  ARG164      0.0489
     38  CD        -6.3070   26.9650  -26.0490 C.3   164  ARG164      0.2205
     39  NE        -6.5200   26.5420  -24.6460 N.pl3 164  ARG164     -0.0865
     40  CZ        -6.4320   27.4100  -23.6410 C.cat 164  ARG164      0.5346
     41  NH1       -6.1170   28.6850  -23.9090 N.pl3 164  ARG164      0.1354
     42  NH2       -6.5500   27.0040  -22.4020 N.pl3 164  ARG164      0.1354
     43  N         -9.3930   20.3200  -24.1330 N.3   199  GLU199     -0.1245
     44  CA        -9.9310   20.7960  -22.8110 C.3   199  GLU199      0.1567
     45  C        -11.4570   20.7520  -22.7800 C.2   199  GLU199      0.2260
     46  O        -11.9810   20.9090  -21.6660 O.2   199  GLU199     -0.2867
     47  CB        -9.4850   22.2180  -22.5560 C.3   199  GLU199      0.0388
     48  CG        -7.9050   22.2230  -22.3010 C.3   199  GLU199      0.1160
     49  CD        -7.3390   23.6200  -22.6090 C.2   199  GLU199      0.3649
     50  OE1       -7.1710   23.9650  -23.8390 O.co2 199  GLU199     -0.2457
     51  OE2       -7.0340   24.3790  -21.6190 O.co2 199  GLU199     -0.2457
     52  N        -15.3290   32.6500  -22.1290 N.3   217  TRP217     -0.1241
     53  CA       -14.5140   32.2830  -23.3280 C.3   217  TRP217      0.1605
     54  C        -14.4520   30.7870  -23.4720 C.2   217  TRP217      0.2264
     55  O        -14.2840   30.2930  -24.5650 O.2   217  TRP217     -0.2867
     56  CB       -13.0920   32.8810  -23.2180 C.3   217  TRP217      0.0550
     57  CG       -12.3080   32.3430  -22.0620 C.ar  217  TRP217      0.0003
     58  CD1      -12.2170   32.8270  -20.7800 C.ar  217  TRP217      0.0946
     59  CD2      -11.4700   31.1540  -22.1130 C.ar  217  TRP217      0.0152
     60  NE1      -11.3810   31.9900  -19.9990 N.ar  217  TRP217     -0.2442
     61  CE2      -10.9260   30.9640  -20.8200 C.ar  217  TRP217      0.0810
     62  CE3      -11.0660   30.2670  -23.1810 C.ar  217  TRP217      0.0012
     63  CZ2       -9.9950   29.9280  -20.5190 C.ar  217  TRP217      0.0191
     64  CZ3      -10.1980   29.1650  -22.8480 C.ar  217  TRP217      0.0001
     65  CH2       -9.6730   29.0220  -21.5210 C.ar  217  TRP217      0.0015
     66  N         -9.8100   23.4960  -15.0650 N.3   244  TYR244     -0.1241
     67  CA        -8.9180   24.2990  -14.2110 C.3   244  TYR244      0.1605
     68  C         -9.5310   25.6590  -13.9780 C.2   244  TYR244      0.2264
     69  O         -9.1120   26.6590  -14.6180 O.2   244  TYR244     -0.2867
     70  CB        -7.5460   24.5280  -14.9010 C.3   244  TYR244      0.0534
     71  CG        -6.7450   23.2020  -15.0080 C.ar  244  TYR244     -0.0201
     72  CD1       -6.0160   22.6920  -13.9030 C.ar  244  TYR244     -0.0009
     73  CD2       -6.7700   22.4910  -16.2230 C.ar  244  TYR244     -0.0009
     74  CE1       -5.2720   21.5000  -14.0050 C.ar  244  TYR244      0.0417
     75  CE2       -6.0260   21.3300  -16.3690 C.ar  244  TYR244      0.0417
     76  CZ        -5.3020   20.8400  -15.2670 C.ar  244  TYR244      0.1957
     77  OH        -4.5190   19.7450  -15.3760 O.3   244  TYR244     -0.2866
     78  N         -7.3110   28.7160  -13.5940 N.3   247  HIS247     -0.1226
     79  CA        -6.5520   29.2390  -14.7650 C.3   247  HIS247      0.1752
     80  C         -7.4480   30.0220  -15.6550 C.2   247  HIS247      0.2596
     81  O         -7.0260   30.7350  -16.5210 O.2   247  HIS247     -0.2718
     82  CB        -6.1530   28.0730  -15.6450 C.3   247  HIS247      0.0759
     83  CG        -5.0690   27.2560  -15.0630 C.ar  247  HIS247      0.0818
     84  ND1       -4.6350   26.0930  -15.6850 N.ar  247  HIS247     -0.2268
     85  CD2       -4.2900   27.4240  -13.9680 C.ar  247  HIS247      0.1154
     86  CE1       -3.6480   25.5560  -14.9800 C.ar  247  HIS247      0.1986
     87  NE2       -3.3920   26.3720  -13.9500 N.ar  247  HIS247     -0.2212
     88  N         -8.7280   29.8150  -15.5790 N.am  248  TRP248     -0.1976
     89  CA        -9.6410   30.2970  -16.6340 C.3   248  TRP248      0.1640
     90  C        -10.4240   31.5480  -16.3080 C.2   248  TRP248      0.2290
     91  O        -11.2530   31.9660  -17.1100 O.2   248  TRP248     -0.2864
     92  CB       -10.6110   29.1070  -16.9790 C.3   248  TRP248      0.0576
     93  CG        -9.8560   27.9410  -17.5560 C.ar  248  TRP248      0.0006
     94  CD1       -8.5400   27.9170  -18.0520 C.ar  248  TRP248      0.0946
     95  CD2      -10.4050   26.6330  -17.8020 C.ar  248  TRP248      0.0152
     96  NE1       -8.2550   26.6400  -18.5620 N.ar  248  TRP248     -0.2442
     97  CE2       -9.3950   25.8590  -18.4360 C.ar  248  TRP248      0.0810
     98  CE3      -11.6540   26.0420  -17.5160 C.ar  248  TRP248      0.0012
     99  CZ2       -9.6150   24.5140  -18.8190 C.ar  248  TRP248      0.0191
    100  CZ3      -11.8710   24.7340  -17.8790 C.ar  248  TRP248      0.0001
    101  CH2      -10.8510   23.9810  -18.5160 C.ar  248  TRP248      0.0015
    102  N         -8.2970   15.6940  -17.0980 N.3   281  GLU281     -0.1245
    103  CA        -7.3780   16.4530  -16.2330 C.3   281  GLU281      0.1567
    104  C         -8.2700   17.3520  -15.4030 C.2   281  GLU281      0.2260
    105  O         -9.1900   18.0130  -15.9490 O.2   281  GLU281     -0.2867
    106  CB        -6.4370   17.4110  -16.9740 C.3   281  GLU281      0.0388
    107  CG        -5.3990   16.7950  -17.8950 C.3   281  GLU281      0.1160
    108  CD        -4.3820   17.8620  -18.4030 C.2   281  GLU281      0.3649
    109  OE1       -4.3330   18.9880  -17.8250 O.co2 281  GLU281     -0.2457
    110  OE2       -3.6800   17.6000  -19.4140 O.co2 281  GLU281     -0.2457
@<TRIPOS>BOND
     1    35    34    2
     2    34    33    1
     3    33    32    1
     4    33    36    1
     5    36    37    1
     6    37    38    1
     7     4     3    2
     8    26    25    2
     9    25    24    1
    10     1     2    1
    11    38    39    1
    12     3     2    1
    13     2     5    1
    14    23    24    1
    15    24    27    1
    16    13    11   ar
    17    13    14   ar
    18    11     8   ar
    19    18    17    2
    20    39    40    2
    21    55    54    2
    22    14    12   ar
    23     8     6   ar
    24     8    10   ar
    25     5     6    1
    26    43    44    1
    27    17    16    1
    28    15    16    1
    29    41    40    1
    30    27    28    1
    31    50    49   ar
    32    12    10   ar
    33     6     7   ar
    34    10     9   ar
    35    40    42    1
    36    54    53    1
    37    53    56    1
    38    53    52    1
    39    56    57    1
    40    16    19    1
    41    62    64   ar
    42    62    59   ar
    43     7     9   ar
    44    64    65   ar
    45    44    45    1
    46    44    47    1
    47    45    46    2
    48    49    48    1
    49    49    51   ar
    50    28    29    1
    51    47    48    1
    52    59    57   ar
    53    59    61   ar
    54    57    58   ar
    55    19    20    1
    56    65    63   ar
    57    30    29   ar
    58    29    31   ar
    59    20    22   ar
    60    20    21   ar
    61    61    63   ar
    62    61    60   ar
    63    58    60   ar
    64   110   108   ar
    65    99   101   ar
    66    99    97   ar
    67    96    97   ar
    68    96    94   ar
    69   101   100   ar
    70    97    95   ar
    71   108   107    1
    72   108   109   ar
    73    94    93   ar
    74   107   106    1
    75   100    98   ar
    76    95    93   ar
    77    95    98   ar
    78    93    92    1
    79    91    90    2
    80   102   103    1
    81    92    89    1
    82   106   103    1
    83    89    90    1
    84    89    88    1
    85    81    80    2
    86    75    73   ar
    87    75    76   ar
    88   103   104    1
    89    73    71   ar
    90   105   104    2
    91    84    83   ar
    92    84    86   ar
    93    80    88   am
    94    80    79    1
    95    82    83    1
    96    82    79    1
    97    77    76    1
    98    76    74   ar
    99    66    67    1
   100    83    85   ar
   101    71    70    1
   102    71    72   ar
   103    86    87   ar
   104    70    67    1
   105    79    78    1
   106    69    68    2
   107    67    68    1
   108    74    72   ar
   109    85    87   ar
