@<TRIPOS>MOLECULE
tmp/3pzmA00.pdb
 125 123 0 0 0
SMALL
GASTEIGER

@<TRIPOS>ATOM
      1  N         -2.6520   11.5860   21.7290 N.3    37  TRP37      -0.1241
      2  CA        -3.1030   12.1940   22.9820 C.3    37  TRP37       0.1605
      3  C         -3.8550   11.1510   23.8090 C.2    37  TRP37       0.2264
      4  O         -4.6960   10.3960   23.2580 O.2    37  TRP37      -0.2867
      5  CB        -4.0140   13.3660   22.7020 C.3    37  TRP37       0.0550
      6  CG        -3.4730   14.5910   22.0670 C.ar   37  TRP37       0.0003
      7  CD1       -4.2510   15.6470   21.6760 C.ar   37  TRP37       0.0946
      8  CD2       -2.1200   14.9710   21.7950 C.ar   37  TRP37       0.0152
      9  NE1       -3.4790   16.6870   21.2350 N.ar   37  TRP37      -0.2442
     10  CE2       -2.1550   16.2920   21.2710 C.ar   37  TRP37       0.0810
     11  CE3       -0.8710   14.3470   21.9220 C.ar   37  TRP37       0.0012
     12  CZ2       -1.0020   16.9760   20.8480 C.ar   37  TRP37       0.0191
     13  CZ3        0.2980   15.0760   21.5630 C.ar   37  TRP37       0.0001
     14  CH2        0.2010   16.3750   20.9950 C.ar   37  TRP37       0.0015
     15  N         -1.9550   18.2090   28.1020 N.3    96  ASN96      -0.1240
     16  CA        -1.4710   19.1860   27.1370 C.3    96  ASN96       0.1653
     17  C         -0.9520   20.4140   27.8750 C.2    96  ASN96       0.2266
     18  O         -1.6530   20.9780   28.7620 O.2    96  ASN96      -0.2867
     19  CB        -2.6490   19.6150   26.2340 C.3    96  ASN96       0.1155
     20  CG        -2.1460   20.1380   24.8840 C.2    96  ASN96       0.2627
     21  OD1       -0.8930   20.2640   24.6730 O.2    96  ASN96      -0.2716
     22  ND2       -3.0790   20.4190   23.9500 N.am   96  ASN96      -0.0877
     23  N         -1.0220   23.1360   26.2440 N.3    98  TRP98      -0.1241
     24  CA        -1.9390   24.0980   25.5780 C.3    98  TRP98       0.1605
     25  C         -3.3780   23.7890   25.9360 C.2    98  TRP98       0.2264
     26  O         -3.7160   22.7410   26.4950 O.2    98  TRP98      -0.2867
     27  CB        -1.7230   24.0130   24.0430 C.3    98  TRP98       0.0550
     28  CG        -0.2980   24.1090   23.7010 C.ar   98  TRP98       0.0003
     29  CD1        0.4020   23.1480   23.0730 C.ar   98  TRP98       0.0946
     30  CD2        0.5990   25.2180   23.9310 C.ar   98  TRP98       0.0152
     31  NE1        1.7650   23.5430   22.9290 N.ar   98  TRP98      -0.2442
     32  CE2        1.8900   24.8190   23.4580 C.ar   98  TRP98       0.0810
     33  CE3        0.4530   26.4730   24.5110 C.ar   98  TRP98       0.0012
     34  CZ2        3.0030   25.6890   23.4750 C.ar   98  TRP98       0.0191
     35  CZ3        1.6030   27.3530   24.5850 C.ar   98  TRP98       0.0001
     36  CH2        2.8470   26.9180   24.1200 C.ar   98  TRP98       0.0015
     37  N         -5.9340   23.1100   24.0010 N.3   100  ASP100     -0.1239
     38  CA        -6.6600   22.1590   23.1580 C.3   100  ASP100      0.1674
     39  C         -6.9000   20.9090   24.0360 C.2   100  ASP100      0.2266
     40  O         -5.9600   20.3670   24.6480 O.2   100  ASP100     -0.2867
     41  CB        -5.8380   21.7850   21.8930 C.3   100  ASP100      0.1410
     42  CG        -5.4720   23.0230   21.1230 C.2   100  ASP100      0.3668
     43  OD1       -6.4040   23.7320   20.6680 O.co2 100  ASP100     -0.2456
     44  OD2       -4.2980   23.3670   21.1470 O.co2 100  ASP100     -0.2456
     45  N          2.5010   17.2980   26.8830 N.3   161  ASN161     -0.1225
     46  CA         2.8570   17.8170   25.5510 C.3   161  ASN161      0.1785
     47  C          3.3440   19.2590   25.6260 C.2   161  ASN161      0.2597
     48  O          2.5670   20.1370   26.0080 O.2   161  ASN161     -0.2718
     49  CB         1.6070   17.7740   24.6550 C.3   161  ASN161      0.1169
     50  CG         1.9510   18.2850   23.2350 C.2   161  ASN161      0.2627
     51  OD1        2.9350   17.8310   22.6300 O.2   161  ASN161     -0.2716
     52  ND2        1.2110   19.2860   22.7590 N.am  161  ASN161     -0.0877
     53  N          4.6140   19.4990   25.2290 N.am  162  GLU162     -0.1979
     54  CA         5.1760   20.8670   25.0260 C.3   162  GLU162      0.1602
     55  C          5.0290   21.6390   26.3430 C.2   162  GLU162      0.2287
     56  O          4.7860   22.8520   26.3480 O.2   162  GLU162     -0.2864
     57  CB         4.4720   21.5770   23.8740 C.3   162  GLU162      0.0415
     58  CG         4.6770   20.7560   22.5890 C.3   162  GLU162      0.1163
     59  CD         4.4990   21.5450   21.2870 C.2   162  GLU162      0.3649
     60  OE1        3.6340   22.4480   21.2040 O.co2 162  GLU162     -0.2457
     61  OE2        5.1770   21.1810   20.2690 O.co2 162  GLU162     -0.2457
     62  N          9.7690   23.5080   15.0660 N.3   244  TYR244     -0.1241
     63  CA         8.8530   24.3110   14.2400 C.3   244  TYR244      0.1605
     64  C          9.4420   25.6900   13.9480 C.2   244  TYR244      0.2264
     65  O          9.0280   26.6990   14.5470 O.2   244  TYR244     -0.2867
     66  CB         7.4640   24.5400   14.9280 C.3   244  TYR244      0.0534
     67  CG         6.6890   23.2270   15.0300 C.ar  244  TYR244     -0.0201
     68  CD1        5.9170   22.7730   13.9430 C.ar  244  TYR244     -0.0009
     69  CD2        6.7090   22.4980   16.2210 C.ar  244  TYR244     -0.0009
     70  CE1        5.1670   21.6050   14.0260 C.ar  244  TYR244      0.0417
     71  CE2        5.9570   21.3530   16.3540 C.ar  244  TYR244      0.0417
     72  CZ         5.2050   20.8950   15.2620 C.ar  244  TYR244      0.1957
     73  OH         4.4100   19.8100   15.3640 O.3   244  TYR244     -0.2866
     74  N          7.1900   28.7240   13.5020 N.3   247  HIS247     -0.1241
     75  CA         6.5210   29.2550   14.7480 C.3   247  HIS247      0.1621
     76  C          7.4010   30.0630   15.6410 C.2   247  HIS247      0.2264
     77  O          6.9280   30.7590   16.5350 O.2   247  HIS247     -0.2867
     78  CB         6.0710   28.0780   15.6930 C.3   247  HIS247      0.0745
     79  CG         5.0130   27.2660   15.0950 C.ar  247  HIS247      0.0817
     80  ND1        4.5130   26.1360   15.7230 N.ar  247  HIS247     -0.2268
     81  CD2        4.3080   27.4290   13.9450 C.ar  247  HIS247      0.1154
     82  CE1        3.5730   25.5980   14.9600 C.ar  247  HIS247      0.1986
     83  NE2        3.3800   26.4040   13.9080 N.ar  247  HIS247     -0.2212
     84  N          8.2600   15.7200   17.1450 N.3   281  GLU281     -0.1245
     85  CA         7.3640   16.5030   16.2530 C.3   281  GLU281      0.1567
     86  C          8.2680   17.3670   15.4030 C.2   281  GLU281      0.2260
     87  O          9.1560   18.0390   15.9540 O.2   281  GLU281     -0.2867
     88  CB         6.4460   17.5310   16.9910 C.3   281  GLU281      0.0388
     89  CG         5.3770   16.8630   17.9000 C.3   281  GLU281      0.1160
     90  CD         4.4040   17.9180   18.4480 C.2   281  GLU281      0.3649
     91  OE1        4.3020   18.9990   17.8510 O.co2 281  GLU281     -0.2457
     92  OE2        3.7380   17.6720   19.4770 O.co2 281  GLU281     -0.2457
     93  N          4.9870   15.8620   12.4300 N.3   314  TRP314     -0.1241
     94  CA         3.6240   16.2600   12.7590 C.3   314  TRP314      0.1605
     95  C          3.0170   16.6830   11.3990 C.2   314  TRP314      0.2264
     96  O          3.5700   17.6000   10.7510 O.2   314  TRP314     -0.2867
     97  CB         3.6600   17.5050   13.6530 C.3   314  TRP314      0.0550
     98  CG         2.2710   17.9670   13.9340 C.ar  314  TRP314      0.0003
     99  CD1        1.4960   18.8080   13.1600 C.ar  314  TRP314      0.0946
    100  CD2        1.4840   17.6640   15.1180 C.ar  314  TRP314      0.0152
    101  NE1        0.2580   19.0000   13.7600 N.ar  314  TRP314     -0.2442
    102  CE2        0.2240   18.2850   14.9420 C.ar  314  TRP314      0.0810
    103  CE3        1.7340   16.9260   16.3000 C.ar  314  TRP314      0.0012
    104  CZ2       -0.7860   18.2320   15.9080 C.ar  314  TRP314      0.0191
    105  CZ3        0.6780   16.7960   17.2680 C.ar  314  TRP314      0.0001
    106  CH2       -0.5830   17.4790   17.0490 C.ar  314  TRP314      0.0015
    107  N         -3.8320   22.8370    9.7010 N.3   335  ASP335     -0.1239
    108  CA        -2.6910   23.6240   10.1780 C.3   335  ASP335      0.1674
    109  C         -1.5780   23.7740    9.1780 C.2   335  ASP335      0.2266
    110  O         -0.5600   24.3860    9.4960 O.2   335  ASP335     -0.2867
    111  CB        -2.1590   22.9900   11.5150 C.3   335  ASP335      0.1410
    112  CG        -1.7100   21.5620   11.3990 C.2   335  ASP335      0.3668
    113  OD1       -1.6250   20.9990   10.2900 O.co2 335  ASP335     -0.2456
    114  OD2       -1.4900   20.9850   12.5050 O.co2 335  ASP335     -0.2456
    115  N          0.3150   21.2700    8.1230 N.3   337  PHE337     -0.1241
    116  CA         1.3880   20.2560    8.3800 C.3   337  PHE337      0.1605
    117  C          0.8820   18.8460    7.9460 C.2   337  PHE337      0.2264
    118  O          1.6530   17.9080    8.0740 O.2   337  PHE337     -0.2867
    119  CB         1.6800   20.2320    9.9090 C.3   337  PHE337      0.0534
    120  CG         2.2940   21.5330   10.3900 C.ar  337  PHE337     -0.0203
    121  CD1        3.4660   22.0120    9.8220 C.ar  337  PHE337     -0.0042
    122  CD2        1.7420   22.1750   11.4630 C.ar  337  PHE337     -0.0042
    123  CE1        4.0450   23.1800   10.2920 C.ar  337  PHE337     -0.0003
    124  CE2        2.3580   23.3870   11.9590 C.ar  337  PHE337     -0.0003
    125  CZ         3.4930   23.8620   11.3490 C.ar  337  PHE337     -0.0000
@<TRIPOS>BOND
     1   117   118    2
     2   117   116    1
     3   115   116    1
     4   116   119    1
     5   109   110    2
     6   109   108    1
     7   107   108    1
     8   121   123   ar
     9   121   120   ar
    10   119   120    1
    11   108   111    1
    12   113   112   ar
    13   123   125   ar
    14   120   122   ar
    15    96    95    2
    16   125   124   ar
    17    95    94    1
    18   112   111    1
    19   112   114   ar
    20   122   124   ar
    21    93    94    1
    22    94    97    1
    23    99   101   ar
    24    99    98   ar
    25    74    75    1
    26    97    98    1
    27   101   102   ar
    28    83    81   ar
    29    83    82   ar
    30    98   100   ar
    31    68    70   ar
    32    68    67   ar
    33    81    79   ar
    34    64    63    1
    35    64    65    2
    36    70    72   ar
    37    63    66    1
    38    63    62    1
    39    75    76    1
    40    75    78    1
    41    66    67    1
    42   102   100   ar
    43   102   104   ar
    44    82    80   ar
    45    67    69   ar
    46    79    78    1
    47    79    80   ar
    48   100   103   ar
    49    72    73    1
    50    72    71   ar
    51    86    87    2
    52    86    85    1
    53    76    77    2
    54   104   106   ar
    55    69    71   ar
    56    85    88    1
    57    85    84    1
    58   103   105   ar
    59    88    89    1
    60   106   105   ar
    61    91    90   ar
    62    89    90    1
    63    90    92   ar
    64    61    59   ar
    65    43    42   ar
    66    12    14   ar
    67    12    10   ar
    68    14    13   ar
    69    42    44   ar
    70    42    41    1
    71    60    59   ar
    72     9    10   ar
    73     9     7   ar
    74    10     8   ar
    75    59    58    1
    76    13    11   ar
    77     7     6   ar
    78     1     2    1
    79     8    11   ar
    80     8     6   ar
    81    41    38    1
    82     6     5    1
    83    58    57    1
    84    51    50    2
    85     5     2    1
    86    52    50   am
    87    31    29   ar
    88    31    32   ar
    89     2     3    1
    90    29    28   ar
    91    38    37    1
    92    38    39    1
    93    50    49    1
    94     4     3    2
    95    32    34   ar
    96    32    30   ar
    97    34    36   ar
    98    28    30   ar
    99    28    27    1
   100    57    54    1
   101    30    33   ar
   102    22    20   am
   103    39    40    2
   104    27    24    1
   105    36    35   ar
   106    33    35   ar
   107    49    46    1
   108    21    20    2
   109    20    19    1
   110    54    53    1
   111    54    55    1
   112    53    47   am
   113    46    47    1
   114    46    45    1
   115    24    25    1
   116    24    23    1
   117    47    48    2
   118    25    26    2
   119    19    16    1
   120    55    56    2
   121    16    17    1
   122    16    15    1
   123    17    18    2
