@<TRIPOS>MOLECULE
tmp/3pzpA00.pdb
 162 154 0 0 0
SMALL
GASTEIGER

@<TRIPOS>ATOM
      1  N         44.6650   24.4100   74.1120 N.3     2  ALA2       -0.1245
      2  CA        44.9130   23.1060   74.7770 C.3     2  ALA2        0.1562
      3  C         46.2190   22.4170   74.3280 C.2     2  ALA2        0.2260
      4  O         46.3210   21.9770   73.1760 O.2     2  ALA2       -0.2867
      5  CB        43.7130   22.1620   74.5500 C.3     2  ALA2        0.0290
      6  N         43.5900   10.5780   72.1170 N.3    83  ASP83      -0.1225
      7  CA        43.8700   11.7430   71.2820 C.3    83  ASP83       0.1805
      8  C         45.3590   11.8540   71.1790 C.2    83  ASP83       0.2597
      9  O         46.0370   11.9120   72.1870 O.2    83  ASP83      -0.2718
     10  CB        43.2730   13.0140   71.8990 C.3    83  ASP83       0.1424
     11  CG        43.5800   14.2670   71.1070 C.2    83  ASP83       0.3668
     12  OD1       44.2840   15.1390   71.6390 O.co2  83  ASP83      -0.2456
     13  OD2       43.1150   14.4010   69.9650 O.co2  83  ASP83      -0.2456
     14  N         45.8650   11.8590   69.9560 N.am   84  MET84      -0.1979
     15  CA        47.3000   11.8630   69.7310 C.3    84  MET84       0.1605
     16  C         47.8820   13.2340   70.0610 C.2    84  MET84       0.2287
     17  O         47.1500   14.2330   70.1560 O.2    84  MET84      -0.2864
     18  CB        47.6130   11.5100   68.2770 C.3    84  MET84       0.0413
     19  CG        47.1280   10.1310   67.8190 C.3    84  MET84       0.0598
     20  SD        47.9740    8.7490   68.6280 S.3    84  MET84      -0.1393
     21  CE        49.6480    8.8550   68.0010 C.3    84  MET84       0.0692
     22  N         50.1400   16.3830   69.1970 N.3    86  ALA86      -0.1231
     23  CA        50.6370   17.2030   68.1160 C.3    86  ALA86       0.1694
     24  C         50.7200   16.3600   66.8940 C.2    86  ALA86       0.2592
     25  O         51.7340   16.3330   66.2250 O.2    86  ALA86      -0.2718
     26  CB        52.0000   17.7620   68.4640 C.3    86  ALA86       0.0304
     27  N         49.6370   15.6720   66.5970 N.am   87  PHE87      -0.1962
     28  CA        49.6920   14.5740   65.6410 C.3    87  PHE87       0.1771
     29  C         50.5500   14.7520   64.3650 C.2    87  PHE87       0.2619
     30  O         51.5740   14.0800   64.2310 O.2    87  PHE87      -0.2715
     31  CB        48.2900   14.1250   65.2410 C.3    87  PHE87       0.0574
     32  CG        48.2770   12.8610   64.4360 C.ar   87  PHE87      -0.0200
     33  CD1       49.1440   11.8200   64.7330 C.ar   87  PHE87      -0.0042
     34  CD2       47.4010   12.7050   63.3950 C.ar   87  PHE87      -0.0042
     35  CE1       49.1190   10.6650   64.0130 C.ar   87  PHE87      -0.0003
     36  CE2       47.3750   11.5480   62.6750 C.ar   87  PHE87      -0.0003
     37  CZ        48.2300   10.5260   62.9850 C.ar   87  PHE87      -0.0000
     38  N         50.1410   15.5920   63.4130 N.am   88  TYR88      -0.1974
     39  CA        50.8900   15.6260   62.1660 C.3    88  TYR88       0.1639
     40  C         52.3270   15.9640   62.5070 C.2    88  TYR88       0.2290
     41  O         53.2430   15.2440   62.0970 O.2    88  TYR88      -0.2864
     42  CB        50.3840   16.6450   61.1450 C.3    88  TYR88       0.0560
     43  CG        48.9700   16.5000   60.6040 C.ar   88  TYR88      -0.0198
     44  CD1       48.3810   17.5710   59.9410 C.ar   88  TYR88      -0.0009
     45  CD2       48.2310   15.3540   60.7530 C.ar   88  TYR88      -0.0009
     46  CE1       47.1060   17.5100   59.4400 C.ar   88  TYR88       0.0417
     47  CE2       46.9480   15.2790   60.2410 C.ar   88  TYR88       0.0417
     48  CZ        46.3900   16.3700   59.5830 C.ar   88  TYR88       0.1957
     49  OH        45.1060   16.3590   59.0740 O.3    88  TYR88      -0.2866
     50  N         48.8120   29.1440   56.5550 N.3   111  MET111     -0.1230
     51  CA        48.1260   28.5320   57.7110 C.3   111  MET111      0.1702
     52  C         48.7410   27.2200   58.2270 C.2   111  MET111      0.2592
     53  O         49.0070   26.2830   57.4530 O.2   111  MET111     -0.2718
     54  CB        46.6660   28.2660   57.3790 C.3   111  MET111      0.0401
     55  CG        45.8370   27.8880   58.5790 C.3   111  MET111      0.0596
     56  SD        45.1210   29.3500   59.3220 S.3   111  MET111     -0.1393
     57  CE        43.4310   29.1890   58.7590 C.3   111  MET111      0.0692
     58  N         48.9090   27.1530   59.5490 N.am  112  LEU112     -0.1966
     59  CA        49.4190   25.9730   60.2480 C.3   112  LEU112      0.1728
     60  C         48.2750   25.0780   60.6410 C.2   112  LEU112      0.2617
     61  O         47.2620   25.5450   61.1270 O.2   112  LEU112     -0.2715
     62  CB        50.1400   26.3890   61.5260 C.3   112  LEU112      0.0311
     63  CG        51.2490   27.3890   61.2820 C.3   112  LEU112      0.0022
     64  CD1       51.8910   27.7420   62.5710 C.3   112  LEU112      0.0001
     65  CD2       52.2330   26.7610   60.3530 C.3   112  LEU112      0.0001
     66  N         48.4580   23.7850   60.4500 N.am  113  SER113     -0.1936
     67  CA        47.4730   22.8080   60.8460 C.3   113  SER113      0.2055
     68  C         47.7800   22.2720   62.2200 C.2   113  SER113      0.2643
     69  O         46.8720   21.9150   62.9610 O.2   113  SER113     -0.2714
     70  CB        47.4580   21.6760   59.8490 C.3   113  SER113      0.2130
     71  OG        47.0830   22.1900   58.5770 O.3   113  SER113     -0.2179
     72  N         49.0530   22.1980   62.5760 N.am  114  THR114     -0.1950
     73  CA        49.3950   21.8930   63.9440 C.3   114  THR114      0.1897
     74  C         50.8030   22.2950   64.2090 C.2   114  THR114      0.2313
     75  O         51.4820   22.7540   63.3180 O.2   114  THR114     -0.2863
     76  CB        49.2640   20.4180   64.2260 C.3   114  THR114      0.1794
     77  OG1       49.5310   20.1860   65.6080 O.3   114  THR114     -0.2208
     78  CG2       50.2350   19.6340   63.4020 C.3   114  THR114      0.0378
     79  N         54.9260   20.7090   70.4770 N.3   117  TYR117     -0.1241
     80  CA        54.7670   21.3480   71.7670 C.3   117  TYR117      0.1605
     81  C         55.8670   22.3520   72.0020 C.2   117  TYR117      0.2264
     82  O         55.6510   23.3890   72.6570 O.2   117  TYR117     -0.2867
     83  CB        54.6950   20.3340   72.8720 C.3   117  TYR117      0.0534
     84  CG        53.3150   19.7780   72.9970 C.ar  117  TYR117     -0.0201
     85  CD1       52.4820   20.1680   74.0300 C.ar  117  TYR117     -0.0009
     86  CD2       52.8250   18.8780   72.0690 C.ar  117  TYR117     -0.0009
     87  CE1       51.1940   19.6600   74.1520 C.ar  117  TYR117      0.0417
     88  CE2       51.5350   18.3530   72.1850 C.ar  117  TYR117      0.0417
     89  CZ        50.7220   18.7520   73.2250 C.ar  117  TYR117      0.1957
     90  OH        49.4390   18.2490   73.3470 O.3   117  TYR117     -0.2866
     91  N         54.8640   25.4990   70.3980 N.3   120  ARG120     -0.1245
     92  CA        53.7770   25.9740   71.2360 C.3   120  ARG120      0.1563
     93  C         54.2120   26.9420   72.3450 C.2   120  ARG120      0.2260
     94  O         53.4640   27.8450   72.7250 O.2   120  ARG120     -0.2867
     95  CB        53.0420   24.7710   71.8210 C.3   120  ARG120      0.0307
     96  CG        51.7500   24.4470   71.0880 C.3   120  ARG120      0.0489
     97  CD        51.6740   23.0520   70.5560 C.3   120  ARG120      0.2205
     98  NE        50.5350   22.3560   71.1370 N.pl3 120  ARG120     -0.0865
     99  CZ        49.8640   21.3730   70.5420 C.cat 120  ARG120      0.5346
    100  NH1       50.1830   20.9490   69.3100 N.pl3 120  ARG120      0.1354
    101  NH2       48.8470   20.8090   71.1840 N.pl3 120  ARG120      0.1354
    102  N         47.7600   25.7100   66.1560 N.3   126  ALA126     -0.1231
    103  CA        46.9640   25.3480   64.9480 C.3   126  ALA126      0.1694
    104  C         45.9000   26.3980   64.6550 C.2   126  ALA126      0.2591
    105  O         45.4600   27.0910   65.5600 O.2   126  ALA126     -0.2718
    106  CB        46.3160   23.9440   65.0920 C.3   126  ALA126      0.0304
    107  N         45.5080   26.5010   63.3850 N.am  127  ALA127     -0.1980
    108  CA        44.6280   27.5720   62.8620 C.3   127  ALA127      0.1597
    109  C         45.2980   28.9580   62.7810 C.2   127  ALA127      0.2287
    110  O         44.6450   29.9450   62.4290 O.2   127  ALA127     -0.2864
    111  CB        43.3170   27.6560   63.6560 C.3   127  ALA127      0.0319
    112  N         49.2380   13.8110   53.9500 N.3   147  PHE147     -0.1241
    113  CA        48.1880   13.1140   54.6830 C.3   147  PHE147      0.1605
    114  C         48.2970   11.6140   54.5030 C.2   147  PHE147      0.2264
    115  O         48.0150   10.8410   55.4210 O.2   147  PHE147     -0.2867
    116  CB        46.8180   13.6090   54.2520 C.3   147  PHE147      0.0534
    117  CG        46.6800   15.0950   54.3010 C.ar  147  PHE147     -0.0203
    118  CD1       46.7690   15.8480   53.1400 C.ar  147  PHE147     -0.0042
    119  CD2       46.4730   15.7490   55.5030 C.ar  147  PHE147     -0.0042
    120  CE1       46.6390   17.2420   53.1780 C.ar  147  PHE147     -0.0003
    121  CE2       46.3450   17.1370   55.5510 C.ar  147  PHE147     -0.0003
    122  CZ        46.4270   17.8820   54.3910 C.ar  147  PHE147     -0.0000
    123  N         38.6420   10.9010   63.7650 N.3   172  SER172     -0.1217
    124  CA        39.5790   11.5960   62.9150 C.3   172  SER172      0.1889
    125  C         40.7730   10.6970   62.7820 C.2   172  SER172      0.2288
    126  O         40.8850    9.6870   63.4810 O.2   172  SER172     -0.2866
    127  CB        40.0130   12.9170   63.5610 C.3   172  SER172      0.2089
    128  OG        40.8160   12.6860   64.7120 O.3   172  SER172     -0.2183
    129  N         43.2780   11.1740   64.0950 N.3   174  ASP174     -0.1225
    130  CA        44.0290   11.3020   65.3390 C.3   174  ASP174      0.1805
    131  C         43.2690   10.9250   66.6340 C.2   174  ASP174      0.2597
    132  O         43.9050   10.7150   67.6860 O.2   174  ASP174     -0.2718
    133  CB        44.6370   12.7140   65.4080 C.3   174  ASP174      0.1424
    134  CG        44.2790   13.4500   66.6740 C.2   174  ASP174      0.3668
    135  OD1       43.0930   13.8390   66.7860 O.co2 174  ASP174     -0.2456
    136  OD2       45.1720   13.6560   67.5410 O.co2 174  ASP174     -0.2456
    137  N         41.9370   10.8180   66.5550 N.am  175  GLU175     -0.1979
    138  CA        41.1050   10.5190   67.7270 C.3   175  GLU175      0.1602
    139  C         40.2760    9.2640   67.5470 C.2   175  GLU175      0.2287
    140  O         39.8650    8.9330   66.4460 O.2   175  GLU175     -0.2864
    141  CB        40.1610   11.6850   68.0270 C.3   175  GLU175      0.0415
    142  CG        40.8180   12.8400   68.7480 C.3   175  GLU175      0.1163
    143  CD        39.9250   14.0680   68.8510 C.2   175  GLU175      0.3649
    144  OE1       40.4750   15.2000   68.7350 O.co2 175  GLU175     -0.2457
    145  OE2       38.6850   13.8920   69.0470 O.co2 175  GLU175     -0.2457
    146  N         42.2750   15.4520   77.5130 N.3   245  ASP245     -0.1239
    147  CA        43.0540   16.6830   77.3900 C.3   245  ASP245      0.1674
    148  C         43.5510   17.2190   78.7290 C.2   245  ASP245      0.2266
    149  O         44.4600   18.0360   78.7400 O.2   245  ASP245     -0.2867
    150  CB        42.2230   17.7400   76.6510 C.3   245  ASP245      0.1410
    151  CG        43.0810   18.8910   76.0320 C.2   245  ASP245      0.3668
    152  OD1       43.5710   19.7660   76.7980 O.co2 245  ASP245     -0.2456
    153  OD2       43.2130   18.9700   74.7700 O.co2 245  ASP245     -0.2456
    154  N         47.5460   16.3390   78.8120 N.3   248  LYS248     -0.1245
    155  CA        48.3400   16.3740   77.5990 C.3   248  LYS248      0.1561
    156  C         49.6320   17.0590   77.9070 C.2   248  LYS248      0.2260
    157  O         49.7040   17.8950   78.8190 O.2   248  LYS248     -0.2867
    158  CB        47.6910   17.1600   76.4570 C.3   248  LYS248      0.0271
    159  CG        46.5210   16.4880   75.7930 C.3   248  LYS248      0.0035
    160  CD        46.3850   16.9060   74.3150 C.3   248  LYS248      0.0206
    161  CE        47.0440   15.8930   73.3870 C.3   248  LYS248      0.1093
    162  NZ        46.3990   14.5400   73.3660 N.3   248  LYS248     -0.1314
@<TRIPOS>BOND
     1   118   120   ar
     2   118   117   ar
     3   120   122   ar
     4   112   113    1
     5   116   117    1
     6   116   113    1
     7   117   119   ar
     8   122   121   ar
     9   114   113    1
    10   114   115    2
    11   119   121   ar
    12    50    51    1
    13    54    51    1
    14    54    55    1
    15    53    52    2
    16    51    52    1
    17    52    58   am
    18    71    70    1
    19    55    56    1
    20    57    56    1
    21    49    48    1
    22    46    48   ar
    23    46    44   ar
    24    58    59    1
    25    48    47   ar
    26    70    67    1
    27    44    43   ar
    28    47    45   ar
    29    59    60    1
    30    59    62    1
    31    65    63    1
    32    66    60   am
    33    66    67    1
    34    43    45   ar
    35    43    42    1
    36    60    61    2
    37    67    68    1
    38    42    39    1
    39    63    62    1
    40    63    64    1
    41    41    40    2
    42    39    40    1
    43    39    38    1
    44    68    72   am
    45    68    69    2
    46   110   109    2
    47    72    73    1
    48    36    37   ar
    49    36    34   ar
    50   109   108    1
    51   125   124    1
    52   125   126    2
    53   108   107    1
    54   108   111    1
    55   124   127    1
    56   124   123    1
    57    37    35   ar
    58    75    74    2
    59   107   104   am
    60    34    32   ar
    61    78    76    1
    62    38    29   am
    63   127   128    1
    64    73    74    1
    65    73    76    1
    66    35    33   ar
    67   129   130    1
    68    76    77    1
    69    30    29    2
    70    29    28    1
    71    32    33   ar
    72    32    31    1
    73   104   103    1
    74   104   105    2
    75   103   106    1
    76   103   102    1
    77    31    28    1
    78   130   133    1
    79   130   131    1
    80   133   134    1
    81    28    27    1
    82    25    24    2
    83   140   139    2
    84   137   131   am
    85   137   138    1
    86    27    24   am
    87   131   132    2
    88   134   135   ar
    89   134   136   ar
    90    24    23    1
    91   139   138    1
    92   138   141    1
    93    19    18    1
    94    19    20    1
    95    21    20    1
    96   141   142    1
    97    23    26    1
    98    23    22    1
    99    18    15    1
   100   144   143   ar
   101   142   143    1
   102   143   145   ar
   103   100    99    1
   104    15    14    1
   105    15    16    1
   106    14     8   am
   107    13    11   ar
   108    16    17    2
   109    91    92    1
   110    79    80    1
   111    99    98    2
   112    99   101    1
   113    97    96    1
   114    97    98    1
   115    96    95    1
   116    11    12   ar
   117    11    10    1
   118     8     7    1
   119     8     9    2
   120    92    95    1
   121    92    93    1
   122     7    10    1
   123     7     6    1
   124    80    81    1
   125    80    83    1
   126    81    82    2
   127    86    88   ar
   128    86    84   ar
   129    88    89   ar
   130    93    94    2
   131    83    84    1
   132    84    85   ar
   133     4     3    2
   134    89    90    1
   135    89    87   ar
   136   162   161    1
   137   161   160    1
   138    85    87   ar
   139     1     2    1
   140   160   159    1
   141     3     2    1
   142     5     2    1
   143   153   151   ar
   144   159   158    1
   145   151   150    1
   146   151   152   ar
   147   158   155    1
   148   150   147    1
   149   147   146    1
   150   147   148    1
   151   155   156    1
   152   155   154    1
   153   156   157    2
   154   148   149    2
