@<TRIPOS>MOLECULE
tmp/3pzqA01.pdb
 140 141 0 0 0
SMALL
GASTEIGER

@<TRIPOS>ATOM
      1  N         -1.1420   22.9770   26.2100 N.3    98  TRP98      -0.1227
      2  CA        -1.9950   23.9860   25.5250 C.3    98  TRP98       0.1737
      3  C         -3.4620   23.7140   25.8550 C.2    98  TRP98       0.2595
      4  O         -3.7800   22.6260   26.3580 O.2    98  TRP98      -0.2718
      5  CB        -1.7820   23.8800   24.0080 C.3    98  TRP98       0.0564
      6  CG        -0.2810   23.9800   23.6800 C.ar   98  TRP98       0.0003
      7  CD1        0.4670   23.0420   23.0790 C.ar   98  TRP98       0.0946
      8  CD2        0.5960   25.1070   23.9450 C.ar   98  TRP98       0.0152
      9  NE1        1.7700   23.4840   22.9850 N.ar   98  TRP98      -0.2442
     10  CE2        1.8760   24.7340   23.5430 C.ar   98  TRP98       0.0810
     11  CE3        0.4240   26.3340   24.5750 C.ar   98  TRP98       0.0012
     12  CZ2        2.9840   25.5820   23.6680 C.ar   98  TRP98       0.0191
     13  CZ3        1.5300   27.2050   24.7010 C.ar   98  TRP98       0.0001
     14  CH2        2.7960   26.8210   24.2530 C.ar   98  TRP98       0.0015
     15  N         -4.3470   24.6140   25.4480 N.am   99  ASP99      -0.1960
     16  CA        -5.7710   24.4870   25.8630 C.3    99  ASP99       0.1840
     17  C         -6.6120   23.5160   25.0170 C.2    99  ASP99       0.2622
     18  O         -7.7550   23.2320   25.4090 O.2    99  ASP99      -0.2715
     19  CB        -6.4920   25.8910   25.7750 C.3    99  ASP99       0.1450
     20  CG        -5.9770   26.8930   26.7810 C.2    99  ASP99       0.3671
     21  OD1       -5.0650   26.6050   27.5980 O.co2  99  ASP99      -0.2456
     22  OD2       -6.5270   27.9900   26.7460 O.co2  99  ASP99      -0.2456
     23  N         -6.0820   23.0130   23.9000 N.am  100  ASP100     -0.1971
     24  CA        -6.7790   22.0280   23.0590 C.3   100  ASP100      0.1709
     25  C         -6.9980   20.7910   23.9070 C.2   100  ASP100      0.2293
     26  O         -6.0480   20.2790   24.5460 O.2   100  ASP100     -0.2864
     27  CB        -5.9160   21.6420   21.8300 C.3   100  ASP100      0.1436
     28  CG        -5.4170   22.8700   21.0330 C.2   100  ASP100      0.3671
     29  OD1       -6.2340   23.6620   20.5460 O.co2 100  ASP100     -0.2456
     30  OD2       -4.2030   23.0430   20.9160 O.co2 100  ASP100     -0.2456
     31  N          2.4170   17.1210   26.7820 N.3   161  ASN161     -0.1225
     32  CA         2.7890   17.6520   25.4600 C.3   161  ASN161      0.1785
     33  C          3.2450   19.0900   25.5440 C.2   161  ASN161      0.2597
     34  O          2.4560   19.9770   25.9260 O.2   161  ASN161     -0.2718
     35  CB         1.5840   17.6240   24.5640 C.3   161  ASN161      0.1169
     36  CG         1.8910   18.1310   23.1420 C.2   161  ASN161      0.2627
     37  OD1        2.8780   17.6980   22.5050 O.2   161  ASN161     -0.2716
     38  ND2        1.0850   19.0910   22.6720 N.am  161  ASN161     -0.0877
     39  N          4.4710   19.3320   25.0970 N.am  162  GLU162     -0.1979
     40  CA         5.0280   20.7220   24.9450 C.3   162  GLU162      0.1602
     41  C          4.9540   21.4680   26.2570 C.2   162  GLU162      0.2287
     42  O          4.6720   22.6630   26.2980 O.2   162  GLU162     -0.2864
     43  CB         4.3490   21.4560   23.7600 C.3   162  GLU162      0.0415
     44  CG         4.5770   20.6270   22.4640 C.3   162  GLU162      0.1163
     45  CD         4.3680   21.4110   21.1740 C.2   162  GLU162      0.3649
     46  OE1        3.5830   22.3610   21.2010 O.co2 162  GLU162     -0.2457
     47  OE2        5.0540   21.0770   20.1490 O.co2 162  GLU162     -0.2457
     48  N          5.6960   23.8640   29.2350 N.3   164  ARG164     -0.1245
     49  CA         6.4650   25.0700   29.4520 C.3   164  ARG164      0.1563
     50  C          6.0790   25.6490   30.8160 C.2   164  ARG164      0.2260
     51  O          4.9590   25.3920   31.3360 O.2   164  ARG164     -0.2867
     52  CB         6.0870   26.0980   28.3890 C.3   164  ARG164      0.0307
     53  CG         6.2980   25.6050   26.9230 C.3   164  ARG164      0.0489
     54  CD         6.1240   26.8680   25.9820 C.3   164  ARG164      0.2205
     55  NE         6.3730   26.4910   24.5630 N.pl3 164  ARG164     -0.0865
     56  CZ         6.2960   27.3510   23.5630 C.cat 164  ARG164      0.5346
     57  NH1        5.9990   28.6340   23.8170 N.pl3 164  ARG164      0.1354
     58  NH2        6.4880   26.9120   22.3130 N.pl3 164  ARG164      0.1354
     59  N          9.2730   20.2120   24.0270 N.3   199  GLU199     -0.1245
     60  CA         9.7820   20.6940   22.7060 C.3   199  GLU199      0.1567
     61  C         11.3080   20.6490   22.6100 C.2   199  GLU199      0.2260
     62  O         11.8600   20.7910   21.5050 O.2   199  GLU199     -0.2867
     63  CB         9.3160   22.1260   22.4780 C.3   199  GLU199      0.0388
     64  CG         7.7760   22.1490   22.2960 C.3   199  GLU199      0.1160
     65  CD         7.2040   23.5530   22.5330 C.2   199  GLU199      0.3649
     66  OE1        7.0920   23.9010   23.7370 O.co2 199  GLU199     -0.2457
     67  OE2        6.8490   24.2680   21.5290 O.co2 199  GLU199     -0.2457
     68  N         15.1000   32.5560   21.9690 N.3   217  TRP217     -0.1241
     69  CA        14.3510   32.2150   23.1920 C.3   217  TRP217      0.1605
     70  C         14.3300   30.7000   23.4060 C.2   217  TRP217      0.2264
     71  O         14.2270   30.2600   24.5420 O.2   217  TRP217     -0.2867
     72  CB        12.9450   32.7810   23.1390 C.3   217  TRP217      0.0550
     73  CG        12.1540   32.2290   21.9640 C.ar  217  TRP217      0.0003
     74  CD1       12.1270   32.7070   20.6820 C.ar  217  TRP217      0.0946
     75  CD2       11.3380   31.0530   21.9830 C.ar  217  TRP217      0.0152
     76  NE1       11.3120   31.9170   19.9140 N.ar  217  TRP217     -0.2442
     77  CE2       10.8440   30.8670   20.6770 C.ar  217  TRP217      0.0810
     78  CE3       10.9880   30.1230   22.9900 C.ar  217  TRP217      0.0012
     79  CZ2        9.9900   29.8170   20.3360 C.ar  217  TRP217      0.0191
     80  CZ3       10.1480   29.0470   22.6540 C.ar  217  TRP217      0.0001
     81  CH2        9.6490   28.9080   21.3510 C.ar  217  TRP217      0.0015
     82  N          9.6680   23.3380   15.0010 N.3   244  TYR244     -0.1241
     83  CA         8.7530   24.0660   14.1380 C.3   244  TYR244      0.1605
     84  C          9.3620   25.4550   13.8720 C.2   244  TYR244      0.2264
     85  O          8.9340   26.4640   14.4740 O.2   244  TYR244     -0.2867
     86  CB         7.3620   24.2720   14.7660 C.3   244  TYR244      0.0534
     87  CG         6.5870   23.0140   14.9530 C.ar  244  TYR244     -0.0201
     88  CD1        5.7780   22.5340   13.9030 C.ar  244  TYR244     -0.0009
     89  CD2        6.6170   22.3250   16.1980 C.ar  244  TYR244     -0.0009
     90  CE1        5.0440   21.4120   14.0400 C.ar  244  TYR244      0.0417
     91  CE2        5.8550   21.1730   16.3520 C.ar  244  TYR244      0.0417
     92  CZ         5.0910   20.7180   15.2740 C.ar  244  TYR244      0.1957
     93  OH         4.2780   19.6250   15.3720 O.3   244  TYR244     -0.2866
     94  N          7.0220   28.4860   13.4490 N.3   247  HIS247     -0.1226
     95  CA         6.2720   29.0000   14.5970 C.3   247  HIS247      0.1752
     96  C          7.1710   29.8160   15.5250 C.2   247  HIS247      0.2596
     97  O          6.7020   30.5910   16.3460 O.2   247  HIS247     -0.2718
     98  CB         5.7480   27.8160   15.4220 C.3   247  HIS247      0.0759
     99  CG         4.6040   27.0790   14.8230 C.ar  247  HIS247      0.0818
    100  ND1        4.1500   25.8810   15.3540 N.ar  247  HIS247     -0.2268
    101  CD2        3.8090   27.3410   13.7570 C.ar  247  HIS247      0.1154
    102  CE1        3.0960   25.4660   14.6710 C.ar  247  HIS247      0.1986
    103  NE2        2.8700   26.3310   13.6950 N.ar  247  HIS247     -0.2212
    104  N          8.4720   29.6030   15.4480 N.am  248  TRP248     -0.1976
    105  CA         9.3870   30.0440   16.4560 C.3   248  TRP248      0.1640
    106  C         10.1980   31.3120   16.1230 C.2   248  TRP248      0.2290
    107  O         11.0420   31.7480   16.9030 O.2   248  TRP248     -0.2864
    108  CB        10.3310   28.8690   16.8020 C.3   248  TRP248      0.0576
    109  CG         9.6290   27.7180   17.4590 C.ar  248  TRP248      0.0006
    110  CD1        8.3620   27.6960   17.9700 C.ar  248  TRP248      0.0946
    111  CD2       10.2160   26.4120   17.7290 C.ar  248  TRP248      0.0152
    112  NE1        8.1030   26.4040   18.5300 N.ar  248  TRP248     -0.2442
    113  CE2        9.2390   25.6320   18.3870 C.ar  248  TRP248      0.0810
    114  CE3       11.4740   25.8370   17.4460 C.ar  248  TRP248      0.0012
    115  CZ2        9.4880   24.2780   18.7840 C.ar  248  TRP248      0.0191
    116  CZ3       11.7410   24.5040   17.8660 C.ar  248  TRP248      0.0001
    117  CH2       10.7440   23.7550   18.5320 C.ar  248  TRP248      0.0015
    118  N          8.1890   15.5440   17.1020 N.3   281  GLU281     -0.1245
    119  CA         7.2970   16.2930   16.2110 C.3   281  GLU281      0.1567
    120  C          8.1960   17.1830   15.3420 C.2   281  GLU281      0.2260
    121  O          9.1110   17.8100   15.8620 O.2   281  GLU281     -0.2867
    122  CB         6.3560   17.2300   16.9580 C.3   281  GLU281      0.0388
    123  CG         5.2700   16.5690   17.8220 C.3   281  GLU281      0.1160
    124  CD         4.2960   17.6370   18.3860 C.2   281  GLU281      0.3649
    125  OE1        4.2750   18.7410   17.8360 O.co2 281  GLU281     -0.2457
    126  OE2        3.5440   17.3790   19.3610 O.co2 281  GLU281     -0.2457
    127  N          4.9660   15.6870   12.3380 N.3   314  TRP314     -0.1241
    128  CA         3.6010   16.0760   12.6570 C.3   314  TRP314      0.1605
    129  C          2.9900   16.4790   11.2630 C.2   314  TRP314      0.2264
    130  O          3.4800   17.4250   10.6500 O.2   314  TRP314     -0.2867
    131  CB         3.6140   17.2950   13.6010 C.3   314  TRP314      0.0550
    132  CG         2.1970   17.8300   13.8600 C.ar  314  TRP314      0.0003
    133  CD1        1.4260   18.6080   13.0060 C.ar  314  TRP314      0.0946
    134  CD2        1.4040   17.6070   15.0330 C.ar  314  TRP314      0.0152
    135  NE1        0.1860   18.8400   13.5840 N.ar  314  TRP314     -0.2442
    136  CE2        0.1490   18.2140   14.8160 C.ar  314  TRP314      0.0810
    137  CE3        1.6240   16.9070   16.2200 C.ar  314  TRP314      0.0012
    138  CZ2       -0.8680   18.1830   15.7600 C.ar  314  TRP314      0.0191
    139  CZ3        0.5820   16.8640   17.2080 C.ar  314  TRP314      0.0001
    140  CH2       -0.6430   17.4800   16.9710 C.ar  314  TRP314      0.0015
@<TRIPOS>BOND
     1   130   129    2
     2   129   128    1
     3   127   128    1
     4   128   131    1
     5   133   135   ar
     6   133   132   ar
     7    94    95    1
     8   135   136   ar
     9   131   132    1
    10   103   101   ar
    11   103   102   ar
    12   101    99   ar
    13   132   134   ar
    14    84    83    1
    15    84    85    2
    16    88    90   ar
    17    88    87   ar
    18    90    92   ar
    19    83    86    1
    20    83    82    1
    21    95    98    1
    22    95    96    1
    23   102   100   ar
    24    86    87    1
    25   136   134   ar
    26   136   138   ar
    27    99   100   ar
    28    99    98    1
    29    87    89   ar
    30   134   137   ar
    31    92    93    1
    32    92    91   ar
    33   120   121    2
    34   120   119    1
    35   104    96   am
    36   104   105    1
    37    96    97    2
    38   138   140   ar
    39   106   105    1
    40   106   107    2
    41    89    91   ar
    42   119   122    1
    43   119   118    1
    44   137   139   ar
    45   105   108    1
    46   108   109    1
    47   122   123    1
    48   140   139   ar
    49   114   111   ar
    50   114   116   ar
    51   109   111   ar
    52   109   110   ar
    53   111   113   ar
    54   123   124    1
    55   125   124   ar
    56   116   117   ar
    57   110   112   ar
    58   124   126   ar
    59   113   112   ar
    60   113   115   ar
    61   117   115   ar
    62    76    77   ar
    63    76    74   ar
    64    47    45   ar
    65    79    77   ar
    66    79    81   ar
    67    29    28   ar
    68    77    75   ar
    69    74    73   ar
    70    30    28   ar
    71    28    27    1
    72    45    46   ar
    73    45    44    1
    74    81    80   ar
    75    62    61    2
    76    67    65   ar
    77    27    24    1
    78    73    75   ar
    79    73    72    1
    80    68    69    1
    81    75    78   ar
    82    64    63    1
    83    64    65    1
    84    58    56    1
    85    44    43    1
    86    63    60    1
    87    37    36    2
    88    65    66   ar
    89    61    60    1
    90    80    78   ar
    91    38    36   am
    92    60    59    1
    93     9     7   ar
    94     9    10   ar
    95    24    23    1
    96    24    25    1
    97     7     6   ar
    98    72    69    1
    99    36    35    1
   100    69    70    1
   101    70    71    2
   102    10    12   ar
   103    10     8   ar
   104    56    57    1
   105    56    55    2
   106    12    14   ar
   107     6     8   ar
   108     6     5    1
   109    43    40    1
   110    23    17   am
   111    25    26    2
   112     8    11   ar
   113     5     2    1
   114    14    13   ar
   115    55    54    1
   116    35    32    1
   117    11    13   ar
   118    40    39    1
   119    40    41    1
   120    17    18    2
   121    17    16    1
   122    39    33   am
   123    15     3   am
   124    15    16    1
   125    32    33    1
   126    32    31    1
   127     2     3    1
   128     2     1    1
   129    33    34    2
   130    19    16    1
   131    19    20    1
   132     3     4    2
   133    54    53    1
   134    41    42    2
   135    22    20   ar
   136    20    21   ar
   137    53    52    1
   138    52    49    1
   139    48    49    1
   140    49    50    1
   141    50    51    2
