@<TRIPOS>MOLECULE
tmp/3pzqA00.pdb
 126 126 0 0 0
SMALL
GASTEIGER

@<TRIPOS>ATOM
      1  N         -3.7130   13.1860   16.6380 N.3     9  TYR9       -0.1241
      2  CA        -4.3460   13.5660   17.9140 C.3     9  TYR9        0.1605
      3  C         -5.8250   13.1560   18.0310 C.2     9  TYR9        0.2264
      4  O         -6.4470   13.4910   19.0050 O.2     9  TYR9       -0.2867
      5  CB        -4.2140   15.0940   18.0670 C.3     9  TYR9        0.0534
      6  CG        -4.9350   15.9050   16.9900 C.ar    9  TYR9       -0.0201
      7  CD1       -6.3300   15.9810   16.9830 C.ar    9  TYR9       -0.0009
      8  CD2       -4.2240   16.5460   15.9570 C.ar    9  TYR9       -0.0009
      9  CE1       -7.0350   16.7370   16.0210 C.ar    9  TYR9        0.0417
     10  CE2       -4.9490   17.2960   14.9430 C.ar    9  TYR9        0.0417
     11  CZ        -6.3090   17.3950   15.0300 C.ar    9  TYR9        0.1957
     12  OH        -6.9770   18.1270   14.0910 O.3     9  TYR9       -0.2866
     13  N        -11.2100    9.9290   19.8440 N.3    13  TYR13      -0.1241
     14  CA       -12.6010   10.4100   19.7050 C.3    13  TYR13       0.1605
     15  C        -13.2130   10.2430   18.3160 C.2    13  TYR13       0.2264
     16  O        -14.3880   10.4480   18.1330 O.2    13  TYR13      -0.2867
     17  CB       -12.7670   11.8860   20.2310 C.3    13  TYR13       0.0534
     18  CG       -12.0230   12.9080   19.4340 C.ar   13  TYR13      -0.0201
     19  CD1      -12.6950   13.6650   18.4360 C.ar   13  TYR13      -0.0009
     20  CD2      -10.6570   13.2210   19.7080 C.ar   13  TYR13      -0.0009
     21  CE1      -12.0390   14.6340   17.7040 C.ar   13  TYR13       0.0417
     22  CE2       -9.9760   14.2100   18.9490 C.ar   13  TYR13       0.0417
     23  CZ       -10.6840   14.9070   17.9770 C.ar   13  TYR13       0.1957
     24  OH       -10.1490   15.8520   17.2100 O.3    13  TYR13      -0.2866
     25  N         -2.7540   11.4270   21.6740 N.3    37  TRP37      -0.1241
     26  CA        -3.2040   12.0280   22.9290 C.3    37  TRP37       0.1605
     27  C         -3.9450   10.9680   23.7290 C.2    37  TRP37       0.2264
     28  O         -4.7490   10.2610   23.1380 O.2    37  TRP37      -0.2867
     29  CB        -4.1730   13.1160   22.5790 C.3    37  TRP37       0.0550
     30  CG        -3.5790   14.3940   21.9120 C.ar   37  TRP37       0.0003
     31  CD1       -4.2960   15.4950   21.6170 C.ar   37  TRP37       0.0946
     32  CD2       -2.2030   14.7660   21.7230 C.ar   37  TRP37       0.0152
     33  NE1       -3.5110   16.5060   21.1400 N.ar   37  TRP37      -0.2442
     34  CE2       -2.2060   16.0850   21.1940 C.ar   37  TRP37       0.0810
     35  CE3       -0.9790   14.0980   21.8340 C.ar   37  TRP37       0.0012
     36  CZ2       -1.0340   16.7640   20.8020 C.ar   37  TRP37       0.0191
     37  CZ3        0.2060   14.7900   21.4630 C.ar   37  TRP37       0.0001
     38  CH2        0.1520   16.1190   20.9540 C.ar   37  TRP37       0.0015
     39  N        -16.5440   17.1790   21.5180 N.3    49  LYS49      -0.1245
     40  CA       -16.2760   15.9640   20.7040 C.3    49  LYS49       0.1561
     41  C        -17.2540   14.8040   21.0170 C.2    49  LYS49       0.2260
     42  O        -17.0750   13.6960   20.4850 O.2    49  LYS49      -0.2867
     43  CB       -14.8240   15.4680   20.9600 C.3    49  LYS49       0.0271
     44  CG       -13.7070   16.5990   20.8360 C.3    49  LYS49       0.0035
     45  CD       -13.7970   17.2690   19.4800 C.3    49  LYS49       0.0206
     46  CE       -12.5930   18.2230   19.3270 C.3    49  LYS49       0.1093
     47  NZ       -12.7390   18.8970   17.9660 N.3    49  LYS49      -0.1314
     48  N         -6.0820   23.0130   23.9000 N.3   100  ASP100     -0.1225
     49  CA        -6.7790   22.0280   23.0590 C.3   100  ASP100      0.1805
     50  C         -6.9980   20.7910   23.9070 C.2   100  ASP100      0.2597
     51  O         -6.0480   20.2790   24.5460 O.2   100  ASP100     -0.2718
     52  CB        -5.9160   21.6420   21.8300 C.3   100  ASP100      0.1424
     53  CG        -5.4170   22.8700   21.0330 C.2   100  ASP100      0.3668
     54  OD1       -6.2340   23.6620   20.5460 O.co2 100  ASP100     -0.2456
     55  OD2       -4.2030   23.0430   20.9160 O.co2 100  ASP100     -0.2456
     56  N         -8.2610   20.3100   23.9580 N.am  101  PHE101     -0.1976
     57  CA        -8.6110   19.1420   24.7910 C.3   101  PHE101      0.1639
     58  C         -8.3870   19.4700   26.2230 C.2   101  PHE101      0.2290
     59  O         -8.1700   18.5860   27.0380 O.2   101  PHE101     -0.2864
     60  CB        -7.8870   17.8360   24.3410 C.3   101  PHE101      0.0560
     61  CG        -8.0460   17.5860   22.8640 C.ar  101  PHE101     -0.0200
     62  CD1       -9.2450   17.0680   22.3800 C.ar  101  PHE101     -0.0042
     63  CD2       -7.0370   17.9120   21.9840 C.ar  101  PHE101     -0.0042
     64  CE1       -9.4260   16.8430   20.9590 C.ar  101  PHE101     -0.0003
     65  CE2       -7.1830   17.6830   20.6180 C.ar  101  PHE101     -0.0003
     66  CZ        -8.4060   17.1770   20.0970 C.ar  101  PHE101     -0.0000
     67  N          4.9660   15.6870   12.3380 N.3   314  TRP314     -0.1241
     68  CA         3.6010   16.0760   12.6570 C.3   314  TRP314      0.1605
     69  C          2.9900   16.4790   11.2630 C.2   314  TRP314      0.2264
     70  O          3.4800   17.4250   10.6500 O.2   314  TRP314     -0.2867
     71  CB         3.6140   17.2950   13.6010 C.3   314  TRP314      0.0550
     72  CG         2.1970   17.8300   13.8600 C.ar  314  TRP314      0.0003
     73  CD1        1.4260   18.6080   13.0060 C.ar  314  TRP314      0.0946
     74  CD2        1.4040   17.6070   15.0330 C.ar  314  TRP314      0.0152
     75  NE1        0.1860   18.8400   13.5840 N.ar  314  TRP314     -0.2442
     76  CE2        0.1490   18.2140   14.8160 C.ar  314  TRP314      0.0810
     77  CE3        1.6240   16.9070   16.2200 C.ar  314  TRP314      0.0012
     78  CZ2       -0.8680   18.1830   15.7600 C.ar  314  TRP314      0.0191
     79  CZ3        0.5820   16.8640   17.2080 C.ar  314  TRP314      0.0001
     80  CH2       -0.6430   17.4800   16.9710 C.ar  314  TRP314      0.0015
     81  N        -18.2360   16.6550    9.4700 N.3   323  SER323     -0.1202
     82  CA       -17.7420   18.0440    9.2880 C.3   323  SER323      0.2020
     83  C        -16.2150   18.1090    9.3470 C.2   323  SER323      0.2618
     84  O        -15.6340   19.1920    9.5220 O.2   323  SER323     -0.2717
     85  CB       -18.3160   18.9050   10.4160 C.3   323  SER323      0.2103
     86  OG       -17.8970   18.3350   11.6490 O.3   323  SER323     -0.2182
     87  N        -15.5570   16.9570    9.2050 N.am  324  ASP324     -0.1973
     88  CA       -14.0970   16.9220    9.0700 C.3   324  ASP324      0.1709
     89  C        -13.7530   16.0970    7.8530 C.2   324  ASP324      0.2293
     90  O        -13.2070   14.9840    7.9260 O.2   324  ASP324     -0.2864
     91  CB       -13.3850   16.3750   10.3610 C.3   324  ASP324      0.1436
     92  CG       -13.5680   17.2810   11.5570 C.2   324  ASP324      0.3671
     93  OD1      -13.2260   18.5050   11.5060 O.co2 324  ASP324     -0.2456
     94  OD2      -14.0230   16.7560   12.5760 O.co2 324  ASP324     -0.2456
     95  N         -9.4390   13.7170    6.1950 N.3   331  TYR331     -0.1241
     96  CA        -9.5150   14.6250    7.3300 C.3   331  TYR331      0.1605
     97  C         -8.7530   15.8620    6.8720 C.2   331  TYR331      0.2264
     98  O         -7.6780   15.7480    6.2690 O.2   331  TYR331     -0.2867
     99  CB        -8.7640   13.9860    8.4990 C.3   331  TYR331      0.0534
    100  CG        -8.8350   14.8530    9.7100 C.ar  331  TYR331     -0.0201
    101  CD1       -7.8150   15.7360   10.0170 C.ar  331  TYR331     -0.0009
    102  CD2       -9.9550   14.8230   10.5090 C.ar  331  TYR331     -0.0009
    103  CE1       -7.9460   16.5590   11.2020 C.ar  331  TYR331      0.0417
    104  CE2      -10.0630   15.6160   11.6740 C.ar  331  TYR331      0.0417
    105  CZ        -9.0650   16.4480   11.9950 C.ar  331  TYR331      0.1957
    106  OH        -9.2520   17.2550   13.1260 O.3   331  TYR331     -0.2866
    107  N         -5.8720   21.2300    8.5240 N.3   334  TYR334     -0.1227
    108  CA        -6.2300   22.4920    9.2210 C.3   334  TYR334      0.1736
    109  C         -5.0290   23.3190    9.5850 C.2   334  TYR334      0.2595
    110  O         -5.1360   24.5210    9.6950 O.2   334  TYR334     -0.2718
    111  CB        -6.9760   22.1950   10.4900 C.3   334  TYR334      0.0548
    112  CG        -8.3360   21.6430   10.2690 C.ar  334  TYR334     -0.0200
    113  CD1       -9.3280   22.4170    9.6240 C.ar  334  TYR334     -0.0009
    114  CD2       -8.6740   20.3810   10.7390 C.ar  334  TYR334     -0.0009
    115  CE1      -10.6680   21.9180    9.4790 C.ar  334  TYR334      0.0417
    116  CE2       -9.9510   19.8710   10.5880 C.ar  334  TYR334      0.0417
    117  CZ       -10.9370   20.6250    9.9630 C.ar  334  TYR334      0.1957
    118  OH       -12.1980   20.1340    9.8040 O.3   334  TYR334     -0.2866
    119  N         -3.8700   22.7090    9.7770 N.am  335  ASP335     -0.1974
    120  CA        -2.6930   23.4530   10.2430 C.3   335  ASP335      0.1709
    121  C         -1.6030   23.6250    9.2150 C.2   335  ASP335      0.2293
    122  O         -0.6020   24.1930    9.5310 O.2   335  ASP335     -0.2864
    123  CB        -2.0600   22.8040   11.4990 C.3   335  ASP335      0.1436
    124  CG        -1.7470   21.3170   11.3170 C.2   335  ASP335      0.3671
    125  OD1       -1.7560   20.7730   10.1620 O.co2 335  ASP335     -0.2456
    126  OD2       -1.4730   20.6950   12.3820 O.co2 335  ASP335     -0.2456
@<TRIPOS>BOND
     1    95    96    1
     2    98    97    2
     3    97    96    1
     4    96    99    1
     5    89    90    2
     6    89    88    1
     7    99   100    1
     8   107   108    1
     9    88    87    1
    10    88    91    1
    11    87    83   am
    12   121   122    2
    13   121   120    1
    14   108   109    1
    15   108   111    1
    16    82    83    1
    17    82    81    1
    18    82    85    1
    19    83    84    2
    20   115   113   ar
    21   115   117   ar
    22   109   110    2
    23   109   119   am
    24   113   112   ar
    25   100   101   ar
    26   100   102   ar
    27   119   120    1
    28   118   117    1
    29   117   116   ar
    30   101   103   ar
    31   125   124   ar
    32   120   123    1
    33   112   111    1
    34   112   114   ar
    35    91    92    1
    36    85    86    1
    37   102   104   ar
    38   116   114   ar
    39    70    69    2
    40   103   105   ar
    41    69    68    1
    42   124   123    1
    43   124   126   ar
    44    93    92   ar
    45    92    94   ar
    46   104   105   ar
    47   105   106    1
    48    67    68    1
    49    68    71    1
    50    73    75   ar
    51    73    72   ar
    52    75    76   ar
    53    71    72    1
    54    72    74   ar
    55    12    11    1
    56    76    74   ar
    57    76    78   ar
    58    10    11   ar
    59    10     8   ar
    60    11     9   ar
    61    74    77   ar
    62    78    80   ar
    63     8     6   ar
    64     9     7   ar
    65    77    79   ar
    66     1     2    1
    67    80    79   ar
    68     7     6   ar
    69     6     5    1
    70    24    23    1
    71    21    23   ar
    72    21    19   ar
    73     2     3    1
    74     2     5    1
    75    47    46    1
    76    23    22   ar
    77     3     4    2
    78    16    15    2
    79    15    14    1
    80    19    18   ar
    81    22    20   ar
    82    46    45    1
    83    18    20   ar
    84    18    17    1
    85    45    44    1
    86    14    13    1
    87    14    17    1
    88    66    65   ar
    89    66    64   ar
    90    42    41    2
    91    54    53   ar
    92    65    63   ar
    93    40    43    1
    94    40    41    1
    95    40    39    1
    96    36    38   ar
    97    36    34   ar
    98    44    43    1
    99    55    53   ar
   100    38    37   ar
   101    64    62   ar
   102    53    52    1
   103    33    34   ar
   104    33    31   ar
   105    34    32   ar
   106    37    35   ar
   107    31    30   ar
   108    25    26    1
   109    32    35   ar
   110    32    30   ar
   111    52    49    1
   112    30    29    1
   113    63    61   ar
   114    62    61   ar
   115    29    26    1
   116    61    60    1
   117    26    27    1
   118    49    48    1
   119    49    50    1
   120    28    27    2
   121    50    56   am
   122    50    51    2
   123    56    57    1
   124    60    57    1
   125    57    58    1
   126    58    59    2
