@<TRIPOS>MOLECULE
tmp/3pzrB00.pdb
 96 88 0 0 0
SMALL
GASTEIGER

@<TRIPOS>ATOM
      1  N         39.6810   66.8720   -1.9800 N.3   133  ASN133     -0.1225
      2  CA        39.8830   65.4530   -2.2650 C.3   133  ASN133      0.1785
      3  C         40.0720   64.6810   -0.9630 C.2   133  ASN133      0.2597
      4  O         40.6760   65.1940   -0.0150 O.2   133  ASN133     -0.2718
      5  CB        41.0910   65.2510   -3.1820 C.3   133  ASN133      0.1169
      6  CG        41.1480   63.8540   -3.7730 C.2   133  ASN133      0.2627
      7  OD1       42.0310   63.0660   -3.4430 O.2   133  ASN133     -0.2716
      8  ND2       40.1950   63.5380   -4.6440 N.am  133  ASN133     -0.0877
      9  N         39.5410   63.4620   -0.9170 N.am  134  CYS134     -0.1970
     10  CA        39.5530   62.6470    0.3020 C.3   134  CYS134      0.1712
     11  C         40.9480   62.4740    0.8740 C.2   134  CYS134      0.2296
     12  O         41.1330   62.5560    2.0870 O.2   134  CYS134     -0.2864
     13  CB        38.8970   61.2900    0.0490 C.3   134  CYS134      0.0983
     14  SG        39.6190   60.4760   -1.3370 S.3   134  CYS134     -0.0798
     15  N         44.6540   53.2870   -0.9890 N.3   161  GLN161     -0.1245
     16  CA        43.2880   53.8110   -1.0810 C.3   161  GLN161      0.1566
     17  C         42.2050   52.7450   -1.2240 C.2   161  GLN161      0.2260
     18  O         42.3150   51.8200   -2.0290 O.2   161  GLN161     -0.2867
     19  CB        43.1850   54.8770   -2.1790 C.3   161  GLN161      0.0367
     20  CG        44.0050   56.1260   -1.8540 C.3   161  GLN161      0.0905
     21  CD        43.9630   57.1860   -2.9360 C.2   161  GLN161      0.2608
     22  OE1       42.8950   57.5460   -3.4420 O.2   161  GLN161     -0.2717
     23  NE2       45.1270   57.7200   -3.2730 N.am  161  GLN161     -0.0878
     24  N         36.5310   54.8960   -2.4840 N.3   165  GLY165     -0.1210
     25  CA        36.9770   56.0580   -3.2430 C.3   165  GLY165      0.1956
     26  C         36.5100   56.0470   -4.6850 C.2   165  GLY165      0.2611
     27  O         36.2790   57.0990   -5.2750 O.2   165  GLY165     -0.2717
     28  N         36.3620   54.8510   -5.2480 N.am  166  ALA166     -0.1979
     29  CA        35.9190   54.6920   -6.6290 C.3   166  ALA166      0.1597
     30  C         34.3980   54.5640   -6.7490 C.2   166  ALA166      0.2287
     31  O         33.8460   54.6920   -7.8450 O.2   166  ALA166     -0.2864
     32  CB        36.6160   53.5010   -7.2730 C.3   166  ALA166      0.0319
     33  N         45.1640   55.8260  -10.1540 N.3   229  ILE229     -0.1231
     34  CA        43.8280   56.3080   -9.8320 C.3   229  ILE229      0.1692
     35  C         43.5400   57.5860  -10.6240 C.2   229  ILE229      0.2592
     36  O         44.2800   58.5660  -10.5200 O.2   229  ILE229     -0.2718
     37  CB        43.6600   56.5530   -8.3050 C.3   229  ILE229      0.0266
     38  CG1       43.7530   55.2250   -7.5390 C.3   229  ILE229      0.0019
     39  CG2       42.3340   57.2600   -8.0080 C.3   229  ILE229      0.0020
     40  CD1       43.7710   55.3600   -6.0210 C.3   229  ILE229      0.0001
     41  N         42.4640   57.5490  -11.4110 N.am  230  ASP230     -0.1974
     42  CA        41.9940   58.6810  -12.2300 C.3   230  ASP230      0.1709
     43  C         42.8240   58.8930  -13.5060 C.2   230  ASP230      0.2293
     44  O         43.7600   58.1420  -13.7760 O.2   230  ASP230     -0.2864
     45  CB        41.8940   59.9730  -11.4030 C.3   230  ASP230      0.1436
     46  CG        40.7000   60.8290  -11.7930 C.2   230  ASP230      0.3671
     47  OD1       40.2610   60.7640  -12.9610 O.co2 230  ASP230     -0.2456
     48  OD2       40.1990   61.5690  -10.9230 O.co2 230  ASP230     -0.2456
     49  N         44.6230   62.1670   -9.4260 N.3   240  GLU240     -0.1245
     50  CA        44.5860   61.9530   -7.9750 C.3   240  GLU240      0.1567
     51  C         45.8650   62.4490   -7.2920 C.2   240  GLU240      0.2260
     52  O         45.8080   63.0930   -6.2400 O.2   240  GLU240     -0.2867
     53  CB        44.3550   60.4670   -7.6700 C.3   240  GLU240      0.0388
     54  CG        44.1150   60.1330   -6.1980 C.3   240  GLU240      0.1160
     55  CD        42.6970   60.4070   -5.7300 C.2   240  GLU240      0.3649
     56  OE1       41.8230   60.7230   -6.5660 O.co2 240  GLU240     -0.2457
     57  OE2       42.4560   60.3070   -4.5090 O.co2 240  GLU240     -0.2457
     58  N         46.0970   66.3910   -7.4030 N.3   243  LYS243     -0.1245
     59  CA        45.1600   67.0700   -6.4960 C.3   243  LYS243      0.1561
     60  C         45.7980   67.4180   -5.1520 C.2   243  LYS243      0.2260
     61  O         45.5800   68.5080   -4.6230 O.2   243  LYS243     -0.2867
     62  CB        43.8960   66.2310   -6.2750 C.3   243  LYS243      0.0271
     63  CG        42.8790   66.3190   -7.4020 C.3   243  LYS243      0.0035
     64  CD        41.7110   65.3700   -7.1760 C.3   243  LYS243      0.0206
     65  CE        40.6350   65.5640   -8.2390 C.3   243  LYS243      0.1093
     66  NZ        39.5650   64.5300   -8.1790 N.3   243  LYS243     -0.1314
     67  N         45.3600   52.0140   -5.4280 N.3   267  ARG267     -0.1245
     68  CA        44.1390   51.3860   -4.9390 C.3   267  ARG267      0.1563
     69  C         44.4700   50.0270   -4.3270 C.2   267  ARG267      0.2260
     70  O         45.1620   49.2140   -4.9460 O.2   267  ARG267     -0.2867
     71  CB        43.1160   51.2310   -6.0730 C.3   267  ARG267      0.0307
     72  CG        41.7350   50.7230   -5.6330 C.3   267  ARG267      0.0489
     73  CD        40.8920   51.8360   -5.0130 C.3   267  ARG267      0.2205
     74  NE        40.4890   52.8290   -6.0070 N.pl3 267  ARG267     -0.0865
     75  CZ        40.1910   54.0980   -5.7380 C.cat 267  ARG267      0.5346
     76  NH1       39.8410   54.9080   -6.7290 N.pl3 267  ARG267      0.1354
     77  NH2       40.2500   54.5660   -4.4900 N.pl3 267  ARG267      0.1354
     78  N         41.2310   55.2700    3.6770 N.3   274  HIS274     -0.1241
     79  CA        42.4570   55.5610    2.9400 C.3   274  HIS274      0.1621
     80  C         43.6260   55.6530    3.9120 C.2   274  HIS274      0.2264
     81  O         43.5380   56.3210    4.9480 O.2   274  HIS274     -0.2867
     82  CB        42.3270   56.8780    2.1680 C.3   274  HIS274      0.0745
     83  CG        41.4720   56.7900    0.9380 C.ar  274  HIS274      0.0817
     84  ND1       40.6810   55.7000    0.6470 N.ar  274  HIS274     -0.2268
     85  CD2       41.2660   57.6790   -0.0620 C.ar  274  HIS274      0.1154
     86  CE1       40.0400   55.9120   -0.4890 C.ar  274  HIS274      0.1986
     87  NE2       40.3750   57.1080   -0.9370 N.ar  274  HIS274     -0.2212
     88  N         37.3670   57.4460    4.5610 N.3   350  GLN350     -0.1245
     89  CA        37.2150   58.2090    3.3150 C.3   350  GLN350      0.1566
     90  C         35.8700   58.9290    3.2130 C.2   350  GLN350      0.2260
     91  O         35.7780   60.0040    2.6160 O.2   350  GLN350     -0.2867
     92  CB        37.4170   57.2780    2.1050 C.3   350  GLN350      0.0367
     93  CG        37.3290   57.9460    0.7320 C.3   350  GLN350      0.0905
     94  CD        35.9310   57.8980    0.1190 C.2   350  GLN350      0.2608
     95  OE1       35.2950   56.8460    0.0690 O.2   350  GLN350     -0.2717
     96  NE2       35.4570   59.0410   -0.3620 N.am  350  GLN350     -0.0878
@<TRIPOS>BOND
     1    44    43    2
     2    43    42    1
     3    47    46   ar
     4    42    41    1
     5    42    45    1
     6    46    45    1
     7    46    48   ar
     8    41    35   am
     9    35    36    2
    10    35    34    1
    11    33    34    1
    12    34    37    1
    13    49    50    1
    14    37    39    1
    15    37    38    1
    16    65    66    1
    17    65    64    1
    18    50    53    1
    19    50    51    1
    20    31    30    2
    21    53    54    1
    22    38    40    1
    23    58    59    1
    24    63    64    1
    25    63    62    1
    26    51    52    2
    27    32    29    1
    28    30    29    1
    29    76    75    1
    30    29    28    1
    31    56    55   ar
    32    59    62    1
    33    59    60    1
    34    54    55    1
    35    71    72    1
    36    71    68    1
    37    74    75    2
    38    74    73    1
    39    75    77    1
    40    55    57   ar
    41    72    73    1
    42    67    68    1
    43    27    26    2
    44    28    26   am
    45    60    61    2
    46    70    69    2
    47    68    69    1
    48    26    25    1
    49     8     6   am
    50     6     7    2
    51     6     5    1
    52    22    21    2
    53    23    21   am
    54    25    24    1
    55     5     2    1
    56    21    20    1
    57     2     1    1
    58     2     3    1
    59    19    20    1
    60    19    16    1
    61    18    17    2
    62    14    13    1
    63    17    16    1
    64    16    15    1
    65     3     9   am
    66     3     4    2
    67    87    86   ar
    68    87    85   ar
    69     9    10    1
    70    86    84   ar
    71    96    94   am
    72    85    83   ar
    73    13    10    1
    74    95    94    2
    75    94    93    1
    76    10    11    1
    77    84    83   ar
    78    93    92    1
    79    11    12    2
    80    83    82    1
    81    92    89    1
    82    82    79    1
    83    91    90    2
    84    79    78    1
    85    79    80    1
    86    90    89    1
    87    89    88    1
    88    80    81    2
