@<TRIPOS>MOLECULE
tmp/3q00A01.pdb
 85 85 0 0 0
SMALL
GASTEIGER

@<TRIPOS>ATOM
      1  N         25.1010   22.8780   20.4330 N.3    24  PHE24      -0.1227
      2  CA        25.6260   23.5500   19.2240 C.3    24  PHE24       0.1736
      3  C         26.4810   22.6720   18.3070 C.2    24  PHE24       0.2595
      4  O         26.8550   23.0910   17.2000 O.2    24  PHE24      -0.2718
      5  CB        26.3850   24.8300   19.6060 C.3    24  PHE24       0.0547
      6  CG        27.7000   24.5780   20.3200 C.ar   24  PHE24      -0.0202
      7  CD1       28.8850   24.3800   19.5920 C.ar   24  PHE24      -0.0042
      8  CD2       27.7600   24.5490   21.7160 C.ar   24  PHE24      -0.0042
      9  CE1       30.0960   24.1490   20.2490 C.ar   24  PHE24      -0.0003
     10  CE2       28.9820   24.2940   22.3880 C.ar   24  PHE24      -0.0003
     11  CZ        30.1490   24.1030   21.6440 C.ar   24  PHE24      -0.0000
     12  N         26.7880   21.4630   18.7660 N.am   25  CYS25      -0.1970
     13  CA        27.6970   20.5620   18.0470 C.3    25  CYS25       0.1712
     14  C         27.6430   19.2060   18.6690 C.2    25  CYS25       0.2296
     15  O         27.3090   19.0520   19.8460 O.2    25  CYS25      -0.2864
     16  CB        29.1710   21.0360   18.0890 C.3    25  CYS25       0.0983
     17  SG        29.6410   22.1560   16.6880 S.3    25  CYS25      -0.0798
     18  N         35.9260   23.4610   13.9240 N.3    40  HIS40      -0.1226
     19  CA        34.9740   24.5570   13.6820 C.3    40  HIS40       0.1752
     20  C         33.8930   24.6400   14.7530 C.2    40  HIS40       0.2596
     21  O         33.1550   25.6440   14.8150 O.2    40  HIS40      -0.2718
     22  CB        34.3880   24.5280   12.2560 C.3    40  HIS40       0.0759
     23  CG        33.2180   23.6140   12.0760 C.ar   40  HIS40       0.0818
     24  ND1       33.3250   22.3560   11.5130 N.ar   40  HIS40      -0.2268
     25  CD2       31.9010   23.8030   12.3280 C.ar   40  HIS40       0.1154
     26  CE1       32.1260   21.7980   11.4630 C.ar   40  HIS40       0.1986
     27  NE2       31.2460   22.6630   11.9380 N.ar   40  HIS40      -0.2212
     28  N         33.8510   23.6290   15.6290 N.am   41  CYS41      -0.1956
     29  CA        33.0050   23.6780   16.8440 C.3    41  CYS41       0.1843
     30  C         33.6530   24.3970   18.0200 C.2    41  CYS41       0.2625
     31  O         33.0510   24.4760   19.1050 O.2    41  CYS41      -0.2714
     32  CB        32.6030   22.2560   17.2880 C.3    41  CYS41       0.0997
     33  SG        31.4800   21.4620   16.1070 S.3    41  CYS41      -0.0797
     34  N         34.8790   24.8890   17.8500 N.am   42  TYR42      -0.1960
     35  CA        35.5710   25.5100   18.9800 C.3    42  TYR42       0.1771
     36  C         34.7050   26.6710   19.5460 C.2    42  TYR42       0.2619
     37  O         34.1430   27.4660   18.7860 O.2    42  TYR42      -0.2715
     38  CB        36.9730   26.0410   18.6150 C.3    42  TYR42       0.0574
     39  CG        37.3810   27.0070   19.6900 C.ar   42  TYR42      -0.0198
     40  CD1       37.1410   28.3730   19.5440 C.ar   42  TYR42      -0.0009
     41  CD2       37.8770   26.5380   20.9060 C.ar   42  TYR42      -0.0009
     42  CE1       37.4220   29.2590   20.5680 C.ar   42  TYR42       0.0417
     43  CE2       38.1590   27.4250   21.9470 C.ar   42  TYR42       0.0417
     44  CZ        37.9270   28.7890   21.7540 C.ar   42  TYR42       0.1957
     45  OH        38.1920   29.6840   22.7710 O.3    42  TYR42      -0.2866
     46  N         34.6490   26.7510   20.8680 N.am   43  LYS43      -0.1977
     47  CA        33.8990   27.7600   21.6110 C.3    43  LYS43       0.1596
     48  C         34.4980   27.7950   23.0090 C.2    43  LYS43       0.2287
     49  O         34.9110   26.7580   23.5250 O.2    43  LYS43      -0.2864
     50  CB        32.4420   27.2880   21.6940 C.3    43  LYS43       0.0298
     51  CG        31.4740   28.2380   22.2340 C.3    43  LYS43       0.0038
     52  CD        30.0810   27.7450   21.9530 C.3    43  LYS43       0.0206
     53  CE        29.5310   28.3210   20.6780 C.3    43  LYS43       0.1093
     54  NZ        28.0710   28.6170   20.9010 N.3    43  LYS43      -0.1314
     55  N         38.7570   24.3120    5.8780 N.3    81  TYR81      -0.1241
     56  CA        38.3480   23.2270    6.8130 C.3    81  TYR81       0.1605
     57  C         39.3650   22.0830    6.8800 C.2    81  TYR81       0.2264
     58  O         39.0790   21.0220    7.4500 O.2    81  TYR81      -0.2867
     59  CB        36.9150   22.7160    6.5010 C.3    81  TYR81       0.0534
     60  CG        35.8990   23.8030    6.7470 C.ar   81  TYR81      -0.0201
     61  CD1       35.4900   24.1110    8.0440 C.ar   81  TYR81      -0.0009
     62  CD2       35.4180   24.5910    5.6970 C.ar   81  TYR81      -0.0009
     63  CE1       34.5950   25.1550    8.2790 C.ar   81  TYR81       0.0417
     64  CE2       34.5270   25.6340    5.9300 C.ar   81  TYR81       0.0417
     65  CZ        34.1210   25.8970    7.2260 C.ar   81  TYR81       0.1957
     66  OH        33.2300   26.9180    7.5010 O.3    81  TYR81      -0.2866
     67  N         23.6350   21.1940    9.3730 N.3   174  GLN174     -0.1231
     68  CA        24.0660   22.1090   10.4290 C.3   174  GLN174      0.1698
     69  C         23.5710   21.5800   11.7770 C.2   174  GLN174      0.2592
     70  O         22.4500   21.0590   11.8780 O.2   174  GLN174     -0.2718
     71  CB        23.5020   23.5230   10.2320 C.3   174  GLN174      0.0381
     72  CG        23.6660   24.1530    8.8490 C.3   174  GLN174      0.0905
     73  CD        22.5360   25.1380    8.5350 C.2   174  GLN174      0.2608
     74  OE1       21.3720   24.9170    8.9050 O.2   174  GLN174     -0.2717
     75  NE2       22.8740   26.2250    7.8490 N.am  174  GLN174     -0.0878
     76  N         24.4110   21.6700   12.8030 N.am  175  GLY175     -0.1957
     77  CA        24.0400   21.0830   14.1120 C.3   175  GLY175      0.1869
     78  C         24.5940   19.6880   14.3180 C.2   175  GLY175      0.2309
     79  O         24.7790   19.2730   15.4640 O.2   175  GLY175     -0.2863
     80  N         27.5690   19.0120   13.0890 N.3   177  SER177     -0.1217
     81  CA        29.0000   19.3740   13.1480 C.3   177  SER177      0.1889
     82  C         29.7090   18.7340   14.3130 C.2   177  SER177      0.2288
     83  O         29.2410   18.8580   15.4400 O.2   177  SER177     -0.2866
     84  CB        29.1330   20.8800   13.3820 C.3   177  SER177      0.2089
     85  OG        28.8270   21.6510   12.2510 O.3   177  SER177     -0.2183
@<TRIPOS>BOND
     1    62    64   ar
     2    62    60   ar
     3    55    56    1
     4    64    65   ar
     5    59    60    1
     6    59    56    1
     7    60    61   ar
     8    56    57    1
     9    57    58    2
    10    65    66    1
    11    65    63   ar
    12    75    73   am
    13    61    63   ar
    14    73    72    1
    15    73    74    2
    16    72    71    1
    17    67    68    1
    18    71    68    1
    19    68    69    1
    20    26    24   ar
    21    26    27   ar
    22    24    23   ar
    23    69    70    2
    24    69    76   am
    25    27    25   ar
    26    23    22    1
    27    23    25   ar
    28    85    84    1
    29    22    19    1
    30    76    77    1
    31    80    81    1
    32    81    84    1
    33    81    82    1
    34    19    18    1
    35    19    20    1
    36    77    78    1
    37    82    83    2
    38    78    79    2
    39    20    21    2
    40    20    28   am
    41    28    29    1
    42    33    17    1
    43    33    32    1
    44    17    16    1
    45    29    32    1
    46    29    30    1
    47     4     3    2
    48    34    30   am
    49    34    35    1
    50    30    31    2
    51    13    16    1
    52    13    14    1
    53    13    12    1
    54     3    12   am
    55     3     2    1
    56    38    35    1
    57    38    39    1
    58    14    15    2
    59    37    36    2
    60    35    36    1
    61     2     5    1
    62     2     1    1
    63    40    39   ar
    64    40    42   ar
    65    36    46   am
    66     7     9   ar
    67     7     6   ar
    68     5     6    1
    69    39    41   ar
    70     9    11   ar
    71     6     8   ar
    72    42    44   ar
    73    53    54    1
    74    53    52    1
    75    46    47    1
    76    41    43   ar
    77    47    50    1
    78    47    48    1
    79    11    10   ar
    80    50    51    1
    81     8    10   ar
    82    44    43   ar
    83    44    45    1
    84    52    51    1
    85    48    49    2
