@<TRIPOS>MOLECULE
tmp/3q07B00.pdb
 139 132 0 0 0
SMALL
GASTEIGER

@<TRIPOS>ATOM
      1  N         31.2280   14.1110   -7.7390 N.3    42  GLY42      -0.1225
      2  CA        31.7790   14.3250   -9.0990 C.3    42  GLY42       0.1811
      3  C         33.1170   13.6870   -9.4130 C.2    42  GLY42       0.2280
      4  O         33.4890   13.5700  -10.5950 O.2    42  GLY42      -0.2866
      5  N         33.2370   10.9520  -11.9820 N.3    45  LYS45      -0.1245
      6  CA        33.1960   11.2500  -13.4150 C.3    45  LYS45       0.1561
      7  C         34.4720   10.7980  -14.1320 C.2    45  LYS45       0.2260
      8  O         34.4440   10.4810  -15.3140 O.2    45  LYS45      -0.2867
      9  CB        32.9110   12.7370  -13.6560 C.3    45  LYS45       0.0271
     10  CG        31.5190   13.1940  -13.1300 C.3    45  LYS45       0.0035
     11  CD        31.3510   14.7190  -13.1690 C.3    45  LYS45       0.0206
     12  CE        29.8730   15.1320  -13.1190 C.3    45  LYS45       0.1093
     13  NZ        29.3340   15.1680  -11.7190 N.3    45  LYS45      -0.1314
     14  N         20.2250   18.6790  -12.5190 N.3    76  ASN76      -0.1225
     15  CA        20.4410   19.8720  -11.6720 C.3    76  ASN76       0.1785
     16  C         21.5280   20.8630  -12.0930 C.2    76  ASN76       0.2597
     17  O         21.5380   22.0190  -11.6320 O.2    76  ASN76      -0.2718
     18  CB        20.7080   19.4430  -10.2400 C.3    76  ASN76       0.1169
     19  CG        22.0250   18.7200  -10.0980 C.2    76  ASN76       0.2627
     20  OD1       22.3450   17.8410  -10.9040 O.2    76  ASN76      -0.2716
     21  ND2       22.8420   19.1500   -9.1390 N.am   76  ASN76      -0.0877
     22  N         22.5020   20.4010  -12.8690 N.am   77  TYR77      -0.1976
     23  CA        23.6120   21.2570  -13.2750 C.3    77  TYR77       0.1639
     24  C         24.1010   20.8080  -14.6480 C.2    77  TYR77       0.2290
     25  O         24.7240   19.7470  -14.7870 O.2    77  TYR77      -0.2864
     26  CB        24.7460   21.1950  -12.2480 C.3    77  TYR77       0.0560
     27  CG        25.8480   22.1680  -12.5490 C.ar   77  TYR77      -0.0198
     28  CD1       27.1190   21.7240  -12.8840 C.ar   77  TYR77      -0.0009
     29  CD2       25.5980   23.5380  -12.5740 C.ar   77  TYR77      -0.0009
     30  CE1       28.1330   22.6280  -13.1850 C.ar   77  TYR77       0.0417
     31  CE2       26.5990   24.4510  -12.8840 C.ar   77  TYR77       0.0417
     32  CZ        27.8570   23.9910  -13.1940 C.ar   77  TYR77       0.1957
     33  OH        28.8520   24.9000  -13.5060 O.3    77  TYR77      -0.2866
     34  N         33.7610   20.6680  -16.7860 N.3   101  TYR101     -0.1227
     35  CA        32.7210   21.5700  -16.2880 C.3   101  TYR101      0.1736
     36  C         31.8470   20.9030  -15.2330 C.2   101  TYR101      0.2596
     37  O         30.9430   21.5340  -14.6840 O.2   101  TYR101     -0.2718
     38  CB        31.8420   22.0750  -17.4640 C.3   101  TYR101      0.0548
     39  CG        32.6020   22.9210  -18.4340 C.ar  101  TYR101     -0.0200
     40  CD1       33.3660   22.3340  -19.4370 C.ar  101  TYR101     -0.0009
     41  CD2       32.6790   24.3100  -18.2720 C.ar  101  TYR101     -0.0009
     42  CE1       34.1400   23.0960  -20.2920 C.ar  101  TYR101      0.0417
     43  CE2       33.4440   25.0830  -19.1340 C.ar  101  TYR101      0.0417
     44  CZ        34.1630   24.4710  -20.1460 C.ar  101  TYR101      0.1957
     45  OH        34.9560   25.2190  -21.0050 O.3   101  TYR101     -0.2866
     46  N         32.0970   19.6210  -14.9660 N.am  102  SER102     -0.1952
     47  CA        31.2890   18.8460  -14.0290 C.3   102  SER102      0.1924
     48  C         29.8080   18.8080  -14.4170 C.2   102  SER102      0.2314
     49  O         28.9230   18.7850  -13.5560 O.2   102  SER102     -0.2863
     50  CB        31.4640   19.3050  -12.5770 C.3   102  SER102      0.2116
     51  OG        31.5240   18.1680  -11.7000 O.3   102  SER102     -0.2180
     52  N         26.4020   17.4060  -15.1040 N.3   104  ASN104     -0.1240
     53  CA        25.7090   16.2030  -14.6310 C.3   104  ASN104      0.1653
     54  C         24.8970   15.4730  -15.6900 C.2   104  ASN104      0.2266
     55  O         24.7540   14.2560  -15.6390 O.2   104  ASN104     -0.2867
     56  CB        24.8560   16.5150  -13.4020 C.3   104  ASN104      0.1155
     57  CG        25.6850   16.6900  -12.1490 C.2   104  ASN104      0.2627
     58  OD1       26.8540   16.2920  -12.0990 O.2   104  ASN104     -0.2716
     59  ND2       25.0700   17.2620  -11.1030 N.am  104  ASN104     -0.0877
     60  N         21.0890   13.2140  -10.2670 N.3   139  PRO139     -0.2102
     61  CA        21.8740   13.8330   -9.2170 C.3   139  PRO139      0.1504
     62  C         21.9000   13.0720   -7.8810 C.2   139  PRO139      0.2576
     63  O         22.5400   13.5300   -6.9370 O.2   139  PRO139     -0.2718
     64  CB        21.1570   15.1640   -9.0120 C.3   139  PRO139      0.0282
     65  CG        19.6910   14.8150   -9.2260 C.3   139  PRO139      0.0208
     66  CD        19.6840   13.6850  -10.2610 C.3   139  PRO139      0.0893
     67  N         21.2180   11.9360   -7.7930 N.am  140  THR140     -0.1953
     68  CA        21.1360   11.2290   -6.5130 C.3   140  THR140      0.1897
     69  C         22.4320   10.6100   -5.9990 C.2   140  THR140      0.2313
     70  O         22.5300   10.3100   -4.8200 O.2   140  THR140     -0.2863
     71  CB        19.9910   10.2020   -6.4490 C.3   140  THR140      0.1794
     72  OG1       20.2230    9.1490   -7.3840 O.3   140  THR140     -0.2208
     73  CG2       18.6370   10.8810   -6.7430 C.3   140  THR140      0.0378
     74  N         24.8710   11.9620   -5.2910 N.3   142  ASN142     -0.1225
     75  CA        25.4740   12.9730   -4.3890 C.3   142  ASN142      0.1785
     76  C         24.8130   13.1200   -3.0180 C.2   142  ASN142      0.2597
     77  O         25.0890   14.0800   -2.3100 O.2   142  ASN142     -0.2718
     78  CB        25.5050   14.3540   -5.0620 C.3   142  ASN142      0.1169
     79  CG        26.1560   14.3220   -6.4020 C.2   142  ASN142      0.2627
     80  OD1       27.3670   14.1550   -6.5040 O.2   142  ASN142     -0.2716
     81  ND2       25.3570   14.4390   -7.4540 N.am  142  ASN142     -0.0877
     82  N         23.9300   12.2030   -2.6440 N.am  143  THR143     -0.1953
     83  CA        23.2730   12.3250   -1.3330 C.3   143  THR143      0.1897
     84  C         24.2820   12.3300   -0.1660 C.2   143  THR143      0.2313
     85  O         24.0730   13.0070    0.8470 O.2   143  THR143     -0.2863
     86  CB        22.2050   11.2640   -1.1190 C.3   143  THR143      0.1794
     87  OG1       22.7590    9.9700   -1.3660 O.3   143  THR143     -0.2208
     88  CG2       21.0260   11.4930   -2.0830 C.3   143  THR143      0.0378
     89  N         37.1750   23.7890  -12.8410 N.3   188  THR188     -0.1218
     90  CA        36.6320   23.8900  -11.4900 C.3   188  THR188      0.1862
     91  C         37.5710   23.6470  -10.3240 C.2   188  THR188      0.2287
     92  O         37.1210   23.6810   -9.1790 O.2   188  THR188     -0.2866
     93  CB        35.5230   22.8300  -11.2710 C.3   188  THR188      0.1770
     94  OG1       36.1270   21.5350  -11.2120 O.3   188  THR188     -0.2211
     95  CG2       34.4900   22.8480  -12.3820 C.3   188  THR188      0.0375
     96  N         39.9760   16.6380  -10.8120 N.3   206  LYS206     -0.1231
     97  CA        38.5230   16.5460  -10.9150 C.3   206  LYS206      0.1693
     98  C         37.9280   16.7340   -9.5390 C.2   206  LYS206      0.2593
     99  O         38.2260   15.9630   -8.5940 O.2   206  LYS206     -0.2718
    100  CB        38.0780   15.1870  -11.4830 C.3   206  LYS206      0.0285
    101  CG        36.5350   15.0340  -11.5860 C.3   206  LYS206      0.0035
    102  CD        35.9770   15.9060  -12.7210 C.3   206  LYS206      0.0206
    103  CE        34.4660   16.1540  -12.5860 C.3   206  LYS206      0.1093
    104  NZ        34.1840   17.2670  -11.6220 N.3   206  LYS206     -0.1314
    105  N         37.0660   17.7350   -9.4210 N.am  207  THR207     -0.1939
    106  CA        36.3970   18.0240   -8.1770 C.3   207  THR207      0.2028
    107  C         35.0810   17.2600   -8.0150 C.2   207  THR207      0.2643
    108  O         34.5880   16.6370   -8.9450 O.2   207  THR207     -0.2714
    109  CB        36.0630   19.5110   -8.0830 C.3   207  THR207      0.1808
    110  OG1       35.3040   19.8880   -9.2410 O.3   207  THR207     -0.2208
    111  CG2       37.3460   20.3550   -8.0340 C.3   207  THR207      0.0379
    112  N         34.5340   17.3150   -6.8120 N.am  208  GLY208     -0.1939
    113  CA        33.2270   16.7530   -6.5320 C.3   208  GLY208      0.2014
    114  C         32.6510   17.4510   -5.3190 C.2   208  GLY208      0.2640
    115  O         33.3860   17.8500   -4.4310 O.2   208  GLY208     -0.2714
    116  N         31.3330   17.6060   -5.2860 N.am  209  SER209     -0.1935
    117  CA        30.6810   18.2050   -4.1390 C.3   209  SER209      0.2055
    118  C         29.2980   17.6150   -3.9380 C.2   209  SER209      0.2644
    119  O         28.6430   17.1750   -4.8840 O.2   209  SER209     -0.2714
    120  CB        30.6160   19.7280   -4.2640 C.3   209  SER209      0.2130
    121  OG        30.2140   20.1200   -5.5550 O.3   209  SER209     -0.2179
    122  N         28.8660   17.5600   -2.6840 N.am  210  GLY210     -0.1939
    123  CA        27.5700   16.9720   -2.3930 C.3   210  GLY210      0.2014
    124  C         26.9850   17.4610   -1.0990 C.2   210  GLY210      0.2638
    125  O         27.4980   18.3990   -0.4750 O.2   210  GLY210     -0.2714
    126  N         25.8970   16.8250   -0.6890 N.am  211  ASP211     -0.1971
    127  CA        25.2700   17.1360    0.5720 C.3   211  ASP211      0.1709
    128  C         26.2560   16.7730    1.6860 C.2   211  ASP211      0.2293
    129  O         27.3020   16.1570    1.4330 O.2   211  ASP211     -0.2864
    130  CB        23.9790   16.3500    0.7270 C.3   211  ASP211      0.1436
    131  CG        22.7780   17.0840    0.1650 C.2   211  ASP211      0.3671
    132  OD1       22.8840   18.2890   -0.1590 O.co2 211  ASP211     -0.2456
    133  OD2       21.7190   16.4470    0.0650 O.co2 211  ASP211     -0.2456
    134  N         30.3170   24.1130    1.6670 N.3   244  SER244     -0.1217
    135  CA        31.4840   23.5520    1.0150 C.3   244  SER244      0.1889
    136  C         32.7390   24.0790    1.7070 C.2   244  SER244      0.2288
    137  O         32.7560   25.2090    2.2190 O.2   244  SER244     -0.2866
    138  CB        31.4930   23.9220   -0.4660 C.3   244  SER244      0.2089
    139  OG        30.4360   23.2670   -1.1550 O.3   244  SER244     -0.2183
@<TRIPOS>BOND
     1    45    44    1
     2    42    44   ar
     3    42    40   ar
     4    44    43   ar
     5    40    39   ar
     6    43    41   ar
     7    39    41   ar
     8    39    38    1
     9    38    35    1
    10    34    35    1
    11    35    36    1
    12    54    55    2
    13    54    53    1
    14     8     7    2
    15    36    46   am
    16    36    37    2
    17    52    53    1
    18    46    47    1
    19    25    24    2
    20    24    23    1
    21    53    56    1
    22    48    47    1
    23    48    49    2
    24     7     6    1
    25    47    50    1
    26     9     6    1
    27     9    10    1
    28    33    32    1
    29     6     5    1
    30    56    57    1
    31    23    22    1
    32    23    26    1
    33    32    30   ar
    34    32    31   ar
    35    30    28   ar
    36    11    10    1
    37    11    12    1
    38    12    13    1
    39    31    29   ar
    40    28    27   ar
    41    22    16   am
    42    89    90    1
    43   102   103    1
    44   102   101    1
    45   103   104    1
    46    50    51    1
    47    29    27   ar
    48    27    26    1
    49    14    15    1
    50    95    93    1
    51    57    58    2
    52    57    59   am
    53    16    15    1
    54    16    17    2
    55    15    18    1
    56   101   100    1
    57    90    93    1
    58    90    91    1
    59   100    97    1
    60    93    94    1
    61    97    96    1
    62    97    98    1
    63    20    19    2
    64     4     3    2
    65    91    92    2
    66    60    66    1
    67    60    61    1
    68    66    65    1
    69    18    19    1
    70    19    21   am
    71    98   105   am
    72    98    99    2
    73   105   106    1
    74     3     2    1
    75   110   109    1
    76    65    64    1
    77    61    64    1
    78    61    62    1
    79     2     1    1
    80   108   107    2
    81   106   109    1
    82   106   107    1
    83   109   111    1
    84   107   112   am
    85    62    67   am
    86    62    63    2
    87    67    68    1
    88    81    79   am
    89    72    71    1
    90   112   113    1
    91    73    71    1
    92   113   114    1
    93    68    71    1
    94    68    69    1
    95    80    79    2
    96    79    78    1
    97    69    70    2
    98   121   120    1
    99   114   116   am
   100   114   115    2
   101    74    75    1
   102   116   117    1
   103    78    75    1
   104   119   118    2
   105    75    76    1
   106   120   117    1
   107   117   118    1
   108   118   122   am
   109    76    82   am
   110    76    77    2
   111   122   123    1
   112    82    83    1
   113   123   124    1
   114    88    86    1
   115    87    86    1
   116    83    86    1
   117    83    84    1
   118   139   138    1
   119   124   126   am
   120   124   125    2
   121   126   127    1
   122   138   135    1
   123    84    85    2
   124   132   131   ar
   125   133   131   ar
   126   131   130    1
   127   127   130    1
   128   127   128    1
   129   135   134    1
   130   135   136    1
   131   129   128    2
   132   136   137    2
