@<TRIPOS>MOLECULE
tmp/3q08C01.pdb
 112 109 0 0 0
SMALL
GASTEIGER

@<TRIPOS>ATOM
      1  N         -3.0530    1.2820   -3.3150 N.3     8  LEU8       -0.1231
      2  CA        -4.3210    1.0920   -2.6090 C.3     8  LEU8        0.1693
      3  C         -5.4660    2.0260   -3.0770 C.2     8  LEU8        0.2593
      4  O         -6.5950    1.9680   -2.5910 O.2     8  LEU8       -0.2718
      5  CB        -4.0770    1.2220   -1.1070 C.3     8  LEU8        0.0284
      6  CG        -3.2490    0.1050   -0.4640 C.3     8  LEU8        0.0019
      7  CD1       -3.0560    0.3420    1.0220 C.3     8  LEU8        0.0001
      8  CD2       -3.9640   -1.2070   -0.6860 C.3     8  LEU8        0.0001
      9  N         -5.1640    2.8620   -4.0480 N.am    9  THR9       -0.1939
     10  CA        -6.0060    3.9660   -4.4380 C.3     9  THR9        0.2028
     11  C         -6.4190    3.8460   -5.9040 C.2     9  THR9        0.2642
     12  O         -7.3370    4.5560   -6.3580 O.2     9  THR9       -0.2714
     13  CB        -5.2280    5.2760   -4.1720 C.3     9  THR9        0.1808
     14  OG1       -5.7800    5.8840   -3.0180 O.3     9  THR9       -0.2208
     15  CG2       -5.1810    6.2940   -5.3960 C.3     9  THR9        0.0379
     16  N         -5.7610    2.9350   -6.6250 N.am   10  GLN10      -0.1963
     17  CA        -5.9160    2.7990   -8.0800 C.3    10  GLN10       0.1718
     18  C         -6.7630    1.6070   -8.5370 C.2    10  GLN10       0.2458
     19  O         -6.8650    0.6170   -7.7910 O.2    10  GLN10      -0.2730
     20  CB        -4.5540    2.6210   -8.7220 C.3    10  GLN10       0.0407
     21  CG        -3.7710    3.8530   -8.9750 C.3    10  GLN10       0.0908
     22  CD        -2.3700    3.4810   -9.4100 C.2    10  GLN10       0.2608
     23  OE1       -1.8040    2.4610   -8.9900 O.2    10  GLN10      -0.2717
     24  NE2       -1.7980    4.3060  -10.2590 N.am   10  GLN10      -0.0878
     25  N         -7.3250    1.6810   -9.7730 N.am   11  PRO11      -0.2727
     26  CA        -8.0370    0.5850  -10.4010 C.3    11  PRO11       0.1402
     27  C         -7.0830   -0.3600  -11.0850 C.2    11  PRO11       0.2269
     28  O         -5.9730    0.0310  -11.4110 O.2    11  PRO11      -0.2865
     29  CB        -8.8970    1.2850  -11.4480 C.3    11  PRO11       0.0296
     30  CG        -8.1000    2.4340  -11.8650 C.3    11  PRO11       0.0237
     31  CD        -7.3330    2.8750  -10.6420 C.3    11  PRO11       0.0939
     32  N         -9.5770   -4.5860   -8.3100 N.3   106  THR106     -0.1203
     33  CA       -10.0600   -3.2090   -8.2510 C.3   106  THR106      0.1994
     34  C        -10.6230   -2.6840   -9.5710 C.2   106  THR106      0.2618
     35  O        -10.0930   -2.9840  -10.6680 O.2   106  THR106     -0.2717
     36  CB        -8.8410   -2.3880   -7.9250 C.3   106  THR106      0.1784
     37  OG1       -8.6720   -2.3860   -6.5110 O.3   106  THR106     -0.2211
     38  CG2       -8.9880   -1.0380   -8.3840 C.3   106  THR106      0.0376
     39  N        -11.6910   -1.8880   -9.4710 N.am  107  LYS107     -0.1966
     40  CA       -12.3160   -1.2590  -10.6630 C.3   107  LYS107      0.1713
     41  C        -12.7680    0.1850  -10.4280 C.2   107  LYS107      0.2458
     42  O        -12.9280    0.6020   -9.2900 O.2   107  LYS107     -0.2730
     43  CB       -13.4950   -2.1050  -11.1870 C.3   107  LYS107      0.0311
     44  CG       -13.2150   -3.6430  -11.3030 C.3   107  LYS107      0.0038
     45  CD       -14.3170   -4.3810  -12.0040 C.3   107  LYS107      0.0206
     46  CE       -14.3080   -4.1850  -13.4900 C.3   107  LYS107      0.1093
     47  NZ       -15.6150   -4.6460  -13.9450 N.3   107  LYS107     -0.1314
     48  N        -12.9580    0.9720  -11.5040 N.am  108  PRO108     -0.2716
     49  CA       -13.5110    2.3070  -11.2590 C.3   108  PRO108      0.1536
     50  C        -14.9110    2.1600  -10.7220 C.2   108  PRO108      0.2598
     51  O        -15.4530    1.0480  -10.7530 O.2   108  PRO108     -0.2715
     52  CB       -13.5210    2.9680  -12.6380 C.3   108  PRO108      0.0310
     53  CG       -13.0220    1.9730  -13.5850 C.3   108  PRO108      0.0237
     54  CD       -12.3970    0.8490  -12.8590 C.3   108  PRO108      0.0939
     55  N        -15.4720    3.2560  -10.2010 N.am  109  LEU109     -0.1978
     56  CA       -16.7830    3.2500   -9.5810 C.3   109  LEU109      0.1596
     57  C        -17.8090    2.9440  -10.6490 C.2   109  LEU109      0.2287
     58  O        -17.7530    3.4690  -11.7700 O.2   109  LEU109     -0.2864
     59  CB       -17.0840    4.5920   -8.8950 C.3   109  LEU109      0.0297
     60  CG       -16.3510    5.0710   -7.6350 C.3   109  LEU109      0.0022
     61  CD1      -16.6520    6.5180   -7.3180 C.3   109  LEU109      0.0001
     62  CD2      -16.7380    4.2170   -6.4560 C.3   109  LEU109      0.0001
     63  N        -21.5670   11.2200   -4.4030 N.3   121  ASN121     -0.1240
     64  CA       -20.1670   11.0450   -4.7220 C.3   121  ASN121      0.1653
     65  C        -19.3220   12.0890   -4.0060 C.2   121  ASN121      0.2266
     66  O        -18.2380   11.7860   -3.5150 O.2   121  ASN121     -0.2867
     67  CB       -19.9570   11.0730   -6.2140 C.3   121  ASN121      0.1155
     68  CG       -18.5330   11.0850   -6.5680 C.2   121  ASN121      0.2627
     69  OD1      -17.9590   12.1390   -6.7830 O.2   121  ASN121     -0.2716
     70  ND2      -17.9230    9.9210   -6.6030 N.am  121  ASN121     -0.0877
     71  N        -18.8470   10.9300   -0.7230 N.3   124  LEU124     -0.1231
     72  CA       -17.9800    9.7790   -0.5930 C.3   124  LEU124      0.1693
     73  C        -16.5210   10.1590   -0.7080 C.2   124  LEU124      0.2592
     74  O        -15.7200    9.6750    0.0660 O.2   124  LEU124     -0.2718
     75  CB       -18.3340    8.7000   -1.6070 C.3   124  LEU124      0.0284
     76  CG       -17.2960    7.6290   -1.9500 C.3   124  LEU124      0.0019
     77  CD1      -17.1460    6.6530   -0.8060 C.3   124  LEU124      0.0001
     78  CD2      -17.7290    6.9320   -3.2160 C.3   124  LEU124      0.0001
     79  N        -16.1830   11.0290   -1.6620 N.am  125  SER125     -0.1952
     80  CA       -14.7910   11.4340   -1.8880 C.3   125  SER125      0.1924
     81  C        -14.2310   12.4350   -0.8470 C.2   125  SER125      0.2314
     82  O        -13.0450   12.3680   -0.4900 O.2   125  SER125     -0.2863
     83  CB       -14.6040   11.9440   -3.3100 C.3   125  SER125      0.2116
     84  OG       -15.4940   13.0080   -3.5690 O.3   125  SER125     -0.2180
     85  N        -12.8830    1.5270    4.2030 N.3   176  ARG176     -0.1231
     86  CA       -13.3500    0.4680    3.2850 C.3   176  ARG176      0.1694
     87  C        -12.5030    0.2710    2.0160 C.2   176  ARG176      0.2592
     88  O        -11.7740    1.1640    1.5800 O.2   176  ARG176     -0.2718
     89  CB       -14.7770    0.7330    2.8530 C.3   176  ARG176      0.0321
     90  CG       -14.9720    2.1170    2.2380 C.3   176  ARG176      0.0489
     91  CD       -16.4030    2.3200    1.8090 C.3   176  ARG176      0.2205
     92  NE       -16.7050    1.5280    0.6300 N.pl3 176  ARG176     -0.0865
     93  CZ       -16.4290    1.8980   -0.6200 C.cat 176  ARG176      0.5346
     94  NH1      -15.8400    3.0600   -0.8930 N.pl3 176  ARG176      0.1354
     95  NH2      -16.7410    1.0950   -1.6150 N.pl3 176  ARG176      0.1354
     96  N        -12.5960   -0.9060    1.4030 N.am  177  LYS177     -0.1966
     97  CA       -11.9910   -1.0840    0.0820 C.3   177  LYS177      0.1728
     98  C        -12.7630   -2.1480   -0.6130 C.2   177  LYS177      0.2616
     99  O        -13.0900   -3.1540    0.0130 O.2   177  LYS177     -0.2715
    100  CB       -10.5080   -1.4420    0.1360 C.3   177  LYS177      0.0311
    101  CG        -9.8650   -1.3260   -1.2250 C.3   177  LYS177      0.0038
    102  CD        -8.3610   -1.2470   -1.2650 C.3   177  LYS177      0.0206
    103  CE        -7.9530   -1.1630   -2.7310 C.3   177  LYS177      0.1093
    104  NZ        -8.9380   -0.3190   -3.5630 N.3   177  LYS177     -0.1314
    105  N        -13.0800   -1.9170   -1.8890 N.am  178  LEU178     -0.1977
    106  CA       -13.9100   -2.8550   -2.6110 C.3   178  LEU178      0.1596
    107  C        -13.1330   -3.5860   -3.7180 C.2   178  LEU178      0.2287
    108  O        -12.6850   -2.9430   -4.6390 O.2   178  LEU178     -0.2864
    109  CB       -15.1430   -2.1540   -3.1620 C.3   178  LEU178      0.0297
    110  CG       -15.8910   -3.0540   -4.1370 C.3   178  LEU178      0.0022
    111  CD1      -16.4470   -4.2750   -3.4150 C.3   178  LEU178      0.0001
    112  CD2      -16.9850   -2.3000   -4.8060 C.3   178  LEU178      0.0001
@<TRIPOS>BOND
     1    47    46    1
     2    53    54    1
     3    53    52    1
     4    46    45    1
     5    54    48    1
     6    52    49    1
     7    45    44    1
     8    30    29    1
     9    30    31    1
    10    58    57    2
    11    48    49    1
    12    48    41   am
    13    29    26    1
    14    28    27    2
    15    44    43    1
    16    49    50    1
    17    43    40    1
    18    27    26    1
    19    51    50    2
    20    50    55   am
    21    35    34    2
    22    40    41    1
    23    40    39    1
    24    57    56    1
    25    31    25    1
    26    41    42    2
    27    26    25    1
    28    24    22   am
    29    55    56    1
    30    25    18   am
    31    56    59    1
    32    34    39   am
    33    34    33    1
    34    22    23    2
    35    22    21    1
    36    21    20    1
    37    59    60    1
    38    20    17    1
    39    18    17    1
    40    18    19    2
    41    38    36    1
    42    32    33    1
    43    33    36    1
    44    17    16    1
    45    36    37    1
    46    60    61    1
    47    60    62    1
    48    69    68    2
    49    16    11   am
    50    70    68   am
    51    68    67    1
    52    12    11    2
    53    67    64    1
    54    11    10    1
    55    15    13    1
    56   112   110    1
    57    64    63    1
    58    64    65    1
    59   108   107    2
    60    10    13    1
    61    10     9    1
    62    13    14    1
    63   110   111    1
    64   110   109    1
    65     9     3   am
    66    65    66    2
    67   107   106    1
    68    84    83    1
    69   104   103    1
    70     1     2    1
    71    83    80    1
    72    78    76    1
    73   109   106    1
    74     3     2    1
    75     3     4    2
    76   103   102    1
    77   106   105    1
    78     2     5    1
    79    76    75    1
    80    76    77    1
    81   105    98   am
    82    80    79    1
    83    80    81    1
    84    79    73   am
    85    95    93    1
    86    75    72    1
    87   102   101    1
    88   101   100    1
    89     5     6    1
    90    94    93    1
    91    81    82    2
    92    71    72    1
    93    73    72    1
    94    73    74    2
    95     8     6    1
    96    93    92    2
    97    98    99    2
    98    98    97    1
    99     6     7    1
   100    97   100    1
   101    97    96    1
   102    92    91    1
   103    96    87   am
   104    88    87    2
   105    91    90    1
   106    87    86    1
   107    90    89    1
   108    89    86    1
   109    86    85    1
