@<TRIPOS>MOLECULE
tmp/3q0eB00.pdb
 95 87 0 0 0
SMALL
GASTEIGER

@<TRIPOS>ATOM
      1  N        146.7390  -48.0310  -60.7390 N.3    96  ALA96      -0.1231
      2  CA       146.4070  -46.6130  -60.6130 C.3    96  ALA96       0.1694
      3  C        146.3650  -45.9060  -61.9720 C.2    96  ALA96       0.2592
      4  O        145.6420  -44.9180  -62.1430 O.2    96  ALA96      -0.2718
      5  CB       147.3960  -45.9200  -59.6850 C.3    96  ALA96       0.0304
      6  N        147.1280  -46.4290  -62.9340 N.am   97  ALA97      -0.1966
      7  CA       147.3410  -45.7720  -64.2310 C.3    97  ALA97       0.1728
      8  C        146.0950  -45.6980  -65.1150 C.2    97  ALA97       0.2616
      9  O        145.1830  -46.5110  -64.9870 O.2    97  ALA97      -0.2715
     10  CB       148.4860  -46.4450  -64.9790 C.3    97  ALA97       0.0334
     11  N        146.0800  -44.7220  -66.0210 N.am   98  SER98      -0.1950
     12  CA       144.9640  -44.5060  -66.9430 C.3    98  SER98       0.1924
     13  C        144.8800  -45.5530  -68.0590 C.2    98  SER98       0.2314
     14  O        143.8260  -45.7190  -68.6780 O.2    98  SER98      -0.2863
     15  CB       145.0800  -43.1190  -67.5770 C.3    98  SER98       0.2116
     16  OG       146.1820  -43.0790  -68.4710 O.3    98  SER98      -0.2180
     17  N        141.9560  -48.2540  -68.2400 N.3   101  ARG101     -0.1245
     18  CA       140.6830  -47.7730  -67.7070 C.3   101  ARG101      0.1563
     19  C        139.5000  -48.0540  -68.6430 C.2   101  ARG101      0.2260
     20  O        138.4470  -48.5230  -68.2000 O.2   101  ARG101     -0.2867
     21  CB       140.7900  -46.2750  -67.4290 C.3   101  ARG101      0.0307
     22  CG       140.5380  -45.8750  -65.9890 C.3   101  ARG101      0.0489
     23  CD       140.9570  -44.4340  -65.7620 C.3   101  ARG101      0.2205
     24  NE       142.0390  -44.2910  -64.7900 N.pl3 101  ARG101     -0.0865
     25  CZ       142.7450  -43.1780  -64.6060 C.cat 101  ARG101      0.5346
     26  NH1      142.5080  -42.0970  -65.3410 N.pl3 101  ARG101      0.1354
     27  NH2      143.7020  -43.1500  -63.6900 N.pl3 101  ARG101      0.1354
     28  N        140.0970  -44.8460  -61.0530 N.3   132  GLY132     -0.1210
     29  CA       139.7170  -43.7880  -61.9930 C.3   132  GLY132      0.1956
     30  C        140.5640  -42.5390  -61.8280 C.2   132  GLY132      0.2612
     31  O        141.3500  -42.4320  -60.8830 O.2   132  GLY132     -0.2717
     32  N        140.4060  -41.5940  -62.7540 N.am  133  ASN133     -0.1960
     33  CA       141.0610  -40.2910  -62.6510 C.3   133  ASN133      0.1819
     34  C        140.7380  -39.6420  -61.3080 C.2   133  ASN133      0.2621
     35  O        139.6100  -39.7440  -60.8240 O.2   133  ASN133     -0.2715
     36  CB       140.6190  -39.3720  -63.7900 C.3   133  ASN133      0.1195
     37  CG       141.4980  -38.1450  -63.9180 C.2   133  ASN133      0.2630
     38  OD1      142.6830  -38.2530  -64.2070 O.2   133  ASN133     -0.2716
     39  ND2      140.9210  -36.9730  -63.6950 N.am  133  ASN133     -0.0877
     40  N        141.7270  -38.9790  -60.7130 N.am  134  CYS134     -0.1968
     41  CA       141.5670  -38.3740  -59.3850 C.3   134  CYS134      0.1712
     42  C        140.3170  -37.4780  -59.3140 C.2   134  CYS134      0.2296
     43  O        139.5420  -37.5800  -58.3660 O.2   134  CYS134     -0.2864
     44  CB       142.8160  -37.5830  -58.9700 C.3   134  CYS134      0.0983
     45  SG       143.5950  -36.6600  -60.3430 S.3   134  CYS134     -0.0798
     46  N        148.9390  -33.6510  -58.1690 N.3   165  GLY165     -0.1225
     47  CA       148.3590  -34.3470  -59.3150 C.3   165  GLY165      0.1811
     48  C        149.3210  -34.5040  -60.4780 C.2   165  GLY165      0.2280
     49  O        149.2190  -35.4530  -61.2520 O.2   165  GLY165     -0.2866
     50  N        142.3810  -34.4300  -69.6920 N.3   240  GLU240     -0.1245
     51  CA       141.8380  -34.3470  -68.3300 C.3   240  GLU240      0.1567
     52  C        140.3340  -34.0560  -68.3190 C.2   240  GLU240      0.2260
     53  O        139.5840  -34.6540  -67.5440 O.2   240  GLU240     -0.2867
     54  CB       142.5890  -33.2850  -67.5120 C.3   240  GLU240      0.0388
     55  CG       142.3770  -33.3680  -66.0000 C.3   240  GLU240      0.1160
     56  CD       143.1730  -34.4820  -65.3340 C.2   240  GLU240      0.3649
     57  OE1      143.8440  -35.2570  -66.0420 O.co2 240  GLU240     -0.2457
     58  OE2      143.1320  -34.5820  -64.0880 O.co2 240  GLU240     -0.2457
     59  N        138.3130  -37.1560  -69.6580 N.3   243  LYS243     -0.1245
     60  CA       138.2590  -38.3190  -68.7470 C.3   243  LYS243      0.1561
     61  C        136.9670  -38.4320  -67.9350 C.2   243  LYS243      0.2260
     62  O        136.4380  -39.5280  -67.7590 O.2   243  LYS243     -0.2867
     63  CB       139.4540  -38.3210  -67.7850 C.3   243  LYS243      0.0271
     64  CG       140.7820  -38.7000  -68.4170 C.3   243  LYS243      0.0035
     65  CD       141.9360  -38.2190  -67.5510 C.3   243  LYS243      0.0206
     66  CE       143.2610  -38.2830  -68.2930 C.3   243  LYS243      0.1093
     67  NZ       144.2620  -37.3400  -67.7100 N.3   243  LYS243     -0.1314
     68  N        142.2780  -31.6060  -54.6360 N.3   274  HIS274     -0.1241
     69  CA       141.5630  -31.0470  -55.7750 C.3   274  HIS274      0.1621
     70  C        140.2610  -30.4730  -55.3090 C.2   274  HIS274      0.2264
     71  O        139.5730  -31.0600  -54.4610 O.2   274  HIS274     -0.2867
     72  CB       141.2530  -32.1070  -56.8270 C.3   274  HIS274      0.0745
     73  CG       142.4600  -32.6350  -57.5680 C.ar  274  HIS274      0.0817
     74  ND1      143.6560  -32.0180  -57.5570 N.ar  274  HIS274     -0.2268
     75  CD2      142.5980  -33.7440  -58.4010 C.ar  274  HIS274      0.1154
     76  CE1      144.5250  -32.7070  -58.3220 C.ar  274  HIS274      0.1986
     77  NE2      143.8760  -33.7610  -58.8420 N.ar  274  HIS274     -0.2212
     78  N        143.7500  -35.6240  -53.2510 N.3   350  GLN350     -0.1245
     79  CA       144.1160  -36.2380  -54.5290 C.3   350  GLN350      0.1566
     80  C        144.7920  -37.5980  -54.3620 C.2   350  GLN350      0.2260
     81  O        144.6310  -38.4790  -55.2050 O.2   350  GLN350     -0.2867
     82  CB       145.0130  -35.2860  -55.3410 C.3   350  GLN350      0.0367
     83  CG       145.4360  -35.8000  -56.7120 C.3   350  GLN350      0.0905
     84  CD       146.7770  -36.5170  -56.7000 C.2   350  GLN350      0.2608
     85  OE1      147.7080  -36.1110  -56.0050 O.2   350  GLN350     -0.2717
     86  NE2      146.8840  -37.5820  -57.4830 N.am  350  GLN350     -0.0878
     87  N        141.5000  -40.1320  -54.4910 N.3   354  GLY354     -0.1210
     88  CA       141.8900  -39.8540  -55.8690 C.3   354  GLY354      0.1956
     89  C        142.9690  -40.7600  -56.4370 C.2   354  GLY354      0.2611
     90  O        143.2810  -40.6650  -57.6240 O.2   354  GLY354     -0.2717
     91  N        143.5520  -41.6220  -55.6000 N.am  355  ALA355     -0.1979
     92  CA       144.6510  -42.4930  -56.0340 C.3   355  ALA355      0.1597
     93  C        144.8010  -43.7960  -55.2370 C.2   355  ALA355      0.2287
     94  O        144.4210  -44.8610  -55.7210 O.2   355  ALA355     -0.2864
     95  CB       145.9710  -41.7220  -56.0590 C.3   355  ALA355      0.0319
@<TRIPOS>BOND
     1    50    51    1
     2    59    60    1
     3    60    61    1
     4    60    63    1
     5    14    13    2
     6    19    20    2
     7    19    18    1
     8    16    15    1
     9    64    63    1
    10    64    65    1
    11    51    52    1
    12    51    54    1
    13    52    53    2
    14    66    67    1
    15    66    65    1
    16    17    18    1
    17    13    12    1
    18    61    62    2
    19    18    21    1
    20    15    12    1
    21    54    55    1
    22    21    22    1
    23    12    11    1
    24    57    56   ar
    25    11     8   am
    26    55    56    1
    27    22    23    1
    28    23    24    1
    29    26    25    1
    30    56    58   ar
    31     8     9    2
    32     8     7    1
    33    10     7    1
    34    24    25    2
    35    25    27    1
    36     7     6    1
    37    38    37    2
    38    37    36    1
    39    37    39   am
    40    36    33    1
    41     6     3   am
    42    32    33    1
    43    32    30   am
    44    33    34    1
    45     4     3    2
    46    29    30    1
    47    29    28    1
    48     3     2    1
    49    30    31    2
    50    34    35    2
    51    34    40   am
    52    49    48    2
    53     1     2    1
    54    40    41    1
    55     2     5    1
    56    48    47    1
    57    45    44    1
    58    41    42    1
    59    41    44    1
    60    47    46    1
    61    42    43    2
    62    77    75   ar
    63    77    76   ar
    64    75    73   ar
    65    76    74   ar
    66    90    89    2
    67    73    74   ar
    68    73    72    1
    69    86    84   am
    70    72    69    1
    71    83    84    1
    72    83    82    1
    73    84    85    2
    74    89    88    1
    75    89    91   am
    76    95    92    1
    77    92    91    1
    78    92    93    1
    79    88    87    1
    80    69    70    1
    81    69    68    1
    82    94    93    2
    83    82    79    1
    84    70    71    2
    85    81    80    2
    86    79    80    1
    87    79    78    1
