@<TRIPOS>MOLECULE
tmp/3q0gC00.pdb
 147 139 0 0 0
SMALL
GASTEIGER

@<TRIPOS>ATOM
      1  N         27.8820    6.4050  -96.7280 N.3    23  GLN23      -0.1231
      2  CA        28.3630    7.7950  -96.7730 C.3    23  GLN23       0.1698
      3  C         27.9280    8.5980  -95.5370 C.2    23  GLN23       0.2592
      4  O         28.4090    9.7000  -95.3060 O.2    23  GLN23      -0.2718
      5  CB        27.9100    8.4930  -98.0700 C.3    23  GLN23       0.0381
      6  CG        26.4910    9.0850  -98.0480 C.3    23  GLN23       0.0905
      7  CD        25.3770    8.0580  -98.2780 C.2    23  GLN23       0.2608
      8  OE1       25.6290    6.8570  -98.4620 O.2    23  GLN23      -0.2717
      9  NE2       24.1290    8.5390  -98.2760 N.am   23  GLN23      -0.0878
     10  N         27.0070    8.0450  -94.7550 N.am   24  ALA24      -0.1966
     11  CA        26.5020    8.7420  -93.5840 C.3    24  ALA24       0.1728
     12  C         26.4220    7.8210  -92.3630 C.2    24  ALA24       0.2616
     13  O         25.5710    8.0050  -91.4810 O.2    24  ALA24      -0.2715
     14  CB        25.1440    9.3830  -93.8880 C.3    24  ALA24       0.0334
     15  N         27.3090    6.8280  -92.3150 N.am   25  LEU25      -0.1977
     16  CA        27.3730    5.9060  -91.1740 C.3    25  LEU25       0.1596
     17  C         26.0270    5.2260  -90.8510 C.2    25  LEU25       0.2287
     18  O         25.7020    5.0140  -89.6910 O.2    25  LEU25      -0.2864
     19  CB        27.9180    6.6400  -89.9400 C.3    25  LEU25       0.0297
     20  CG        29.3430    7.2080  -90.0690 C.3    25  LEU25       0.0022
     21  CD1       29.6880    8.1180  -88.8900 C.3    25  LEU25       0.0001
     22  CD2       30.3910    6.0930  -90.2290 C.3    25  LEU25       0.0001
     23  N         23.2720    6.4980  -90.7840 N.3    27  ALA27      -0.1245
     24  CA        22.3930    7.4100  -90.0540 C.3    27  ALA27       0.1562
     25  C         20.9650    7.2050  -90.5520 C.2    27  ALA27       0.2260
     26  O         20.7370    7.0150  -91.7500 O.2    27  ALA27      -0.2867
     27  CB        22.8280    8.8460  -90.2440 C.3    27  ALA27       0.0290
     28  N         31.6010   -1.0890  -89.4860 N.3    59  LYS59      -0.1245
     29  CA        32.0690    0.1880  -88.9860 C.3    59  LYS59       0.1561
     30  C         30.9780    0.8980  -88.1930 C.2    59  LYS59       0.2260
     31  O         31.2500    1.5670  -87.1960 O.2    59  LYS59      -0.2867
     32  CB        32.5400    1.0610  -90.1500 C.3    59  LYS59       0.0271
     33  CG        33.3900    2.2120  -89.6970 C.3    59  LYS59       0.0035
     34  CD        33.9050    3.0390  -90.8340 C.3    59  LYS59       0.0206
     35  CE        34.6240    4.2430  -90.2680 C.3    59  LYS59       0.1093
     36  NZ        35.5470    4.8750  -91.2440 N.3    59  LYS59      -0.1314
     37  N         24.8890    5.3390  -86.7200 N.3    63  ALA63      -0.1231
     38  CA        25.4100    6.4060  -85.8670 C.3    63  ALA63       0.1694
     39  C         24.3580    7.4680  -85.5260 C.2    63  ALA63       0.2593
     40  O         24.6990    8.6150  -85.2470 O.2    63  ALA63      -0.2718
     41  CB        26.6270    7.0490  -86.5060 C.3    63  ALA63       0.0304
     42  N         23.0840    7.0880  -85.5500 N.am   64  GLY64      -0.1942
     43  CA        22.0240    8.0000  -85.1630 C.3    64  GLY64       0.2014
     44  C         20.9300    8.1800  -86.1860 C.2    64  GLY64       0.2639
     45  O         21.0100    7.6440  -87.2770 O.2    64  GLY64      -0.2714
     46  N         19.8820    8.9090  -85.8070 N.am   65  ALA65      -0.1963
     47  CA        18.9640    9.4860  -86.7780 C.3    65  ALA65       0.1728
     48  C         19.7230   10.5610  -87.5520 C.2    65  ALA65       0.2616
     49  O         20.6720   11.1610  -87.0250 O.2    65  ALA65      -0.2715
     50  CB        17.7630   10.0900  -86.0910 C.3    65  ALA65       0.0334
     51  N         19.3050   10.7720  -88.8020 N.am   66  ASP66      -0.1957
     52  CA        19.8960   11.7630  -89.7080 C.3    66  ASP66       0.1840
     53  C         19.6590   13.2180  -89.2700 C.2    66  ASP66       0.2622
     54  O         18.5400   13.7410  -89.3590 O.2    66  ASP66      -0.2715
     55  CB        19.3560   11.5520  -91.1280 C.3    66  ASP66       0.1450
     56  CG        20.1130   12.3620  -92.1680 C.2    66  ASP66       0.3671
     57  OD1       20.4210   13.5470  -91.8890 O.co2  66  ASP66      -0.2456
     58  OD2       20.3910   11.8100  -93.2640 O.co2  66  ASP66      -0.2456
     59  N         20.7390   13.8680  -88.8500 N.am   67  ILE67      -0.1963
     60  CA        20.6920   15.1890  -88.2310 C.3    67  ILE67       0.1727
     61  C         20.3810   16.3080  -89.2120 C.2    67  ILE67       0.2616
     62  O         19.7570   17.3080  -88.8310 O.2    67  ILE67      -0.2715
     63  CB        22.0110   15.5120  -87.5190 C.3    67  ILE67       0.0290
     64  CG1       22.2310   14.5300  -86.3620 C.3    67  ILE67       0.0022
     65  CG2       22.0210   16.9700  -87.0520 C.3    67  ILE67       0.0023
     66  CD1       23.6870   14.3760  -85.9670 C.3    67  ILE67       0.0001
     67  N         20.8240   16.1470  -90.4620 N.am   68  LYS68      -0.1977
     68  CA        20.5360   17.1330  -91.5050 C.3    68  LYS68       0.1596
     69  C         19.0480   17.1820  -91.8250 C.2    68  LYS68       0.2287
     70  O         18.4860   18.2540  -92.0500 O.2    68  LYS68      -0.2864
     71  CB        21.3810   16.8760  -92.7580 C.3    68  LYS68       0.0298
     72  CG        22.8250   17.2800  -92.5690 C.3    68  LYS68       0.0038
     73  CD        23.7730   16.3350  -93.2770 C.3    68  LYS68       0.0206
     74  CE        25.1080   16.2770  -92.5370 C.3    68  LYS68       0.1093
     75  NZ        26.2250   15.7950  -93.4140 N.3    68  LYS68      -0.1314
     76  N         16.8070   16.5270  -89.5460 N.3    70  MET70      -0.1245
     77  CA        16.1660   17.0950  -88.3510 C.3    70  MET70       0.1570
     78  C         16.4460   18.5910  -88.1180 C.2    70  MET70       0.2261
     79  O         15.5820   19.3030  -87.5790 O.2    70  MET70      -0.2867
     80  CB        16.5270   16.2850  -87.0950 C.3    70  MET70       0.0387
     81  CG        16.0690   14.8220  -87.1020 C.3    70  MET70       0.0595
     82  SD        16.4320   13.9490  -85.5530 S.3    70  MET70      -0.1393
     83  CE        18.2200   13.9970  -85.5170 C.3    70  MET70       0.0692
     84  N         29.5800    1.4940  -84.2870 N.3   104  TYR104     -0.1241
     85  CA        28.7000    2.4880  -83.6850 C.3   104  TYR104      0.1605
     86  C         27.2370    2.0790  -83.7680 C.2   104  TYR104      0.2264
     87  O         26.7010    1.7830  -84.8480 O.2   104  TYR104     -0.2867
     88  CB        28.8480    3.8580  -84.3630 C.3   104  TYR104      0.0534
     89  CG        30.2490    4.4550  -84.3660 C.ar  104  TYR104     -0.0201
     90  CD1       30.7730    5.0690  -83.2280 C.ar  104  TYR104     -0.0009
     91  CD2       31.0280    4.4430  -85.5280 C.ar  104  TYR104     -0.0009
     92  CE1       32.0370    5.6230  -83.2330 C.ar  104  TYR104      0.0417
     93  CE2       32.3050    4.9960  -85.5420 C.ar  104  TYR104      0.0417
     94  CZ        32.7970    5.5830  -84.3920 C.ar  104  TYR104      0.1957
     95  OH        34.0530    6.1340  -84.4090 O.3   104  TYR104     -0.2866
     96  N         24.5820    4.3960  -81.9390 N.3   106  LEU106     -0.1231
     97  CA        24.4110    5.5740  -81.0800 C.3   106  LEU106      0.1693
     98  C         23.1300    6.2760  -81.4600 C.2   106  LEU106      0.2592
     99  O         22.7260    6.2500  -82.6300 O.2   106  LEU106     -0.2718
    100  CB        25.5470    6.5830  -81.2610 C.3   106  LEU106      0.0284
    101  CG        27.0010    6.1370  -81.3630 C.3   106  LEU106      0.0019
    102  CD1       27.7930    7.1160  -82.2520 C.3   106  LEU106      0.0001
    103  CD2       27.6310    5.9710  -79.9850 C.3   106  LEU106      0.0001
    104  N         22.5150    6.9340  -80.4830 N.am  107  GLY107     -0.1957
    105  CA        21.2220    7.5480  -80.6970 C.3   107  GLY107      0.1869
    106  C         20.2380    6.5180  -81.2360 C.2   107  GLY107      0.2309
    107  O         20.1450    5.3900  -80.7170 O.2   107  GLY107     -0.2863
    108  N         23.9490   10.1530  -77.2670 N.3   130  PRO130     -0.2102
    109  CA        24.5000   11.5030  -77.1610 C.3   130  PRO130      0.1504
    110  C         23.6030   12.6120  -77.7400 C.2   130  PRO130      0.2575
    111  O         24.1160   13.6900  -78.0440 O.2   130  PRO130     -0.2718
    112  CB        25.8030   11.3970  -77.9600 C.3   130  PRO130      0.0282
    113  CG        25.4850   10.3810  -79.0400 C.3   130  PRO130      0.0208
    114  CD        24.3500    9.5070  -78.5360 C.3   130  PRO130      0.0893
    115  N         22.2960   12.3490  -77.8790 N.am  131  GLU131     -0.1980
    116  CA        21.3020   13.3500  -78.3250 C.3   131  GLU131      0.1602
    117  C         21.3820   14.6450  -77.5560 C.2   131  GLU131      0.2287
    118  O         21.2940   15.7220  -78.1430 O.2   131  GLU131     -0.2864
    119  CB        19.8650   12.8450  -78.1390 C.3   131  GLU131      0.0415
    120  CG        19.3850   11.8580  -79.1670 C.3   131  GLU131      0.1163
    121  CD        19.7230   10.4210  -78.8130 C.2   131  GLU131      0.3649
    122  OE1       20.2180   10.1560  -77.6920 O.co2 131  GLU131     -0.2457
    123  OE2       19.4690    9.5500  -79.6690 O.co2 131  GLU131     -0.2457
    124  N         23.0430   17.6250  -76.0050 N.3   133  LYS133     -0.1231
    125  CA        24.2010   18.2550  -76.6580 C.3   133  LYS133      0.1693
    126  C         24.0240   18.4990  -78.1480 C.2   133  LYS133      0.2591
    127  O         24.7960   19.2540  -78.7350 O.2   133  LYS133     -0.2718
    128  CB        25.5120   17.4850  -76.4110 C.3   133  LYS133      0.0285
    129  CG        25.8760   16.4060  -77.4120 C.3   133  LYS133      0.0035
    130  CD        27.2730   15.9840  -77.1140 C.3   133  LYS133      0.0206
    131  CE        27.4170   14.5010  -77.0490 C.3   133  LYS133      0.1093
    132  NZ        28.7730   14.1840  -76.5170 N.3   133  LYS133     -0.1314
    133  N         23.0310   17.8480  -78.7510 N.am  134  LEU134     -0.1980
    134  CA        22.4660   18.3640  -79.9840 C.3   134  LEU134      0.1596
    135  C         21.2680   19.2200  -79.6040 C.2   134  LEU134      0.2287
    136  O         20.5650   19.7510  -80.4580 O.2   134  LEU134     -0.2864
    137  CB        22.0810   17.2430  -80.9460 C.3   134  LEU134      0.0297
    138  CG        23.2220   16.5290  -81.6850 C.3   134  LEU134      0.0022
    139  CD1       22.6410   15.8080  -82.8600 C.3   134  LEU134      0.0001
    140  CD2       24.3120   17.4570  -82.1750 C.3   134  LEU134      0.0001
    141  N         18.7000   18.0480  -77.8710 N.3   136  VAL136     -0.1245
    142  CA        17.4830   17.2110  -77.7830 C.3   136  VAL136      0.1561
    143  C         17.5800   16.0920  -76.7420 C.2   136  VAL136      0.2260
    144  O         18.3470   16.1830  -75.7810 O.2   136  VAL136     -0.2867
    145  CB        17.0410   16.6460  -79.1760 C.3   136  VAL136      0.0252
    146  CG1       16.4510   17.7540  -80.0400 C.3   136  VAL136      0.0019
    147  CG2       18.1960   15.9560  -79.9040 C.3   136  VAL136      0.0019
@<TRIPOS>BOND
     1     8     7    2
     2     7     9   am
     3     7     6    1
     4     5     6    1
     5     5     2    1
     6     2     1    1
     7     2     3    1
     8     3     4    2
     9     3    10   am
    10    10    11    1
    11    14    11    1
    12    11    12    1
    13    75    74    1
    14    73    72    1
    15    73    74    1
    16    58    56   ar
    17    71    72    1
    18    71    68    1
    19    12    15   am
    20    12    13    2
    21    15    16    1
    22    56    57   ar
    23    56    55    1
    24    70    69    2
    25    69    68    1
    26    26    25    2
    27    68    67    1
    28    36    35    1
    29    16    17    1
    30    16    19    1
    31    55    52    1
    32    17    18    2
    33    34    35    1
    34    34    33    1
    35    23    24    1
    36    25    24    1
    37    67    61   am
    38    27    24    1
    39    22    20    1
    40    32    33    1
    41    32    29    1
    42    20    19    1
    43    20    21    1
    44    52    53    1
    45    52    51    1
    46    76    77    1
    47    28    29    1
    48    54    53    2
    49    53    59   am
    50    61    62    2
    51    61    60    1
    52    29    30    1
    53    59    60    1
    54    51    48   am
    55    77    78    1
    56    77    80    1
    57    60    63    1
    58    30    31    2
    59    78    79    2
    60    48    49    2
    61    48    47    1
    62    63    65    1
    63    63    64    1
    64    45    44    2
    65    81    80    1
    66    81    82    1
    67    47    50    1
    68    47    46    1
    69    37    38    1
    70    41    38    1
    71    64    66    1
    72    44    46   am
    73    44    43    1
    74    38    39    1
    75    82    83    1
    76    42    39   am
    77    42    43    1
    78    93    91   ar
    79    93    94   ar
    80    91    89   ar
    81    39    40    2
    82    87    86    2
    83    95    94    1
    84    94    92   ar
    85    89    88    1
    86    89    90   ar
    87    88    85    1
    88    84    85    1
    89    86    85    1
    90    92    90   ar
    91   139   138    1
    92    99    98    2
    93   102   101    1
    94   140   138    1
    95    96    97    1
    96   138   137    1
    97    98    97    1
    98    98   104   am
    99   101   100    1
   100   101   103    1
   101   100    97    1
   102   106   107    2
   103   106   105    1
   104   137   134    1
   105   105   104    1
   106   136   135    2
   107   146   145    1
   108   134   135    1
   109   134   133    1
   110   147   145    1
   111   123   121   ar
   112   145   142    1
   113   120   121    1
   114   120   119    1
   115   113   114    1
   116   113   112    1
   117   121   122   ar
   118   133   126   am
   119   127   126    2
   120   114   108    1
   121   116   119    1
   122   116   115    1
   123   116   117    1
   124   126   125    1
   125   118   117    2
   126   111   110    2
   127   112   109    1
   128   115   110   am
   129   141   142    1
   130   142   143    1
   131   110   109    1
   132   129   130    1
   133   129   128    1
   134   108   109    1
   135   130   131    1
   136   131   132    1
   137   143   144    2
   138   125   128    1
   139   125   124    1
