@<TRIPOS>MOLECULE
tmp/3q0jF00.pdb
 191 181 0 0 0
SMALL
GASTEIGER

@<TRIPOS>ATOM
      1  N         27.2450   -6.6920  112.7400 N.3    23  GLN23      -0.1231
      2  CA        27.7030   -8.0770  112.8230 C.3    23  GLN23       0.1698
      3  C         27.3760   -8.8630  111.5520 C.2    23  GLN23       0.2592
      4  O         27.9920   -9.8980  111.2840 O.2    23  GLN23      -0.2718
      5  CB        27.1270   -8.7720  114.0720 C.3    23  GLN23       0.0381
      6  CG        25.6730   -9.2760  113.9640 C.3    23  GLN23       0.0905
      7  CD        24.6040   -8.1930  114.1660 C.2    23  GLN23       0.2608
      8  OE1       24.9060   -7.0130  114.3780 O.2    23  GLN23      -0.2717
      9  NE2       23.3380   -8.6070  114.1060 N.am   23  GLN23      -0.0878
     10  N         26.4100   -8.3640  110.7780 N.am   24  ALA24      -0.1966
     11  CA        25.9940   -9.0170  109.5380 C.3    24  ALA24       0.1728
     12  C         26.0610   -8.0990  108.3170 C.2    24  ALA24       0.2616
     13  O         25.3370   -8.3040  107.3360 O.2    24  ALA24      -0.2715
     14  CB        24.6010   -9.6100  109.6880 C.3    24  ALA24       0.0334
     15  N         26.9460   -7.1060  108.3680 N.am   25  LEU25      -0.1977
     16  CA        27.1000   -6.1410  107.2760 C.3    25  LEU25       0.1596
     17  C         25.7410   -5.5770  106.8560 C.2    25  LEU25       0.2287
     18  O         25.4650   -5.3930  105.6670 O.2    25  LEU25      -0.2864
     19  CB        27.8540   -6.7600  106.0890 C.3    25  LEU25       0.0297
     20  CG        29.2750   -7.2730  106.3800 C.3    25  LEU25       0.0022
     21  CD1       29.9310   -7.9130  105.1540 C.3    25  LEU25       0.0001
     22  CD2       30.1450   -6.1570  106.9370 C.3    25  LEU25       0.0001
     23  N         22.8330   -6.9260  106.8480 N.3    27  ALA27      -0.1245
     24  CA        21.9280   -7.8300  106.1360 C.3    27  ALA27       0.1562
     25  C         20.4780   -7.4790  106.4990 C.2    27  ALA27       0.2260
     26  O         20.1450   -7.2850  107.6810 O.2    27  ALA27      -0.2867
     27  CB        22.2390   -9.2800  106.4650 C.3    27  ALA27       0.0290
     28  N         31.4430    0.5300  105.8580 N.3    59  LYS59      -0.1245
     29  CA        31.8410   -0.7350  105.2520 C.3    59  LYS59       0.1561
     30  C         30.7410   -1.2880  104.3490 C.2    59  LYS59       0.2260
     31  O         31.0250   -1.8120  103.2600 O.2    59  LYS59      -0.2867
     32  CB        32.2290   -1.7560  106.3220 C.3    59  LYS59       0.0271
     33  CG        32.8700   -3.0130  105.7580 C.3    59  LYS59       0.0035
     34  CD        33.2440   -4.0080  106.8460 C.3    59  LYS59       0.0206
     35  CE        33.7760   -5.2940  106.2180 C.3    59  LYS59       0.1093
     36  NZ        33.9900   -6.3780  107.2170 N.3    59  LYS59      -0.1314
     37  N         24.7180   -5.6700  102.8300 N.3    63  ALA63      -0.1231
     38  CA        25.2710   -6.7870  102.0530 C.3    63  ALA63       0.1694
     39  C         24.2200   -7.8510  101.7460 C.2    63  ALA63       0.2593
     40  O         24.4870   -9.0390  101.8550 O.2    63  ALA63      -0.2718
     41  CB        26.4680   -7.4030  102.7650 C.3    63  ALA63       0.0304
     42  N         23.0280   -7.4030  101.3640 N.am   64  GLY64      -0.1942
     43  CA        21.9380   -8.2830  100.9770 C.3    64  GLY64       0.2014
     44  C         20.7990   -8.3520  101.9740 C.2    64  GLY64       0.2639
     45  O         20.8690   -7.7700  103.0610 O.2    64  GLY64      -0.2714
     46  N         19.7320   -9.0530  101.5940 N.am   65  ALA65      -0.1963
     47  CA        18.7550   -9.5090  102.5740 C.3    65  ALA65       0.1728
     48  C         19.4150  -10.6380  103.3790 C.2    65  ALA65       0.2616
     49  O         20.4720  -11.1530  102.9910 O.2    65  ALA65      -0.2715
     50  CB        17.4810   -9.9830  101.8920 C.3    65  ALA65       0.0334
     51  N         18.8070  -11.0100  104.5010 N.am   66  ASP66      -0.1957
     52  CA        19.4120  -11.9670  105.4200 C.3    66  ASP66       0.1840
     53  C         19.2860  -13.4140  104.9420 C.2    66  ASP66       0.2622
     54  O         18.2070  -14.0060  104.9840 O.2    66  ASP66      -0.2715
     55  CB        18.8070  -11.8100  106.8100 C.3    66  ASP66       0.1450
     56  CG        19.5830  -12.5670  107.8790 C.2    66  ASP66       0.3671
     57  OD1       19.8560  -13.7800  107.6920 O.co2  66  ASP66      -0.2456
     58  OD2       19.9080  -11.9370  108.9110 O.co2  66  ASP66      -0.2456
     59  N         20.4120  -13.9790  104.5210 N.am   67  ILE67      -0.1963
     60  CA        20.4680  -15.3160  103.9320 C.3    67  ILE67       0.1727
     61  C         20.1270  -16.4290  104.9250 C.2    67  ILE67       0.2616
     62  O         19.5720  -17.4610  104.5370 O.2    67  ILE67      -0.2715
     63  CB        21.8430  -15.5650  103.2670 C.3    67  ILE67       0.0290
     64  CG1       22.0450  -14.5670  102.1150 C.3    67  ILE67       0.0022
     65  CG2       21.9420  -16.9940  102.7510 C.3    67  ILE67       0.0023
     66  CD1       23.4890  -14.3220  101.7210 C.3    67  ILE67       0.0001
     67  N         20.4570  -16.2120  106.1990 N.am   68  LYS68      -0.1977
     68  CA        20.1390  -17.1630  107.2670 C.3    68  LYS68       0.1596
     69  C         18.6290  -17.2520  107.5050 C.2    68  LYS68       0.2287
     70  O         18.0910  -18.3370  107.7150 O.2    68  LYS68      -0.2864
     71  CB        20.8810  -16.8020  108.5640 C.3    68  LYS68       0.0298
     72  CG        22.4090  -16.8960  108.4520 C.3    68  LYS68       0.0038
     73  CD        23.1040  -16.4570  109.7310 C.3    68  LYS68       0.0206
     74  CE        24.5930  -16.8120  109.7260 C.3    68  LYS68       0.1093
     75  NZ        25.4350  -15.8210  108.9890 N.3    68  LYS68      -0.1314
     76  N         16.2960  -16.5100  105.2320 N.3    70  MET70      -0.1245
     77  CA        15.7050  -17.0630  104.0120 C.3    70  MET70       0.1570
     78  C         15.9390  -18.5720  103.8930 C.2    70  MET70       0.2261
     79  O         15.1060  -19.2880  103.3390 O.2    70  MET70      -0.2867
     80  CB        16.2260  -16.3330  102.7630 C.3    70  MET70       0.0387
     81  CG        15.7420  -14.8850  102.6300 C.3    70  MET70       0.0595
     82  SD        16.2140  -14.1030  101.0570 S.3    70  MET70      -0.1393
     83  CE        17.9850  -13.8710  101.2520 C.3    70  MET70       0.0692
     84  N          8.8300  -10.0070  101.8620 N.3    84  PHE84      -0.1241
     85  CA         9.3630   -8.7640  101.2760 C.3    84  PHE84       0.1605
     86  C          8.3110   -7.7030  100.9410 C.2    84  PHE84       0.2264
     87  O          8.6710   -6.5660  100.6640 O.2    84  PHE84      -0.2867
     88  CB        10.2160   -9.0110  100.0270 C.3    84  PHE84       0.0534
     89  CG        11.5470   -9.6070  100.3120 C.ar   84  PHE84      -0.0203
     90  CD1       12.2640   -9.2350  101.4450 C.ar   84  PHE84      -0.0042
     91  CD2       12.1080  -10.5170   99.4330 C.ar   84  PHE84      -0.0042
     92  CE1       13.5200   -9.7780  101.7110 C.ar   84  PHE84      -0.0003
     93  CE2       13.3690  -11.0660   99.6910 C.ar   84  PHE84      -0.0003
     94  CZ        14.0730  -10.6960  100.8310 C.ar   84  PHE84      -0.0000
     95  N         29.4800   -1.8340  100.5690 N.3   104  TYR104     -0.1241
     96  CA        28.6200   -2.8590   99.9880 C.3   104  TYR104      0.1605
     97  C         27.1450   -2.4780   99.9280 C.2   104  TYR104      0.2264
     98  O         26.5230   -2.1740  100.9480 O.2   104  TYR104     -0.2867
     99  CB        28.7740   -4.1870  100.7330 C.3   104  TYR104      0.0534
    100  CG        30.1370   -4.8270  100.6090 C.ar  104  TYR104     -0.0201
    101  CD1       30.6270   -5.2450   99.3710 C.ar  104  TYR104     -0.0009
    102  CD2       30.9290   -5.0350  101.7370 C.ar  104  TYR104     -0.0009
    103  CE1       31.8770   -5.8460   99.2580 C.ar  104  TYR104      0.0417
    104  CE2       32.1820   -5.6330  101.6360 C.ar  104  TYR104      0.0417
    105  CZ        32.6480   -6.0350  100.3950 C.ar  104  TYR104      0.1957
    106  OH        33.8850   -6.6220  100.2980 O.3   104  TYR104     -0.2866
    107  N         24.6270   -4.7960   98.0470 N.3   106  LEU106     -0.1231
    108  CA        24.3860   -5.9930   97.2420 C.3   106  LEU106      0.1693
    109  C         22.9970   -6.5350   97.4880 C.2   106  LEU106      0.2593
    110  O         22.4470   -6.3650   98.5810 O.2   106  LEU106     -0.2718
    111  CB        25.4210   -7.0780   97.5520 C.3   106  LEU106      0.0284
    112  CG        26.8880   -6.6750   97.3740 C.3   106  LEU106      0.0019
    113  CD1       27.8130   -7.7460   97.9250 C.3   106  LEU106      0.0001
    114  CD2       27.2250   -6.3590   95.9090 C.3   106  LEU106      0.0001
    115  N         22.4350   -7.1830   96.4660 N.am  107  GLY107     -0.1942
    116  CA        21.0910   -7.7490   96.5380 C.3   107  GLY107      0.2014
    117  C         20.0890   -6.7700   97.1220 C.2   107  GLY107      0.2639
    118  O         19.9600   -5.6450   96.6330 O.2   107  GLY107     -0.2714
    119  N         19.3970   -7.1870   98.1790 N.am  108  GLY108     -0.1954
    120  CA        18.4430   -6.3320   98.8900 C.3   108  GLY108      0.1869
    121  C         19.0150   -4.9740   99.2630 C.2   108  GLY108      0.2309
    122  O         18.2900   -3.9730   99.2910 O.2   108  GLY108     -0.2863
    123  N         18.8450   -3.1050   96.1660 N.3   111  GLU111     -0.1245
    124  CA        17.4250   -2.8700   95.9360 C.3   111  GLU111      0.1567
    125  C         16.8690   -1.7820   96.8460 C.2   111  GLU111      0.2260
    126  O         16.1030   -0.9210   96.3980 O.2   111  GLU111     -0.2867
    127  CB        16.6470   -4.1690   96.0760 C.3   111  GLU111      0.0388
    128  CG        16.8460   -5.0870   94.8930 C.3   111  GLU111      0.1160
    129  CD        16.4460   -6.5310   95.1680 C.2   111  GLU111      0.3649
    130  OE1       17.0540   -7.1660   96.0630 O.co2 111  GLU111     -0.2457
    131  OE2       15.5430   -7.0380   94.4690 O.co2 111  GLU111     -0.2457
    132  N         23.6860  -10.3350   93.3110 N.3   130  PRO130     -0.2102
    133  CA        24.2510  -11.6860   93.2230 C.3   130  PRO130      0.1504
    134  C         23.2900  -12.8220   93.6120 C.2   130  PRO130      0.2575
    135  O         23.7220  -13.9760   93.7370 O.2   130  PRO130     -0.2718
    136  CB        25.4360  -11.6230   94.2010 C.3   130  PRO130      0.0282
    137  CG        25.0300  -10.6100   95.2350 C.3   130  PRO130      0.0208
    138  CD        23.9970   -9.6920   94.6060 C.3   130  PRO130      0.0893
    139  N         22.0070  -12.5040   93.7810 N.am  131  GLU131     -0.1980
    140  CA        20.9860  -13.4850   94.1890 C.3   131  GLU131      0.1602
    141  C         21.0510  -14.7830   93.3950 C.2   131  GLU131      0.2287
    142  O         20.7770  -15.8560   93.9340 O.2   131  GLU131     -0.2864
    143  CB        19.5740  -12.9020   94.0450 C.3   131  GLU131      0.0415
    144  CG        19.2270  -11.8170   95.0410 C.3   131  GLU131      0.1163
    145  CD        19.7030  -10.4420   94.6150 C.2   131  GLU131      0.3649
    146  OE1       20.5080  -10.3410   93.6620 O.co2 131  GLU131     -0.2457
    147  OE2       19.2600   -9.4520   95.2290 O.co2 131  GLU131     -0.2457
    148  N         23.5450  -16.4120   92.4600 N.3   133  LYS133     -0.1231
    149  CA        24.5500  -17.3260   93.0280 C.3   133  LYS133      0.1693
    150  C         24.0200  -18.1410   94.2110 C.2   133  LYS133      0.2591
    151  O         24.6440  -19.1220   94.6260 O.2   133  LYS133     -0.2718
    152  CB        25.8290  -16.5820   93.4330 C.3   133  LYS133      0.0285
    153  CG        26.5450  -15.8930   92.2860 C.3   133  LYS133      0.0035
    154  CD        27.9960  -15.6120   92.6390 C.3   133  LYS133      0.0206
    155  CE        28.4440  -14.2970   91.9970 C.3   133  LYS133      0.1093
    156  NZ        29.9240  -14.1430   92.0590 N.3   133  LYS133     -0.1314
    157  N         22.8720  -17.7330   94.7460 N.am  134  LEU134     -0.1980
    158  CA        22.2230  -18.4720   95.8250 C.3   134  LEU134      0.1596
    159  C         21.1000  -19.3500   95.2740 C.2   134  LEU134      0.2287
    160  O         20.3610  -19.9840   96.0260 O.2   134  LEU134     -0.2864
    161  CB        21.6860  -17.5090   96.8850 C.3   134  LEU134      0.0297
    162  CG        22.7130  -16.5600   97.5200 C.3   134  LEU134      0.0022
    163  CD1       22.0410  -15.2870   98.0260 C.3   134  LEU134      0.0001
    164  CD2       23.5240  -17.2370   98.6320 C.3   134  LEU134      0.0001
    165  N         18.4870  -18.1920   93.6710 N.3   136  VAL136     -0.1231
    166  CA        17.2240  -17.4490   93.5800 C.3   136  VAL136      0.1692
    167  C         17.3340  -16.3030   92.5670 C.2   136  VAL136      0.2591
    168  O         17.9840  -16.4400   91.5350 O.2   136  VAL136     -0.2718
    169  CB        16.7030  -16.9530   94.9670 C.3   136  VAL136      0.0266
    170  CG1       16.1260  -18.1100   95.7680 C.3   136  VAL136      0.0020
    171  CG2       17.7810  -16.2440   95.7490 C.3   136  VAL136      0.0020
    172  N         16.6960  -15.1790   92.8630 N.am  137  LEU137     -0.1980
    173  CA        16.7130  -14.0210   91.9820 C.3   137  LEU137      0.1596
    174  C         16.3490  -12.8030   92.8310 C.2   137  LEU137      0.2287
    175  O         15.9920  -12.9690   94.0000 O.2   137  LEU137     -0.2864
    176  CB        15.7300  -14.2090   90.8190 C.3   137  LEU137      0.0297
    177  CG        14.2410  -14.2670   91.1550 C.3   137  LEU137      0.0022
    178  CD1       13.4040  -13.5700   90.0780 C.3   137  LEU137      0.0001
    179  CD2       13.7910  -15.7030   91.3600 C.3   137  LEU137      0.0001
    180  N         14.3500  -10.1710   94.7650 N.3   139  GLY139     -0.1210
    181  CA        13.0140  -10.3200   95.3320 C.3   139  GLY139      0.1956
    182  C         12.4550   -9.0220   95.8920 C.2   139  GLY139      0.2611
    183  O         11.3300   -8.9890   96.4000 O.2   139  GLY139     -0.2717
    184  N         13.2430   -7.9530   95.7860 N.am  140  MET140     -0.1979
    185  CA        12.8870   -6.6580   96.3500 C.3   140  MET140      0.1605
    186  C         12.8800   -5.5690   95.2720 C.2   140  MET140      0.2287
    187  O         13.2030   -4.4030   95.5450 O.2   140  MET140     -0.2864
    188  CB        13.8640   -6.2960   97.4790 C.3   140  MET140      0.0413
    189  CG        13.5710   -6.9850   98.7950 C.3   140  MET140      0.0598
    190  SD        14.8440   -6.7540  100.0510 S.3   140  MET140     -0.1393
    191  CE        14.9100   -4.9650  100.2030 C.3   140  MET140      0.0692
@<TRIPOS>BOND
     1   178   177    1
     2   176   177    1
     3   176   173    1
     4   177   179    1
     5   168   167    2
     6   173   174    1
     7   173   172    1
     8   155   156    1
     9   155   154    1
    10   153   154    1
    11   153   152    1
    12   148   149    1
    13   167   172   am
    14   167   166    1
    15   174   175    2
    16   149   152    1
    17   149   150    1
    18   133   132    1
    19   133   134    1
    20   133   136    1
    21   132   138    1
    22   141   142    2
    23   141   140    1
    24   166   165    1
    25   166   169    1
    26   134   135    2
    27   134   139   am
    28   146   145   ar
    29   139   140    1
    30   143   140    1
    31   143   144    1
    32   136   137    1
    33   150   151    2
    34   150   157   am
    35   131   129   ar
    36   138   137    1
    37   145   144    1
    38   145   147   ar
    39   157   158    1
    40   180   181    1
    41   128   129    1
    42   128   127    1
    43   169   171    1
    44   169   170    1
    45   129   130   ar
    46   186   187    2
    47   186   185    1
    48   159   158    1
    49   159   160    2
    50   181   182    1
    51   184   182   am
    52   184   185    1
    53   158   161    1
    54   182   183    2
    55   114   112    1
    56   124   127    1
    57   124   123    1
    58   124   125    1
    59   185   188    1
    60   126   125    2
    61   115   116    1
    62   115   109   am
    63   116   117    1
    64   118   117    2
    65   161   162    1
    66   117   119   am
    67   108   109    1
    68   108   111    1
    69   108   107    1
    70   112   111    1
    71   112   113    1
    72   188   189    1
    73   109   110    2
    74   162   163    1
    75   162   164    1
    76   119   120    1
    77   189   190    1
    78   120   121    1
    79   103   101   ar
    80   103   105   ar
    81   121   122    2
    82   101   100   ar
    83    91    93   ar
    84    91    89   ar
    85    93    94   ar
    86    97    96    1
    87    97    98    2
    88    96    95    1
    89    96    99    1
    90    88    89    1
    91    88    85    1
    92   190   191    1
    93   106   105    1
    94    89    90   ar
    95   105   104   ar
    96   100    99    1
    97   100   102   ar
    98    87    86    2
    99    94    92   ar
   100    86    85    1
   101    43    42    1
   102    43    44    1
   103    82    83    1
   104    82    81    1
   105    85    84    1
   106    42    39   am
   107    90    92   ar
   108    46    44   am
   109    46    47    1
   110   104   102   ar
   111    66    64    1
   112    39    40    2
   113    39    38    1
   114    50    47    1
   115    44    45    2
   116    38    41    1
   117    38    37    1
   118    64    63    1
   119    47    48    1
   120    81    80    1
   121    65    63    1
   122    80    77    1
   123    49    48    2
   124    31    30    2
   125    63    60    1
   126    79    78    2
   127    48    51   am
   128    78    77    1
   129    60    59    1
   130    60    61    1
   131    77    76    1
   132    30    29    1
   133    51    52    1
   134    59    53   am
   135    62    61    2
   136    61    67   am
   137    53    54    2
   138    53    52    1
   139    21    20    1
   140    29    28    1
   141    29    32    1
   142    52    55    1
   143    18    17    2
   144    33    32    1
   145    33    34    1
   146    19    20    1
   147    19    16    1
   148    24    27    1
   149    24    25    1
   150    24    23    1
   151    67    68    1
   152    35    34    1
   153    35    36    1
   154    20    22    1
   155    25    26    2
   156    55    56    1
   157    17    16    1
   158    68    69    1
   159    68    71    1
   160    16    15    1
   161    13    12    2
   162    69    70    2
   163    57    56   ar
   164    56    58   ar
   165    12    15   am
   166    12    11    1
   167    72    71    1
   168    72    73    1
   169    75    74    1
   170    11    14    1
   171    11    10    1
   172    74    73    1
   173    10     3   am
   174     4     3    2
   175     3     2    1
   176     1     2    1
   177     2     5    1
   178     6     5    1
   179     6     7    1
   180     9     7   am
   181     7     8    2
