@<TRIPOS>MOLECULE
tmp/3q0uA00.pdb
 211 208 0 0 0
SMALL
GASTEIGER

@<TRIPOS>ATOM
      1  N         25.0810   68.2470   11.6300 N.3    66  LEU66      -0.1245
      2  CA        26.3450   68.0120   12.3250 C.3    66  LEU66       0.1561
      3  C         26.1920   66.9790   13.4480 C.2    66  LEU66       0.2260
      4  O         27.0410   66.1040   13.6030 O.2    66  LEU66      -0.2867
      5  CB        26.9410   69.3170   12.8720 C.3    66  LEU66       0.0270
      6  CG        28.2820   69.1240   13.6000 C.3    66  LEU66       0.0019
      7  CD1       29.3910   68.6040   12.6620 C.3    66  LEU66       0.0001
      8  CD2       28.7060   70.3930   14.2920 C.3    66  LEU66       0.0001
      9  N         25.9550   63.4480   11.8470 N.3    69  LEU69      -0.1231
     10  CA        27.3100   63.0610   11.4870 C.3    69  LEU69       0.1693
     11  C         28.1080   62.5980   12.6930 C.2    69  LEU69       0.2591
     12  O         28.7750   61.5670   12.6360 O.2    69  LEU69      -0.2718
     13  CB        28.0440   64.2420   10.8610 C.3    69  LEU69       0.0284
     14  CG        28.4940   64.2170    9.4160 C.3    69  LEU69       0.0019
     15  CD1       29.6150   65.2430    9.3120 C.3    69  LEU69       0.0001
     16  CD2       28.9720   62.8310    8.9770 C.3    69  LEU69       0.0001
     17  N         28.0210   63.3770   13.7720 N.am   70  ALA70      -0.1980
     18  CA        28.7590   63.1430   15.0150 C.3    70  ALA70       0.1597
     19  C         28.3520   61.8620   15.7460 C.2    70  ALA70       0.2287
     20  O         29.1380   61.3150   16.5230 O.2    70  ALA70      -0.2864
     21  CB        28.6030   64.3450   15.9440 C.3    70  ALA70       0.0319
     22  N         30.0260   56.3810   13.7980 N.3    73  PRO73      -0.2116
     23  CA        31.4610   56.1700   14.0830 C.3    73  PRO73       0.1372
     24  C         32.4250   57.1210   13.3240 C.2    73  PRO73       0.2244
     25  O         33.0850   57.9160   13.9920 O.2    73  PRO73      -0.2868
     26  CB        31.6840   54.6850   13.7540 C.3    73  PRO73       0.0268
     27  CG        30.3290   54.0690   13.8910 C.3    73  PRO73       0.0207
     28  CD        29.3620   55.1180   13.4150 C.3    73  PRO73       0.0892
     29  N         37.0990   62.8950    7.4560 N.3    81  MET81      -0.1230
     30  CA        36.2670   63.2220    8.6090 C.3    81  MET81       0.1702
     31  C         35.9520   64.7210    8.6240 C.2    81  MET81       0.2592
     32  O         34.7750   65.1080    8.6720 O.2    81  MET81      -0.2718
     33  CB        36.9450   62.7980    9.9250 C.3    81  MET81       0.0401
     34  CG        36.1180   63.1300   11.1680 C.3    81  MET81       0.0596
     35  SD        36.9300   62.7840   12.7550 S.3    81  MET81      -0.1393
     36  CE        38.2500   64.0130   12.7460 C.3    81  MET81       0.0692
     37  N         37.0010   65.5460    8.5620 N.am   82  TRP82      -0.1976
     38  CA        36.8320   67.0070    8.5720 C.3    82  TRP82       0.1640
     39  C         36.1120   67.5040    7.3220 C.2    82  TRP82       0.2290
     40  O         35.2790   68.4160    7.4030 O.2    82  TRP82      -0.2864
     41  CB        38.1810   67.6940    8.7190 C.3    82  TRP82       0.0576
     42  CG        38.7690   67.4970   10.1000 C.ar   82  TRP82       0.0006
     43  CD1       39.8700   66.7510   10.4110 C.ar   82  TRP82       0.0946
     44  CD2       38.2620   68.0120   11.3460 C.ar   82  TRP82       0.0152
     45  NE1       40.0990   66.7830   11.7760 N.ar   82  TRP82      -0.2442
     46  CE2       39.1270   67.5390   12.3740 C.ar   82  TRP82       0.0810
     47  CE3       37.1730   68.8220   11.6990 C.ar   82  TRP82       0.0012
     48  CZ2       38.9440   67.8750   13.7300 C.ar   82  TRP82       0.0191
     49  CZ3       36.9740   69.1300   13.0690 C.ar   82  TRP82       0.0001
     50  CH2       37.8800   68.6740   14.0480 C.ar   82  TRP82       0.0015
     51  N         33.8040   65.8860    5.5820 N.3    84  THR84      -0.1203
     52  CA        32.3760   65.6210    5.7140 C.3    84  THR84       0.1994
     53  C         31.7090   66.6540    6.6470 C.2    84  THR84       0.2618
     54  O         30.5910   67.1130    6.3760 O.2    84  THR84      -0.2717
     55  CB        32.1060   64.1500    6.1420 C.3    84  THR84       0.1784
     56  OG1       32.8140   63.2650    5.2590 O.3    84  THR84      -0.2211
     57  CG2       30.6160   63.8260    6.0400 C.3    84  THR84       0.0376
     58  N         32.4190   67.0540    7.7070 N.am   85  GLY85      -0.1942
     59  CA        31.8990   68.0180    8.6790 C.3    85  GLY85       0.2014
     60  C         31.7270   69.4120    8.0780 C.2    85  GLY85       0.2638
     61  O         30.6730   70.0410    8.1940 O.2    85  GLY85      -0.2714
     62  N         32.7750   69.8990    7.4190 N.am   86  ILE86      -0.1977
     63  CA        32.7190   71.2130    6.7630 C.3    86  ILE86       0.1596
     64  C         31.6270   71.1660    5.6700 C.2    86  ILE86       0.2287
     65  O         30.8760   72.1230    5.4970 O.2    86  ILE86      -0.2864
     66  CB        34.0860   71.6340    6.1710 C.3    86  ILE86       0.0276
     67  CG1       35.1360   71.8050    7.2830 C.3    86  ILE86       0.0022
     68  CG2       33.9460   72.9810    5.4030 C.3    86  ILE86       0.0022
     69  CD1       36.5390   71.9410    6.7360 C.3    86  ILE86       0.0001
     70  N         28.0260   72.2560    6.4630 N.3    89  PHE89      -0.1241
     71  CA        27.7960   73.6960    6.4460 C.3    89  PHE89       0.1605
     72  C         27.8160   74.2760    5.0280 C.2    89  PHE89       0.2264
     73  O         26.9940   75.1380    4.6910 O.2    89  PHE89      -0.2867
     74  CB        28.7680   74.3850    7.4180 C.3    89  PHE89       0.0534
     75  CG        28.5410   73.9550    8.8250 C.ar   89  PHE89      -0.0203
     76  CD1       29.2590   72.8830    9.3710 C.ar   89  PHE89      -0.0042
     77  CD2       27.5320   74.5490    9.5860 C.ar   89  PHE89      -0.0042
     78  CE1       29.0170   72.4440   10.6730 C.ar   89  PHE89      -0.0003
     79  CE2       27.2810   74.1100   10.8980 C.ar   89  PHE89      -0.0003
     80  CZ        28.0300   73.0540   11.4340 C.ar   89  PHE89      -0.0000
     81  N         24.1840   75.9060    4.2070 N.3    93  PHE93      -0.1241
     82  CA        24.1230   77.3370    3.9520 C.3    93  PHE93       0.1605
     83  C         24.1200   77.6470    2.4520 C.2    93  PHE93       0.2264
     84  O         23.4640   78.5950    2.0170 O.2    93  PHE93      -0.2867
     85  CB        25.2420   78.0830    4.6860 C.3    93  PHE93       0.0534
     86  CG        25.1430   77.9790    6.1830 C.ar   93  PHE93      -0.0203
     87  CD1       26.2730   77.8820    6.9660 C.ar   93  PHE93      -0.0042
     88  CD2       23.8950   77.9560    6.7960 C.ar   93  PHE93      -0.0042
     89  CE1       26.1650   77.7870    8.3560 C.ar   93  PHE93      -0.0003
     90  CE2       23.7830   77.8540    8.1910 C.ar   93  PHE93      -0.0003
     91  CZ        24.9160   77.7810    8.9560 C.ar   93  PHE93      -0.0000
     92  N         23.4500   84.0040   16.0000 N.3   117  TRP117     -0.1241
     93  CA        24.6990   83.6290   15.3310 C.3   117  TRP117      0.1605
     94  C         25.7940   83.3020   16.3550 C.2   117  TRP117      0.2264
     95  O         26.4740   82.2610   16.2580 O.2   117  TRP117     -0.2867
     96  CB        25.1680   84.6820   14.3210 C.3   117  TRP117      0.0550
     97  CG        26.2530   84.1120   13.4770 C.ar  117  TRP117      0.0003
     98  CD1       27.5810   84.3940   13.5560 C.ar  117  TRP117      0.0946
     99  CD2       26.1100   83.0930   12.4730 C.ar  117  TRP117      0.0152
    100  NE1       28.2820   83.6300   12.6420 N.ar  117  TRP117     -0.2442
    101  CE2       27.4020   82.8130   11.9780 C.ar  117  TRP117      0.0810
    102  CE3       25.0150   82.3830   11.9550 C.ar  117  TRP117      0.0012
    103  CZ2       27.6330   81.8620   10.9720 C.ar  117  TRP117      0.0191
    104  CZ3       25.2400   81.4550   10.9410 C.ar  117  TRP117      0.0001
    105  CH2       26.5440   81.1990   10.4670 C.ar  117  TRP117      0.0015
    106  N         27.7910   79.7360   16.7630 N.3   121  MET121     -0.1245
    107  CA        29.2620   79.7450   16.6140 C.3   121  MET121      0.1570
    108  C         29.9710   79.1930   17.8520 C.2   121  MET121      0.2261
    109  O         30.8870   78.3770   17.7300 O.2   121  MET121     -0.2867
    110  CB        29.7920   81.1450   16.2810 C.3   121  MET121      0.0387
    111  CG        29.3940   81.6150   14.8700 C.3   121  MET121      0.0595
    112  SD        30.1500   80.6310   13.5550 S.3   121  MET121     -0.1393
    113  CE        31.8660   81.1280   13.6780 C.3   121  MET121      0.0692
    114  N         29.5160   75.4050   17.7670 N.3   124  TRP124     -0.1241
    115  CA        30.3180   74.7560   16.7140 C.3   124  TRP124      0.1605
    116  C         31.8120   74.7970   17.0190 C.2   124  TRP124      0.2264
    117  O         32.5330   73.8390   16.7580 O.2   124  TRP124     -0.2867
    118  CB        30.0230   75.3740   15.3490 C.3   124  TRP124      0.0550
    119  CG        28.5770   75.1600   14.9690 C.ar  124  TRP124      0.0003
    120  CD1       27.7600   74.1280   15.3780 C.ar  124  TRP124      0.0946
    121  CD2       27.7850   75.9880   14.1190 C.ar  124  TRP124      0.0152
    122  NE1       26.5090   74.2740   14.8300 N.ar  124  TRP124     -0.2442
    123  CE2       26.4910   75.3990   14.0540 C.ar  124  TRP124      0.0810
    124  CE3       28.0270   77.1740   13.4130 C.ar  124  TRP124      0.0012
    125  CZ2       25.4550   75.9530   13.2970 C.ar  124  TRP124      0.0191
    126  CZ3       26.9860   77.7270   12.6560 C.ar  124  TRP124      0.0001
    127  CH2       25.7220   77.1190   12.6110 C.ar  124  TRP124      0.0015
    128  N         32.3830   72.1660   19.7590 N.3   127  TYR127     -0.1227
    129  CA        32.4110   70.8260   19.2180 C.3   127  TYR127      0.1736
    130  C         33.7260   70.5690   18.4620 C.2   127  TYR127      0.2596
    131  O         34.3410   69.5230   18.6070 O.2   127  TYR127     -0.2718
    132  CB        31.1940   70.4990   18.3380 C.3   127  TYR127      0.0548
    133  CG        31.2100   69.0070   18.0620 C.ar  127  TYR127     -0.0200
    134  CD1       31.1760   68.0850   19.1260 C.ar  127  TYR127     -0.0009
    135  CD2       31.3540   68.5130   16.7750 C.ar  127  TYR127     -0.0009
    136  CE1       31.2560   66.7130   18.8990 C.ar  127  TYR127      0.0417
    137  CE2       31.4200   67.1270   16.5380 C.ar  127  TYR127      0.0417
    138  CZ        31.3680   66.2410   17.6050 C.ar  127  TYR127      0.1957
    139  OH        31.4450   64.8680   17.3920 O.3   127  TYR127     -0.2866
    140  N         34.1480   71.5410   17.6660 N.am  128  THR128     -0.1953
    141  CA        35.4200   71.4400   16.9700 C.3   128  THR128      0.1897
    142  C         36.5800   71.1750   17.9390 C.2   128  THR128      0.2313
    143  O         37.4050   70.2900   17.7070 O.2   128  THR128     -0.2863
    144  CB        35.6990   72.7180   16.1470 C.3   128  THR128      0.1794
    145  OG1       34.6520   72.9090   15.1640 O.3   128  THR128     -0.2208
    146  CG2       37.0830   72.6570   15.4700 C.3   128  THR128      0.0378
    147  N         36.6180   67.7050   19.3510 N.3   131  VAL131     -0.1245
    148  CA        37.1020   66.7090   18.3980 C.3   131  VAL131      0.1561
    149  C         38.6330   66.8090   18.2820 C.2   131  VAL131      0.2260
    150  O         39.3270   65.7950   18.3080 O.2   131  VAL131     -0.2867
    151  CB        36.4200   66.8280   17.0050 C.3   131  VAL131      0.0252
    152  CG1       37.0300   65.8250   16.0150 C.3   131  VAL131      0.0019
    153  CG2       34.9010   66.6400   17.1090 C.3   131  VAL131      0.0019
    154  N         36.9110   78.2410   12.6880 N.3   155  ASN155     -0.1240
    155  CA        35.5030   78.5150   12.4630 C.3   155  ASN155      0.1653
    156  C         35.2380   79.9240   11.9360 C.2   155  ASN155      0.2266
    157  O         34.3750   80.0980   11.0950 O.2   155  ASN155     -0.2867
    158  CB        34.6920   78.2590   13.7420 C.3   155  ASN155      0.1155
    159  CG        34.3220   76.8020   13.9070 C.2   155  ASN155      0.2627
    160  OD1       33.2320   76.3820   13.4770 O.2   155  ASN155     -0.2716
    161  ND2       35.2200   76.0070   14.4960 N.am  155  ASN155     -0.0877
    162  N         35.9950   79.8790    8.2970 N.3   158  ASN158     -0.1225
    163  CA        34.8800   79.2690    7.5580 C.3   158  ASN158      0.1785
    164  C         33.7420   80.2410    7.3400 C.2   158  ASN158      0.2597
    165  O         33.2220   80.3380    6.2480 O.2   158  ASN158     -0.2718
    166  CB        34.3680   77.9750    8.2020 C.3   158  ASN158      0.1169
    167  CG        35.2950   76.8050    8.0050 C.2   158  ASN158      0.2627
    168  OD1       36.4480   76.9690    7.6180 O.2   158  ASN158     -0.2716
    169  ND2       34.8040   75.6040    8.3160 N.am  158  ASN158     -0.0877
    170  N         33.3560   80.9590    8.3940 N.am  159  GLU159     -0.1979
    171  CA        32.2990   81.9780    8.3130 C.3   159  GLU159      0.1602
    172  C         32.6090   82.9890    7.1940 C.2   159  GLU159      0.2287
    173  O         31.8250   83.1340    6.2450 O.2   159  GLU159     -0.2864
    174  CB        32.1690   82.6750    9.6590 C.3   159  GLU159      0.0415
    175  CG        31.0870   83.7630    9.6410 C.3   159  GLU159      0.1163
    176  CD        31.1300   84.6170   10.8830 C.2   159  GLU159      0.3649
    177  OE1       31.0330   84.0460   11.9750 O.co2 159  GLU159     -0.2457
    178  OE2       31.2840   85.8440   10.7580 O.co2 159  GLU159     -0.2457
    179  N         33.3570   80.9520    3.4970 N.3   162  LEU162     -0.1231
    180  CA        32.1690   80.3610    2.8710 C.3   162  LEU162      0.1693
    181  C         31.2340   81.4500    2.3950 C.2   162  LEU162      0.2592
    182  O         30.7530   81.4130    1.2530 O.2   162  LEU162     -0.2718
    183  CB        31.4380   79.4330    3.8510 C.3   162  LEU162      0.0284
    184  CG        32.0900   78.0830    4.1500 C.3   162  LEU162      0.0019
    185  CD1       31.3730   77.3920    5.3220 C.3   162  LEU162      0.0001
    186  CD2       32.1050   77.1950    2.8710 C.3   162  LEU162      0.0001
    187  N         30.9700   82.4260    3.2670 N.am  163  PHE163     -0.1976
    188  CA        29.9850   83.4490    2.9660 C.3   163  PHE163      0.1639
    189  C         30.4470   84.4260    1.8790 C.2   163  PHE163      0.2290
    190  O         29.6300   84.8330    1.0490 O.2   163  PHE163     -0.2864
    191  CB        29.4920   84.1390    4.2370 C.3   163  PHE163      0.0560
    192  CG        28.8380   83.1860    5.2220 C.ar  163  PHE163     -0.0200
    193  CD1       28.4030   81.9140    4.8250 C.ar  163  PHE163     -0.0042
    194  CD2       28.6590   83.5620    6.5530 C.ar  163  PHE163     -0.0042
    195  CE1       27.8240   81.0140    5.7300 C.ar  163  PHE163     -0.0003
    196  CE2       28.0670   82.6770    7.4580 C.ar  163  PHE163     -0.0003
    197  CZ        27.6440   81.4070    7.0500 C.ar  163  PHE163     -0.0000
    198  N         42.2900   73.3350    7.4830 N.3   186  TRP186     -0.1241
    199  CA        41.9210   72.6090    8.7250 C.3   186  TRP186      0.1605
    200  C         42.8700   71.4580    8.9750 C.2   186  TRP186      0.2264
    201  O         43.4530   71.3320   10.0670 O.2   186  TRP186     -0.2867
    202  CB        40.4770   72.1100    8.6670 C.3   186  TRP186      0.0550
    203  CG        39.4570   73.1710    8.9640 C.ar  186  TRP186      0.0003
    204  CD1       39.2600   74.3730    8.2910 C.ar  186  TRP186      0.0946
    205  CD2       38.4880   73.1420   10.0240 C.ar  186  TRP186      0.0152
    206  NE1       38.2190   75.0710    8.8750 N.ar  186  TRP186     -0.2442
    207  CE2       37.7260   74.3400    9.9340 C.ar  186  TRP186      0.0810
    208  CE3       38.1780   72.2050   11.0350 C.ar  186  TRP186      0.0012
    209  CZ2       36.6980   74.6520   10.8440 C.ar  186  TRP186      0.0191
    210  CZ3       37.1340   72.5040   11.9270 C.ar  186  TRP186      0.0001
    211  CH2       36.4160   73.7200   11.8310 C.ar  186  TRP186      0.0015
@<TRIPOS>BOND
     1   190   189    2
     2   182   181    2
     3   189   188    1
     4    84    83    2
     5   181   180    1
     6   181   187   am
     7    83    82    1
     8   186   184    1
     9   180   179    1
    10   180   183    1
    11   188   187    1
    12   188   191    1
    13   183   184    1
    14    82    81    1
    15    82    85    1
    16   184   185    1
    17   191   192    1
    18    85    86    1
    19    73    72    2
    20   193   192   ar
    21   193   195   ar
    22    72    71    1
    23   192   194   ar
    24    56    55    1
    25    68    66    1
    26    65    64    2
    27    51    52    1
    28    64    63    1
    29    52    55    1
    30    52    53    1
    31   195   197   ar
    32    57    55    1
    33    66    63    1
    34    66    67    1
    35    86    88   ar
    36    86    87   ar
    37   173   172    2
    38   165   164    2
    39    54    53    2
    40    71    70    1
    41    71    74    1
    42   194   196   ar
    43    53    58   am
    44    69    67    1
    45    63    62    1
    46    88    90   ar
    47    87    89   ar
    48   197   196   ar
    49   172   171    1
    50    39    40    2
    51    39    38    1
    52   164   163    1
    53   164   170   am
    54    74    75    1
    55    62    60   am
    56    29    30    1
    57   198   199    1
    58   163   166    1
    59   163   162    1
    60   168   167    2
    61    58    59    1
    62   167   166    1
    63   167   169   am
    64    60    61    2
    65    60    59    1
    66    90    91   ar
    67   204   206   ar
    68   204   203   ar
    69   171   170    1
    70   171   174    1
    71    89    91   ar
    72    37    38    1
    73    37    31   am
    74    38    41    1
    75    30    31    1
    76    30    33    1
    77    31    32    2
    78   202   199    1
    79   202   203    1
    80    41    42    1
    81   199   200    1
    82    75    76   ar
    83    75    77   ar
    84   206   207   ar
    85   203   205   ar
    86   200   201    2
    87    16    14    1
    88    15    14    1
    89    76    78   ar
    90    14    13    1
    91    77    79   ar
    92   175   174    1
    93   175   176    1
    94    33    34    1
    95   207   205   ar
    96   207   209   ar
    97   205   208   ar
    98    42    43   ar
    99    42    44   ar
   100    43    45   ar
   101   105   104   ar
   102   105   103   ar
   103    78    80   ar
   104   178   176   ar
   105   209   211   ar
   106    13    10    1
   107   176   177   ar
   108    79    80   ar
   109   104   102   ar
   110   103   101   ar
   111   208   210   ar
   112   157   156    2
   113    34    35    1
   114    44    47   ar
   115    44    46   ar
   116    10     9    1
   117    10    11    1
   118     1     2    1
   119    47    49   ar
   120    45    46   ar
   121   211   210   ar
   122   156   155    1
   123   102    99   ar
   124   101    99   ar
   125   101   100   ar
   126     2     5    1
   127     2     3    1
   128    46    48   ar
   129   155   154    1
   130   155   158    1
   131    99    97   ar
   132   127   126   ar
   133   127   125   ar
   134    12    11    2
   135   100    98   ar
   136   126   124   ar
   137     7     6    1
   138    11    17   am
   139    36    35    1
   140     5     6    1
   141    49    50   ar
   142   125   123   ar
   143    24    25    2
   144    24    23    1
   145   124   121   ar
   146    28    22    1
   147    28    27    1
   148     3     4    2
   149    97    98   ar
   150    97    96    1
   151   160   159    2
   152   112   113    1
   153   112   111    1
   154     6     8    1
   155    48    50   ar
   156   158   159    1
   157    26    27    1
   158    26    23    1
   159    17    18    1
   160    22    23    1
   161   159   161   am
   162   123   121   ar
   163   123   122   ar
   164   121   119   ar
   165    96    93    1
   166   122   120   ar
   167   111   110    1
   168   119   118    1
   169   119   120   ar
   170    18    19    1
   171    18    21    1
   172   145   144    1
   173    93    92    1
   174    93    94    1
   175   118   115    1
   176   146   144    1
   177    19    20    2
   178   152   151    1
   179   144   141    1
   180    95    94    2
   181   110   107    1
   182   137   135   ar
   183   137   138   ar
   184   107   106    1
   185   107   108    1
   186   115   116    1
   187   115   114    1
   188   117   116    2
   189   135   133   ar
   190   141   140    1
   191   141   142    1
   192   151   153    1
   193   151   148    1
   194   139   138    1
   195   138   136   ar
   196   140   130   am
   197   143   142    2
   198   109   108    2
   199   133   132    1
   200   133   134   ar
   201   149   150    2
   202   149   148    1
   203   132   129    1
   204   148   147    1
   205   130   131    2
   206   130   129    1
   207   136   134   ar
   208   129   128    1
