@<TRIPOS>MOLECULE
tmp/3q0vA00.pdb
 204 201 0 0 0
SMALL
GASTEIGER

@<TRIPOS>ATOM
      1  N          6.9010   25.2840   -2.7380 N.3    66  LEU66      -0.1245
      2  CA         6.6470   26.5650   -3.4150 C.3    66  LEU66       0.1561
      3  C          5.6090   26.4080   -4.5920 C.2    66  LEU66       0.2260
      4  O          4.6950   27.2110   -4.7260 O.2    66  LEU66      -0.2867
      5  CB         7.9710   27.1850   -3.9020 C.3    66  LEU66       0.0270
      6  CG         7.7680   28.4190   -4.7850 C.3    66  LEU66       0.0019
      7  CD1        7.1830   29.5840   -3.9190 C.3    66  LEU66       0.0001
      8  CD2        9.0710   28.8440   -5.4990 C.3    66  LEU66       0.0001
      9  N          2.1270   26.2390   -3.1100 N.3    69  LEU69      -0.1231
     10  CA         1.6370   27.5750   -2.7630 C.3    69  LEU69       0.1693
     11  C          1.2380   28.3240   -4.0190 C.2    69  LEU69       0.2591
     12  O          0.1660   28.9210   -4.0850 O.2    69  LEU69      -0.2718
     13  CB         2.7410   28.3860   -2.0830 C.3    69  LEU69       0.0284
     14  CG         2.7300   28.6100   -0.6120 C.3    69  LEU69       0.0019
     15  CD1        3.8750   29.5880   -0.3010 C.3    69  LEU69       0.0001
     16  CD2        1.3440   29.1510   -0.1760 C.3    69  LEU69       0.0001
     17  N          2.1310   28.3040   -5.0050 N.am   70  ALA70      -0.1980
     18  CA         1.9160   29.0050   -6.2800 C.3    70  ALA70       0.1597
     19  C          0.5940   28.6590   -6.9530 C.2    70  ALA70       0.2287
     20  O         -0.0810   29.5560   -7.4580 O.2    70  ALA70      -0.2864
     21  CB         3.1170   28.7830   -7.2610 C.3    70  ALA70       0.0319
     22  N          1.3370   37.1710    1.5600 N.3    76  MET76      -0.1230
     23  CA         1.6630   36.2890    0.4070 C.3    76  MET76       0.1702
     24  C          3.1720   36.0610    0.3940 C.2    76  MET76       0.2592
     25  O          3.6170   34.9120    0.2980 O.2    76  MET76      -0.2718
     26  CB         1.2330   36.9330   -0.9050 C.3    76  MET76       0.0401
     27  CG         1.5970   36.1540   -2.2040 C.3    76  MET76       0.0596
     28  SD         1.3040   37.1600   -3.7490 S.3    76  MET76      -0.1393
     29  CE         2.7160   38.2770   -3.7160 C.3    76  MET76       0.0692
     30  N          3.9810   37.1260    0.5110 N.am   77  TRP77      -0.1976
     31  CA         5.4630   36.9550    0.4920 C.3    77  TRP77       0.1640
     32  C          6.0060   36.2050    1.7080 C.2    77  TRP77       0.2290
     33  O          6.9540   35.3740    1.6160 O.2    77  TRP77      -0.2864
     34  CB         6.1750   38.2990    0.3590 C.3    77  TRP77       0.0576
     35  CG         5.9310   38.9120   -1.0550 C.ar   77  TRP77       0.0006
     36  CD1        5.1960   40.0060   -1.3500 C.ar   77  TRP77       0.0946
     37  CD2        6.4540   38.4140   -2.2840 C.ar   77  TRP77       0.0152
     38  NE1        5.1890   40.2270   -2.7260 N.ar   77  TRP77      -0.2442
     39  CE2        5.9710   39.2670   -3.3230 C.ar   77  TRP77       0.0810
     40  CE3        7.2660   37.3150   -2.6190 C.ar   77  TRP77       0.0012
     41  CZ2        6.3020   39.0710   -4.6940 C.ar   77  TRP77       0.0191
     42  CZ3        7.5760   37.1030   -4.0020 C.ar   77  TRP77       0.0001
     43  CH2        7.1070   37.9950   -5.0000 C.ar   77  TRP77       0.0015
     44  N          4.4400   33.8800    3.4080 N.3    79  THR79      -0.1203
     45  CA         4.1430   32.4770    3.2350 C.3    79  THR79       0.1994
     46  C          5.1960   31.8260    2.2950 C.2    79  THR79       0.2618
     47  O          5.6920   30.7130    2.5580 O.2    79  THR79      -0.2717
     48  CB         2.6580   32.2480    2.7930 C.3    79  THR79       0.1784
     49  OG1        1.7510   32.8660    3.7460 O.3    79  THR79      -0.2211
     50  CG2        2.3160   30.7270    2.7930 C.3    79  THR79       0.0376
     51  N          5.5530   32.5240    1.2250 N.am   80  GLY80      -0.1942
     52  CA         6.5860   32.0630    0.2800 C.3    80  GLY80       0.2014
     53  C          7.9860   32.0080    0.8960 C.2    80  GLY80       0.2638
     54  O          8.6870   31.0040    0.7670 O.2    80  GLY80      -0.2714
     55  N          8.4290   33.0510    1.5920 N.am   81  ILE81      -0.1977
     56  CA         9.7110   32.9580    2.2580 C.3    81  ILE81       0.1596
     57  C          9.6930   31.8070    3.3040 C.2    81  ILE81       0.2287
     58  O         10.6770   31.0560    3.4600 O.2    81  ILE81      -0.2864
     59  CB        10.1110   34.3330    2.9110 C.3    81  ILE81       0.0276
     60  CG1       10.2610   35.4460    1.8120 C.3    81  ILE81       0.0022
     61  CG2       11.3960   34.2030    3.7390 C.3    81  ILE81       0.0022
     62  CD1       10.3530   36.9060    2.4210 C.3    81  ILE81       0.0001
     63  N         10.9150   28.2560    2.4690 N.3    84  PHE84      -0.1241
     64  CA        12.3850   28.0940    2.5070 C.3    84  PHE84       0.1605
     65  C         12.9570   28.0950    3.9420 C.2    84  PHE84       0.2264
     66  O         13.8060   27.2490    4.2850 O.2    84  PHE84      -0.2867
     67  CB        13.0340   29.1590    1.6040 C.3    84  PHE84       0.0534
     68  CG        12.6940   28.9220    0.1680 C.ar   84  PHE84      -0.0203
     69  CD1       11.5350   29.4720   -0.3750 C.ar   84  PHE84      -0.0042
     70  CD2       13.4590   28.0200   -0.5890 C.ar   84  PHE84      -0.0042
     71  CE1       11.1300   29.1640   -1.7880 C.ar   84  PHE84      -0.0003
     72  CE2       13.1130   27.6990   -1.9340 C.ar   84  PHE84      -0.0003
     73  CZ        11.9420   28.2950   -2.5390 C.ar   84  PHE84      -0.0000
     74  N         14.5330   24.4320    4.7550 N.3    88  PHE88      -0.1241
     75  CA        15.9880   24.3490    4.9610 C.3    88  PHE88       0.1605
     76  C         16.2880   24.3940    6.4490 C.2    88  PHE88       0.2264
     77  O         17.2730   23.7710    6.8990 O.2    88  PHE88      -0.2867
     78  CB        16.7050   25.5030    4.2620 C.3    88  PHE88       0.0534
     79  CG        16.7910   25.3130    2.7850 C.ar   88  PHE88      -0.0203
     80  CD1       15.9870   26.0550    1.9310 C.ar   88  PHE88      -0.0042
     81  CD2       17.7070   24.4300    2.2590 C.ar   88  PHE88      -0.0042
     82  CE1       16.0190   25.8680    0.5000 C.ar   88  PHE88      -0.0003
     83  CE2       17.7910   24.2410    0.7590 C.ar   88  PHE88      -0.0003
     84  CZ        16.9320   24.9530   -0.0800 C.ar   88  PHE88      -0.0000
     85  N         22.4830   23.7600   -7.2110 N.3   112  TRP112     -0.1241
     86  CA        22.1240   25.0050   -6.5060 C.3   112  TRP112      0.1605
     87  C         21.7860   26.0690   -7.5430 C.2   112  TRP112      0.2264
     88  O         20.7410   26.7530   -7.4690 O.2   112  TRP112     -0.2867
     89  CB        23.2210   25.4620   -5.4670 C.3   112  TRP112      0.0550
     90  CG        22.6710   26.5250   -4.6340 C.ar  112  TRP112      0.0003
     91  CD1       22.9730   27.8980   -4.6850 C.ar  112  TRP112      0.0946
     92  CD2       21.6350   26.3840   -3.6670 C.ar  112  TRP112      0.0152
     93  NE1       22.1720   28.5750   -3.7870 N.ar  112  TRP112     -0.2442
     94  CE2       21.3530   27.6710   -3.1530 C.ar  112  TRP112      0.0810
     95  CE3       20.9180   25.2830   -3.1680 C.ar  112  TRP112      0.0012
     96  CZ2       20.3420   27.8910   -2.1990 C.ar  112  TRP112      0.0191
     97  CZ3       19.9460   25.5040   -2.1710 C.ar  112  TRP112      0.0001
     98  CH2       19.6710   26.7930   -1.7100 C.ar  112  TRP112      0.0015
     99  N         18.2400   28.0240   -8.0110 N.3   116  MET116     -0.1245
    100  CA        18.2530   29.4830   -7.7970 C.3   116  MET116      0.1570
    101  C         17.6410   30.2170   -9.0050 C.2   116  MET116      0.2261
    102  O         16.8060   31.1410   -8.8650 O.2   116  MET116     -0.2867
    103  CB        19.6830   30.0170   -7.5020 C.3   116  MET116      0.0387
    104  CG        20.2170   29.6270   -6.1030 C.3   116  MET116      0.0595
    105  SD        19.3040   30.4020   -4.7690 S.3   116  MET116     -0.1393
    106  CE        19.8760   32.1340   -4.9690 C.3   116  MET116      0.0692
    107  N         13.9160   29.7100   -8.8230 N.3   119  TRP119     -0.1241
    108  CA        13.2260   30.5260   -7.7850 C.3   119  TRP119      0.1605
    109  C         13.2260   32.0190   -8.0960 C.2   119  TRP119      0.2264
    110  O         12.2310   32.7400   -7.8220 O.2   119  TRP119     -0.2867
    111  CB        13.7890   30.2430   -6.3960 C.3   119  TRP119      0.0550
    112  CG        13.6220   28.7680   -6.0710 C.ar  119  TRP119      0.0003
    113  CD1       12.6200   27.9370   -6.5290 C.ar  119  TRP119      0.0946
    114  CD2       14.4860   27.9450   -5.2640 C.ar  119  TRP119      0.0152
    115  NE1       12.8020   26.6690   -6.0230 N.ar  119  TRP119     -0.2442
    116  CE2       13.9520   26.6420   -5.2770 C.ar  119  TRP119      0.0810
    117  CE3       15.6810   28.1840   -4.5500 C.ar  119  TRP119      0.0012
    118  CZ2       14.5440   25.5570   -4.5370 C.ar  119  TRP119      0.0191
    119  CZ3       16.2740   27.1190   -3.8410 C.ar  119  TRP119      0.0001
    120  CH2       15.7000   25.8280   -3.8360 C.ar  119  TRP119      0.0015
    121  N         10.5660   32.5540  -10.7800 N.3   122  TYR122     -0.1227
    122  CA         9.2340   32.5770  -10.1900 C.3   122  TYR122      0.1736
    123  C          8.9820   33.9360   -9.4410 C.2   122  TYR122      0.2596
    124  O          7.9540   34.5870   -9.6220 O.2   122  TYR122     -0.2718
    125  CB         8.9160   31.3220   -9.3070 C.3   122  TYR122      0.0548
    126  CG         7.4470   31.2440   -9.2230 C.ar  122  TYR122     -0.0200
    127  CD1        6.6690   31.0500  -10.3860 C.ar  122  TYR122     -0.0009
    128  CD2        6.7850   31.5350   -8.0410 C.ar  122  TYR122     -0.0009
    129  CE1        5.2630   31.0760  -10.3310 C.ar  122  TYR122      0.0417
    130  CE2        5.3970   31.5630   -7.9800 C.ar  122  TYR122      0.0417
    131  CZ         4.6390   31.3220   -9.1060 C.ar  122  TYR122      0.1957
    132  OH         3.2480   31.3610   -8.9940 O.3   122  TYR122     -0.2866
    133  N          9.9600   34.3670   -8.6550 N.am  123  THR123     -0.1953
    134  CA         9.8540   35.6220   -7.9390 C.3   123  THR123      0.1897
    135  C          9.6300   36.7750   -8.9350 C.2   123  THR123      0.2313
    136  O          8.7540   37.6240   -8.7120 O.2   123  THR123     -0.2863
    137  CB        11.1630   35.9110   -7.1040 C.3   123  THR123      0.1794
    138  OG1       11.3480   34.8830   -6.0950 O.3   123  THR123     -0.2208
    139  CG2       11.0880   37.2720   -6.4080 C.3   123  THR123      0.0378
    140  N          6.0850   36.7990  -10.3620 N.3   126  VAL126     -0.1245
    141  CA         5.0910   37.3320   -9.4290 C.3   126  VAL126      0.1561
    142  C          5.1650   38.8500   -9.2840 C.2   126  VAL126      0.2260
    143  O          4.1530   39.5290   -9.2910 O.2   126  VAL126     -0.2867
    144  CB         5.2290   36.6560   -8.0440 C.3   126  VAL126      0.0252
    145  CG1        4.2560   37.2760   -7.0290 C.3   126  VAL126      0.0019
    146  CG2        4.9850   35.1860   -8.2080 C.3   126  VAL126      0.0019
    147  N         16.6270   37.1110   -3.7010 N.3   150  ASN150     -0.1240
    148  CA        16.9080   35.7090   -3.4570 C.3   150  ASN150      0.1653
    149  C         18.3410   35.4760   -2.9040 C.2   150  ASN150      0.2266
    150  O         18.5150   34.5790   -2.0560 O.2   150  ASN150     -0.2867
    151  CB        16.6670   34.8330   -4.7390 C.3   150  ASN150      0.1155
    152  CG        15.2020   34.4490   -4.9260 C.2   150  ASN150      0.2627
    153  OD1       14.8230   33.3570   -4.5480 O.2   150  ASN150     -0.2716
    154  ND2       14.3710   35.3400   -5.5000 N.am  150  ASN150     -0.0877
    155  N         18.2310   36.2020    0.6770 N.3   153  ASN153     -0.1225
    156  CA        17.6050   35.1740    1.5310 C.3   153  ASN153      0.1785
    157  C         18.5410   34.0020    1.7080 C.2   153  ASN153      0.2597
    158  O         18.6100   33.4670    2.8110 O.2   153  ASN153     -0.2718
    159  CB        16.2310   34.6860    0.9740 C.3   153  ASN153      0.1169
    160  CG        15.1490   35.7280    1.1530 C.2   153  ASN153      0.2627
    161  OD1       15.4500   36.9220    1.4140 O.2   153  ASN153     -0.2716
    162  ND2       13.8840   35.3150    1.0010 N.am  153  ASN153     -0.0877
    163  N         19.2040   33.5630    0.6030 N.am  154  GLU154     -0.1979
    164  CA        20.2310   32.5090    0.6980 C.3   154  GLU154      0.1602
    165  C         21.2550   32.7980    1.8170 C.2   154  GLU154      0.2287
    166  O         21.3960   31.9950    2.7630 O.2   154  GLU154     -0.2864
    167  CB        20.9580   32.2950   -0.6340 C.3   154  GLU154      0.0415
    168  CG        22.0540   31.2810   -0.5880 C.3   154  GLU154      0.1163
    169  CD        22.9860   31.3580   -1.8190 C.2   154  GLU154      0.3649
    170  OE1       22.4780   31.3720   -2.9460 O.co2 154  GLU154     -0.2457
    171  OE2       24.2250   31.4140   -1.6640 O.co2 154  GLU154     -0.2457
    172  N         19.3700   33.5380    5.5010 N.3   157  LEU157     -0.1231
    173  CA        18.7950   32.3180    6.0830 C.3   157  LEU157      0.1693
    174  C         19.8820   31.3810    6.5650 C.2   157  LEU157      0.2592
    175  O         19.8310   30.8590    7.6800 O.2   157  LEU157     -0.2718
    176  CB        17.8490   31.5420    5.1120 C.3   157  LEU157      0.0284
    177  CG        16.4780   32.1500    4.8370 C.3   157  LEU157      0.0019
    178  CD1       15.7850   31.3450    3.7070 C.3   157  LEU157      0.0001
    179  CD2       15.5510   32.3060    6.0450 C.3   157  LEU157      0.0001
    180  N         20.8850   31.1670    5.7240 N.am  158  PHE158     -0.1976
    181  CA        21.9160   30.1770    6.0210 C.3   158  PHE158      0.1639
    182  C         22.8860   30.6870    7.0560 C.2   158  PHE158      0.2290
    183  O         23.2760   29.8920    7.8950 O.2   158  PHE158     -0.2864
    184  CB        22.6270   29.7160    4.7480 C.3   158  PHE158      0.0560
    185  CG        21.6630   29.0310    3.7480 C.ar  158  PHE158     -0.0200
    186  CD1       20.3200   28.6520    4.1150 C.ar  158  PHE158     -0.0042
    187  CD2       22.0740   28.8090    2.4340 C.ar  158  PHE158     -0.0042
    188  CE1       19.4450   27.9970    3.1450 C.ar  158  PHE158     -0.0003
    189  CE2       21.2350   28.1720    1.4800 C.ar  158  PHE158     -0.0003
    190  CZ        19.9240   27.7850    1.8190 C.ar  158  PHE158     -0.0000
    191  N         11.6430   42.5310    1.5790 N.3   181  TRP181     -0.1241
    192  CA        10.9730   42.1340    0.3060 C.3   181  TRP181      0.1605
    193  C          9.7940   43.0780    0.0110 C.2   181  TRP181      0.2264
    194  O          9.6890   43.6220   -1.1200 O.2   181  TRP181     -0.2867
    195  CB        10.4860   40.6730    0.4270 C.3   181  TRP181      0.0550
    196  CG        11.5960   39.6470    0.0910 C.ar  181  TRP181      0.0003
    197  CD1       12.7930   39.4910    0.7330 C.ar  181  TRP181      0.0946
    198  CD2       11.6090   38.6860   -1.0000 C.ar  181  TRP181      0.0152
    199  NE1       13.5070   38.4680    0.1680 N.ar  181  TRP181     -0.2442
    200  CE2       12.8080   37.9610   -0.9040 C.ar  181  TRP181      0.0810
    201  CE3       10.7010   38.3620   -2.0430 C.ar  181  TRP181      0.0012
    202  CZ2       13.1600   36.9560   -1.8400 C.ar  181  TRP181      0.0191
    203  CZ3       11.0350   37.3400   -2.9280 C.ar  181  TRP181      0.0001
    204  CH2       12.2510   36.6680   -2.8280 C.ar  181  TRP181      0.0015
@<TRIPOS>BOND
     1   121   122    1
     2   127   129   ar
     3   127   126   ar
     4   140   141    1
     5   129   131   ar
     6   122   123    1
     7   122   125    1
     8   124   123    2
     9   123   133   am
    10   141   142    1
    11   141   144    1
    12   125   126    1
    13   143   142    2
    14   126   128   ar
    15   131   132    1
    16   131   130   ar
    17   101   102    2
    18   101   100    1
    19   135   136    2
    20   135   134    1
    21   107   108    1
    22   133   134    1
    23   146   144    1
    24   109   110    2
    25   109   108    1
    26   144   145    1
    27   128   130   ar
    28    99   100    1
    29   134   137    1
    30   100   103    1
    31   108   111    1
    32    87    88    2
    33    87    86    1
    34   103   104    1
    35    20    19    2
    36    21    18    1
    37    85    86    1
    38   137   139    1
    39   137   138    1
    40    19    18    1
    41   113   112   ar
    42   113   115   ar
    43    86    89    1
    44   111   112    1
    45    18    17    1
    46   104   105    1
    47   112   114   ar
    48   115   116   ar
    49   154   152   am
    50     8     6    1
    51    89    90    1
    52   116   114   ar
    53   116   118   ar
    54   114   117   ar
    55    17    11   am
    56    43    41   ar
    57    43    42   ar
    58   106   105    1
    59   152   151    1
    60   152   153    2
    61     6     7    1
    62     6     5    1
    63   151   148    1
    64     4     3    2
    65    41    39   ar
    66    91    90   ar
    67    91    93   ar
    68    90    92   ar
    69     3     2    1
    70   117   119   ar
    71   118   120   ar
    72    12    11    2
    73    11    10    1
    74    42    40   ar
    75     5     2    1
    76   119   120   ar
    77    93    94   ar
    78    28    29    1
    79    28    27    1
    80   147   148    1
    81    92    95   ar
    82    92    94   ar
    83   148   149    1
    84     2     1    1
    85    39    38   ar
    86    39    37   ar
    87    95    97   ar
    88    94    96   ar
    89     9    10    1
    90   170   169   ar
    91   203   204   ar
    92   203   201   ar
    93   149   150    2
    94   204   202   ar
    95    10    13    1
    96    38    36   ar
    97    40    37   ar
    98    73    72   ar
    99    73    71   ar
   100    37    35   ar
   101    27    26    1
   102    96    98   ar
   103    97    98   ar
   104    13    14    1
   105   201   198   ar
   106    72    70   ar
   107   202   200   ar
   108   169   171   ar
   109   169   168    1
   110    71    69   ar
   111    36    35   ar
   112   194   193    2
   113    35    34    1
   114   198   200   ar
   115   198   196   ar
   116    26    23    1
   117   200   199   ar
   118   167   168    1
   119   167   164    1
   120    14    15    1
   121    14    16    1
   122    70    68   ar
   123    69    68   ar
   124    84    82   ar
   125    84    83   ar
   126   193   192    1
   127   196   195    1
   128   196   197   ar
   129   199   197   ar
   130    68    67    1
   131    52    53    1
   132    52    51    1
   133    25    24    2
   134   192   195    1
   135   192   191    1
   136    34    31    1
   137    24    23    1
   138    24    30   am
   139    23    22    1
   140    31    30    1
   141    31    32    1
   142    82    80   ar
   143   163   164    1
   144   163   157   am
   145   155   156    1
   146   164   165    1
   147    83    81   ar
   148    54    53    2
   149    53    55   am
   150   159   160    1
   151   159   156    1
   152   162   160   am
   153   160   161    2
   154    51    46   am
   155   189   190   ar
   156   189   187   ar
   157   156   157    1
   158    55    56    1
   159    67    64    1
   160    33    32    2
   161   157   158    2
   162    60    62    1
   163    60    59    1
   164   165   166    2
   165   190   188   ar
   166    80    79   ar
   167    56    59    1
   168    56    57    1
   169    81    79   ar
   170    46    47    2
   171    46    45    1
   172   187   185   ar
   173    63    64    1
   174    64    65    1
   175    79    78    1
   176    48    50    1
   177    48    45    1
   178    48    49    1
   179    59    61    1
   180   188   186   ar
   181    45    44    1
   182    57    58    2
   183   178   177    1
   184   185   186   ar
   185   185   184    1
   186    65    66    2
   187    78    75    1
   188   184   181    1
   189    74    75    1
   190   177   176    1
   191   177   179    1
   192    75    76    1
   193   176   173    1
   194   172   173    1
   195   180   181    1
   196   180   174   am
   197   181   182    1
   198   173   174    1
   199    76    77    2
   200   174   175    2
   201   182   183    2
