@<TRIPOS>MOLECULE
tmp/3q0wA00.pdb
 191 185 0 0 0
SMALL
GASTEIGER

@<TRIPOS>ATOM
      1  N         25.2410   65.8830   11.4760 N.3    66  LEU66      -0.1245
      2  CA        26.5210   65.5700   12.1060 C.3    66  LEU66       0.1561
      3  C         26.3330   64.6110   13.2390 C.2    66  LEU66       0.2260
      4  O         27.1020   63.6930   13.3650 O.2    66  LEU66      -0.2867
      5  CB        27.2390   66.8650   12.5730 C.3    66  LEU66       0.0270
      6  CG        28.6730   66.6040   13.1570 C.3    66  LEU66       0.0019
      7  CD1       29.5550   66.2940   12.0120 C.3    66  LEU66       0.0001
      8  CD2       29.1150   68.0220   13.7080 C.3    66  LEU66       0.0001
      9  N         26.0020   61.2070   11.6800 N.3    69  LEU69      -0.1231
     10  CA        27.2650   60.6990   11.2710 C.3    69  LEU69       0.1693
     11  C         28.0920   60.2880   12.4670 C.2    69  LEU69       0.2591
     12  O         28.8230   59.2740   12.3990 O.2    69  LEU69      -0.2718
     13  CB        28.0350   61.7900   10.5360 C.3    69  LEU69       0.0284
     14  CG        28.9170   61.5140    9.3450 C.3    69  LEU69       0.0019
     15  CD1       30.0010   62.6030    9.1440 C.3    69  LEU69       0.0001
     16  CD2       29.2490   60.0340    8.9100 C.3    69  LEU69       0.0001
     17  N         28.0320   61.0460   13.5430 N.am   70  ALA70      -0.1980
     18  CA        28.8790   60.7510   14.6840 C.3    70  ALA70       0.1597
     19  C         28.4940   59.3730   15.2280 C.2    70  ALA70       0.2287
     20  O         29.3430   58.5860   15.6150 O.2    70  ALA70      -0.2864
     21  CB        28.7200   61.7970   15.7740 C.3    70  ALA70       0.0319
     22  N         29.7990   56.3780   11.9090 N.3    73  PRO73      -0.2102
     23  CA        30.9870   56.9080   11.1770 C.3    73  PRO73       0.1504
     24  C         31.3460   56.0080    9.9420 C.2    73  PRO73       0.2575
     25  O         31.1230   54.7840    9.9830 O.2    73  PRO73      -0.2718
     26  CB        32.1010   56.9070   12.2580 C.3    73  PRO73       0.0282
     27  CG        31.6180   55.8070   13.2780 C.3    73  PRO73       0.0208
     28  CD        30.1060   55.9290   13.2830 C.3    73  PRO73       0.0893
     29  N         31.8920   56.6000    8.8730 N.am   74  ALA74      -0.1980
     30  CA        32.2690   55.8220    7.6820 C.3    74  ALA74       0.1597
     31  C         33.4620   54.9020    7.9300 C.2    74  ALA74       0.2287
     32  O         34.4110   55.2450    8.6330 O.2    74  ALA74      -0.2864
     33  CB        32.5140   56.7220    6.4610 C.3    74  ALA74       0.0319
     34  N         41.1580   57.9430    7.9330 N.3    78  ARG78      -0.1245
     35  CA        40.9600   59.2550    8.6440 C.3    78  ARG78       0.1563
     36  C         40.6140   60.4110    7.7030 C.2    78  ARG78       0.2260
     37  O         39.6700   61.1760    7.9620 O.2    78  ARG78      -0.2867
     38  CB        42.1430   59.5210    9.6020 C.3    78  ARG78       0.0307
     39  CG        42.0440   58.6670   10.8610 C.3    78  ARG78       0.0489
     40  CD        43.3830   58.5940   11.6900 C.3    78  ARG78       0.2205
     41  NE        43.0500   58.1460   13.0390 N.pl3  78  ARG78      -0.0865
     42  CZ        43.1820   56.8900   13.4460 C.cat  78  ARG78       0.5346
     43  NH1       43.6590   55.9670   12.5910 N.pl3  78  ARG78       0.1354
     44  NH2       42.8270   56.5600   14.6800 N.pl3  78  ARG78       0.1354
     45  N         37.1300   60.0780    6.4810 N.3    81  MET81      -0.1230
     46  CA        36.2290   60.3430    7.5610 C.3    81  MET81       0.1702
     47  C         36.0510   61.8300    7.8710 C.2    81  MET81       0.2592
     48  O         34.9180   62.2790    8.0230 O.2    81  MET81      -0.2718
     49  CB        36.5730   59.5810    8.8010 C.3    81  MET81       0.0401
     50  CG        36.5060   58.1080    8.4910 C.3    81  MET81       0.0596
     51  SD        37.0340   57.0350    9.9010 S.3    81  MET81      -0.1393
     52  CE        38.7540   57.2200   10.1350 C.3    81  MET81       0.0692
     53  N         37.1440   62.5950    7.8440 N.am   82  TRP82      -0.1976
     54  CA        37.0120   63.9870    8.1240 C.3    82  TRP82       0.1640
     55  C         36.2820   64.6270    6.8980 C.2    82  TRP82       0.2290
     56  O         35.5340   65.5720    7.0970 O.2    82  TRP82      -0.2864
     57  CB        38.4150   64.6810    8.2680 C.3    82  TRP82       0.0576
     58  CG        38.9820   64.4360    9.6810 C.ar   82  TRP82       0.0006
     59  CD1       40.0960   63.6270    9.9650 C.ar   82  TRP82       0.0946
     60  CD2       38.5810   65.0150   10.8970 C.ar   82  TRP82       0.0152
     61  NE1       40.3120   63.6300   11.2810 N.ar   82  TRP82      -0.2442
     62  CE2       39.4450   64.4880   11.9040 C.ar   82  TRP82       0.0810
     63  CE3       37.5110   65.8470   11.2880 C.ar   82  TRP82       0.0012
     64  CZ2       39.2880   64.7640   13.2570 C.ar   82  TRP82       0.0191
     65  CZ3       37.3690   66.1410   12.6690 C.ar   82  TRP82       0.0001
     66  CH2       38.2600   65.6200   13.6270 C.ar   82  TRP82       0.0015
     67  N         32.5270   64.4340    7.3680 N.3    85  GLY85      -0.1210
     68  CA        31.9430   65.3350    8.3100 C.3    85  GLY85       0.1956
     69  C         31.9560   66.7340    7.8020 C.2    85  GLY85       0.2611
     70  O         31.0080   67.4700    7.9310 O.2    85  GLY85      -0.2717
     71  N         33.0850   67.2010    7.2400 N.am   86  ILE86      -0.1979
     72  CA        33.0520   68.5590    6.6910 C.3    86  ILE86       0.1595
     73  C         31.9620   68.6490    5.5650 C.2    86  ILE86       0.2287
     74  O         31.2910   69.7020    5.3820 O.2    86  ILE86      -0.2864
     75  CB        34.5230   68.9530    6.1310 C.3    86  ILE86       0.0276
     76  CG1       35.4820   69.0020    7.2990 C.3    86  ILE86       0.0022
     77  CG2       34.4060   70.3260    5.3670 C.3    86  ILE86       0.0022
     78  CD1       36.9830   69.0720    6.7010 C.3    86  ILE86       0.0001
     79  N         28.5270   70.0300    6.3560 N.3    89  PHE89      -0.1241
     80  CA        28.2730   71.4660    6.3210 C.3    89  PHE89       0.1605
     81  C         28.3180   72.0020    4.9110 C.2    89  PHE89       0.2264
     82  O         27.5150   72.9050    4.5780 O.2    89  PHE89      -0.2867
     83  CB        29.3880   72.1280    7.2170 C.3    89  PHE89       0.0534
     84  CG        29.1970   71.7680    8.6270 C.ar   89  PHE89      -0.0203
     85  CD1       29.9460   70.7140    9.1680 C.ar   89  PHE89      -0.0042
     86  CD2       28.2270   72.3850    9.4080 C.ar   89  PHE89      -0.0042
     87  CE1       29.7350   70.3210   10.4680 C.ar   89  PHE89      -0.0003
     88  CE2       28.0510   72.0080   10.7000 C.ar   89  PHE89      -0.0003
     89  CZ        28.7900   70.9740   11.2100 C.ar   89  PHE89      -0.0000
     90  N         29.7890   72.7430   17.7320 N.3   124  TRP124     -0.1241
     91  CA        30.5840   72.0840   16.7060 C.3   124  TRP124      0.1605
     92  C         32.0630   72.0810   17.0210 C.2   124  TRP124      0.2264
     93  O         32.8050   71.1440   16.7760 O.2   124  TRP124     -0.2867
     94  CB        30.3450   72.6370   15.3520 C.3   124  TRP124      0.0550
     95  CG        28.8340   72.5370   15.0110 C.ar  124  TRP124      0.0003
     96  CD1       28.0750   71.4680   15.3600 C.ar  124  TRP124      0.0946
     97  CD2       28.0780   73.3620   14.1500 C.ar  124  TRP124      0.0152
     98  NE1       26.8050   71.6480   14.8460 N.ar  124  TRP124     -0.2442
     99  CE2       26.7470   72.7950   14.1060 C.ar  124  TRP124      0.0810
    100  CE3       28.3350   74.5450   13.4950 C.ar  124  TRP124      0.0012
    101  CZ2       25.6940   73.3760   13.3150 C.ar  124  TRP124      0.0191
    102  CZ3       27.2940   75.1910   12.7470 C.ar  124  TRP124      0.0001
    103  CH2       25.9840   74.5970   12.7030 C.ar  124  TRP124      0.0015
    104  N         32.7350   69.5180   19.8200 N.3   127  TYR127     -0.1227
    105  CA        32.8160   68.1890   19.2690 C.3   127  TYR127      0.1736
    106  C         34.1560   67.9670   18.5090 C.2   127  TYR127      0.2596
    107  O         34.8040   66.9430   18.7140 O.2   127  TYR127     -0.2718
    108  CB        31.5820   68.0120   18.3660 C.3   127  TYR127      0.0548
    109  CG        31.6190   66.7300   17.6470 C.ar  127  TYR127     -0.0200
    110  CD1       31.4970   65.5320   18.3520 C.ar  127  TYR127     -0.0009
    111  CD2       31.8560   66.7180   16.2960 C.ar  127  TYR127     -0.0009
    112  CE1       31.6090   64.3030   17.7010 C.ar  127  TYR127      0.0417
    113  CE2       32.0140   65.4620   15.5990 C.ar  127  TYR127      0.0417
    114  CZ        31.8460   64.2890   16.3090 C.ar  127  TYR127      0.1957
    115  OH        31.9930   63.0870   15.6290 O.3   127  TYR127     -0.2866
    116  N         34.5670   68.9300   17.6470 N.am  128  THR128     -0.1953
    117  CA        35.8220   68.7470   16.9340 C.3   128  THR128      0.1897
    118  C         36.9410   68.5580   17.9670 C.2   128  THR128      0.2313
    119  O         37.8020   67.7130   17.7810 O.2   128  THR128     -0.2863
    120  CB        36.0680   70.0370   16.1280 C.3   128  THR128      0.1794
    121  OG1       35.0370   70.2180   15.1590 O.3   128  THR128     -0.2208
    122  CG2       37.3540   70.0120   15.4350 C.3   128  THR128      0.0378
    123  N         36.9810   65.0280   19.3290 N.3   131  VAL131     -0.1245
    124  CA        37.5760   64.0720   18.3840 C.3   131  VAL131      0.1561
    125  C         39.0780   64.1560   18.3120 C.2   131  VAL131      0.2260
    126  O         39.7820   63.1650   18.3170 O.2   131  VAL131     -0.2867
    127  CB        36.9390   64.2810   16.9930 C.3   131  VAL131      0.0252
    128  CG1       37.5670   63.2770   15.9940 C.3   131  VAL131      0.0019
    129  CG2       35.3860   64.0110   17.0960 C.3   131  VAL131      0.0019
    130  N         41.7290   61.2590   19.1870 N.3   135  GLU135     -0.1245
    131  CA        42.7610   60.8890   18.2630 C.3   135  GLU135      0.1567
    132  C         44.1230   60.9590   18.9200 C.2   135  GLU135      0.2260
    133  O         45.0140   60.0790   18.6650 O.2   135  GLU135     -0.2867
    134  CB        42.6990   61.7540   16.9350 C.3   135  GLU135      0.0388
    135  CG        41.5050   61.4960   16.0400 C.3   135  GLU135      0.1160
    136  CD        41.6890   60.1810   15.3250 C.2   135  GLU135      0.3649
    137  OE1       42.2520   60.1700   14.2250 O.co2 135  GLU135     -0.2457
    138  OE2       41.3530   59.0760   15.9300 O.co2 135  GLU135     -0.2457
    139  N         44.4800   57.8710   21.3600 N.3   138  ARG138     -0.1245
    140  CA        44.6980   56.6350   20.5700 C.3   138  ARG138      0.1563
    141  C         46.0910   56.5910   20.0230 C.2   138  ARG138      0.2260
    142  O         46.4550   55.5580   19.4680 O.2   138  ARG138     -0.2867
    143  CB        43.7360   56.5440   19.3560 C.3   138  ARG138      0.0307
    144  CG        42.3290   56.7250   19.8100 C.3   138  ARG138      0.0489
    145  CD        41.2840   56.3810   18.7130 C.3   138  ARG138      0.2205
    146  NE        40.0060   56.9940   19.0890 N.pl3 138  ARG138     -0.0865
    147  CZ        38.8070   56.5540   18.7240 C.cat 138  ARG138      0.5346
    148  NH1       38.6910   55.4710   17.9650 N.pl3 138  ARG138      0.1354
    149  NH2       37.7210   57.2090   19.1150 N.pl3 138  ARG138      0.1354
    150  N         37.3330   75.4960   12.5830 N.3   155  ASN155     -0.1240
    151  CA        35.9290   75.6690   12.3180 C.3   155  ASN155      0.1653
    152  C         35.6580   77.0360   11.7650 C.2   155  ASN155      0.2266
    153  O         34.7810   77.2650   10.9230 O.2   155  ASN155     -0.2867
    154  CB        35.1000   75.4010   13.6230 C.3   155  ASN155      0.1155
    155  CG        34.7120   73.9920   13.7710 C.2   155  ASN155      0.2627
    156  OD1       33.5930   73.6460   13.4690 O.2   155  ASN155     -0.2716
    157  ND2       35.5400   73.1960   14.3080 N.am  155  ASN155     -0.0877
    158  N         36.5190   77.0430    8.2530 N.3   158  ASN158     -0.1240
    159  CA        35.5070   76.4610    7.3990 C.3   158  ASN158      0.1653
    160  C         34.3630   77.4130    7.1870 C.2   158  ASN158      0.2266
    161  O         33.8060   77.5030    6.0400 O.2   158  ASN158     -0.2867
    162  CB        34.9180   75.2380    8.0380 C.3   158  ASN158      0.1155
    163  CG        35.7810   74.0260    7.8570 C.2   158  ASN158      0.2627
    164  OD1       36.9630   74.1200    7.5120 O.2   158  ASN158     -0.2716
    165  ND2       35.2180   72.8360    8.2510 N.am  158  ASN158     -0.0877
    166  N         42.6870   70.4860    7.4550 N.3   186  TRP186     -0.1241
    167  CA        42.3310   69.8060    8.6980 C.3   186  TRP186      0.1605
    168  C         43.2650   68.6280    8.9530 C.2   186  TRP186      0.2264
    169  O         43.7930   68.5190   10.1000 O.2   186  TRP186     -0.2867
    170  CB        40.9130   69.2350    8.6200 C.3   186  TRP186      0.0550
    171  CG        39.9010   70.3020    8.9300 C.ar  186  TRP186      0.0003
    172  CD1       39.6520   71.5300    8.2490 C.ar  186  TRP186      0.0946
    173  CD2       38.8920   70.2320    9.9700 C.ar  186  TRP186      0.0152
    174  NE1       38.5530   72.1830    8.8570 N.ar  186  TRP186     -0.2442
    175  CE2       38.0830   71.4530    9.9080 C.ar  186  TRP186      0.0810
    176  CE3       38.6180   69.3300   10.9510 C.ar  186  TRP186      0.0012
    177  CZ2       37.0740   71.7110   10.8040 C.ar  186  TRP186      0.0191
    178  CZ3       37.5520   69.5580   11.7960 C.ar  186  TRP186      0.0001
    179  CH2       36.8450   70.7610   11.7990 C.ar  186  TRP186      0.0015
    180  N         47.1790   66.0920   12.2590 N.3   191  TYR191     -0.1241
    181  CA        48.0670   64.9120   12.3680 C.3   191  TYR191      0.1605
    182  C         49.4610   65.3070   12.1620 C.2   191  TYR191      0.2264
    183  O         50.3640   64.4500   12.4160 O.2   191  TYR191     -0.2867
    184  CB        47.6660   63.8330   11.3410 C.3   191  TYR191      0.0534
    185  CG        46.2900   63.2910   11.6410 C.ar  191  TYR191     -0.0201
    186  CD1       45.1560   63.8260   11.0160 C.ar  191  TYR191     -0.0009
    187  CD2       46.0520   62.4160   12.7170 C.ar  191  TYR191     -0.0009
    188  CE1       43.8290   63.3830   11.2850 C.ar  191  TYR191      0.0417
    189  CE2       44.8010   61.9630   12.9600 C.ar  191  TYR191      0.0417
    190  CZ        43.6450   62.4370   12.2570 C.ar  191  TYR191      0.1957
    191  OH        42.3940   62.0510   12.5970 O.3   191  TYR191     -0.2866
@<TRIPOS>BOND
     1    82    81    2
     2    81    80    1
     3    77    75    1
     4    74    73    2
     5    73    72    1
     6   161   160    2
     7    75    72    1
     8    75    76    1
     9    80    79    1
    10    80    83    1
    11    33    30    1
    12    45    46    1
    13    72    71    1
    14    78    76    1
    15    55    56    2
    16    55    54    1
    17   160   159    1
    18    83    84    1
    19    71    69   am
    20    67    68    1
    21   159   162    1
    22   159   158    1
    23   166   167    1
    24   164   163    2
    25    46    47    1
    26    46    49    1
    27    30    31    1
    28    30    29    1
    29    36    37    2
    30    36    35    1
    31    69    70    2
    32    69    68    1
    33    53    47   am
    34    53    54    1
    35   163   162    1
    36   163   165   am
    37    47    48    2
    38    31    32    2
    39    34    35    1
    40    54    57    1
    41   172   174   ar
    42   172   171   ar
    43    57    58    1
    44    50    49    1
    45    50    51    1
    46   170   167    1
    47   170   171    1
    48    84    85   ar
    49    84    86   ar
    50    35    38    1
    51   167   168    1
    52   174   175   ar
    53    29    24   am
    54    16    14    1
    55   171   173   ar
    56   168   169    2
    57    15    14    1
    58    85    87   ar
    59    14    13    1
    60    86    88   ar
    61    38    39    1
    62    58    59   ar
    63    58    60   ar
    64    51    52    1
    65   175   173   ar
    66   175   177   ar
    67    24    25    2
    68    24    23    1
    69    59    61   ar
    70   173   176   ar
    71    87    89   ar
    72    13    10    1
    73    88    89   ar
    74   177   179   ar
    75    39    40    1
    76    60    63   ar
    77    60    62   ar
    78   153   152    2
    79   176   178   ar
    80   186   188   ar
    81   186   185   ar
    82    23    22    1
    83    23    26    1
    84    10     9    1
    85    10    11    1
    86    61    62   ar
    87   188   190   ar
    88    63    65   ar
    89   184   185    1
    90   184   181    1
    91     1     2    1
    92   185   187   ar
    93    40    41    1
    94   152   151    1
    95   178   179   ar
    96    62    64   ar
    97    22    28    1
    98     7     6    1
    99     2     5    1
   100     2     3    1
   101   182   181    1
   102   182   183    2
   103   190   191    1
   104   190   189   ar
   105    26    27    1
   106   180   181    1
   107   151   150    1
   108   151   154    1
   109    12    11    2
   110    11    17   am
   111     5     6    1
   112    43    42    1
   113    65    66   ar
   114   103   102   ar
   115   103   101   ar
   116   187   189   ar
   117   102   100   ar
   118    41    42    2
   119     6     8    1
   120     3     4    2
   121    64    66   ar
   122    27    28    1
   123   101    99   ar
   124    42    44    1
   125   156   155    2
   126   100    97   ar
   127    17    18    1
   128   154   155    1
   129   155   157   am
   130    99    97   ar
   131    99    98   ar
   132    97    95   ar
   133   137   136   ar
   134    18    19    1
   135    18    21    1
   136    98    96   ar
   137    95    94    1
   138    95    96   ar
   139   121   120    1
   140    19    20    2
   141   136   138   ar
   142   136   135    1
   143    94    91    1
   144   122   120    1
   145   113   111   ar
   146   113   114   ar
   147   115   114    1
   148   128   127    1
   149   135   134    1
   150   120   117    1
   151   111   109   ar
   152   114   112   ar
   153    91    92    1
   154    91    90    1
   155    93    92    2
   156   117   116    1
   157   117   118    1
   158   134   131    1
   159   127   129    1
   160   127   124    1
   161   109   110   ar
   162   109   108    1
   163   116   106   am
   164   112   110   ar
   165   119   118    2
   166   148   147    1
   167   131   132    1
   168   131   130    1
   169   125   126    2
   170   125   124    1
   171   108   105    1
   172   124   123    1
   173   106   107    2
   174   106   105    1
   175   133   132    2
   176   145   146    1
   177   145   144    1
   178   147   146    2
   179   147   149    1
   180   105   104    1
   181   143   144    1
   182   143   140    1
   183   142   141    2
   184   141   140    1
   185   140   139    1
