@<TRIPOS>MOLECULE
tmp/3q10B00.pdb
 172 167 0 0 0
SMALL
GASTEIGER

@<TRIPOS>ATOM
      1  N         33.0290   47.8200   68.5210 N.3    29  PRO29      -0.2102
      2  CA        33.3040   47.8410   67.0890 C.3    29  PRO29       0.1504
      3  C         33.6290   49.2200   66.5300 C.2    29  PRO29       0.2576
      4  O         32.9760   50.2010   66.9090 O.2    29  PRO29      -0.2718
      5  CB        31.9840   47.2970   66.4970 C.3    29  PRO29       0.0282
      6  CG        31.3300   46.5630   67.6000 C.3    29  PRO29       0.0208
      7  CD        31.6220   47.4720   68.7590 C.3    29  PRO29       0.0893
      8  N         34.6360   49.3080   65.6460 N.am   30  THR30      -0.1939
      9  CA        35.0200   50.5590   64.9980 C.3    30  THR30       0.2028
     10  C         35.4510   50.3340   63.5660 C.2    30  THR30       0.2642
     11  O         35.7720   49.2220   63.1550 O.2    30  THR30      -0.2714
     12  CB        36.1890   51.3050   65.7040 C.3    30  THR30       0.1808
     13  OG1       37.4760   50.7640   65.3220 O.3    30  THR30      -0.2208
     14  CG2       36.0350   51.2570   67.2490 C.3    30  THR30       0.0379
     15  N         35.4860   51.4120   62.8200 N.am   31  MET31      -0.1962
     16  CA        36.0740   51.3520   61.4960 C.3    31  MET31       0.1736
     17  C         37.4410   52.0520   61.4650 C.2    31  MET31       0.2617
     18  O         37.9230   52.4570   60.4200 O.2    31  MET31      -0.2715
     19  CB        35.0860   51.9160   60.5100 C.3    31  MET31       0.0427
     20  CG        33.7400   51.1720   60.4860 C.3    31  MET31       0.0599
     21  SD        32.9700   51.3850   58.8640 S.3    31  MET31      -0.1393
     22  CE        32.5710   53.1290   58.9530 C.3    31  MET31       0.0692
     23  N         38.1090   52.1430   62.6020 N.am   32  GLY32      -0.1955
     24  CA        39.4940   52.6770   62.6260 C.3    32  GLY32       0.1869
     25  C         39.5770   54.1910   62.5930 C.2    32  GLY32       0.2309
     26  O         38.5660   54.8980   62.7130 O.2    32  GLY32      -0.2863
     27  N         39.8530   58.2420   67.4440 N.3    35  HIS35      -0.1241
     28  CA        39.9800   59.5160   68.1350 C.3    35  HIS35       0.1621
     29  C         39.5300   59.3700   69.5990 C.2    35  HIS35       0.2264
     30  O         39.2260   58.2630   70.0630 O.2    35  HIS35      -0.2867
     31  CB        39.1560   60.5940   67.3890 C.3    35  HIS35       0.0745
     32  CG        37.7520   60.1680   67.0740 C.ar   35  HIS35       0.0817
     33  ND1       36.8040   59.9620   68.0500 N.ar   35  HIS35      -0.2268
     34  CD2       37.1350   59.9220   65.8960 C.ar   35  HIS35       0.1154
     35  CE1       35.6690   59.5820   67.4920 C.ar   35  HIS35       0.1986
     36  NE2       35.8380   59.5570   66.1830 N.ar   35  HIS35      -0.2212
     37  N         36.8520   60.0020   71.1100 N.3    37  GLY37      -0.1210
     38  CA        35.5250   59.4170   71.3070 C.3    37  GLY37       0.1956
     39  C         35.6140   57.8960   71.4330 C.2    37  GLY37       0.2611
     40  O         34.9940   57.2770   72.3160 O.2    37  GLY37      -0.2717
     41  N         36.3900   57.3030   70.5310 N.am   38  HIS38      -0.1975
     42  CA        36.6070   55.8640   70.5380 C.3    38  HIS38       0.1656
     43  C         37.2910   55.4430   71.8280 C.2    38  HIS38       0.2291
     44  O         36.8890   54.4380   72.4390 O.2    38  HIS38      -0.2864
     45  CB        37.4730   55.4120   69.3720 C.3    38  HIS38       0.0771
     46  CG        36.9020   55.6900   68.0150 C.ar   38  HIS38       0.0820
     47  ND1       37.4600   56.6240   67.1640 N.ar   38  HIS38      -0.2267
     48  CD2       35.8790   55.1230   67.3260 C.ar   38  HIS38       0.1154
     49  CE1       36.7940   56.6390   66.0250 C.ar   38  HIS38       0.1986
     50  NE2       35.8320   55.7360   66.0940 N.ar   38  HIS38      -0.2212
     51  N         34.8650   54.9400   74.6180 N.3    41  LEU41      -0.1245
     52  CA        34.1460   53.6600   74.5280 C.3    41  LEU41       0.1561
     53  C         34.9510   52.5370   75.1320 C.2    41  LEU41       0.2260
     54  O         34.3860   51.6770   75.8450 O.2    41  LEU41      -0.2867
     55  CB        33.7050   53.3140   73.1010 C.3    41  LEU41       0.0270
     56  CG        32.3140   53.8370   72.5970 C.3    41  LEU41       0.0019
     57  CD1       32.1380   55.3090   72.5480 C.3    41  LEU41       0.0001
     58  CD2       32.0680   53.2490   71.1840 C.3    41  LEU41       0.0001
     59  N         28.5470   48.8690   54.3950 N.3    62  GLN62      -0.1245
     60  CA        27.7650   49.9530   54.9730 C.3    62  GLN62       0.1566
     61  C         28.0180   51.3030   54.3610 C.2    62  GLN62       0.2260
     62  O         27.4380   52.3070   54.8320 O.2    62  GLN62      -0.2867
     63  CB        27.9080   50.0230   56.4980 C.3    62  GLN62       0.0367
     64  CG        29.2490   50.5880   57.0220 C.3    62  GLN62       0.0905
     65  CD        29.3780   50.4560   58.5470 C.2    62  GLN62       0.2608
     66  OE1       29.5090   49.3510   59.0730 O.2    62  GLN62      -0.2717
     67  NE2       29.3540   51.5820   59.2480 N.am   62  GLN62      -0.0878
     68  N         37.9980   57.0580   53.0520 N.3    72  TYR72      -0.1241
     69  CA        37.9060   56.8050   54.4800 C.3    72  TYR72       0.1605
     70  C         39.3290   56.6100   55.0320 C.2    72  TYR72       0.2264
     71  O         40.1140   55.8370   54.4970 O.2    72  TYR72      -0.2867
     72  CB        36.9870   55.6090   54.8060 C.3    72  TYR72       0.0534
     73  CG        36.4730   55.6970   56.2330 C.ar   72  TYR72      -0.0201
     74  CD1       35.3500   56.4700   56.5400 C.ar   72  TYR72      -0.0009
     75  CD2       37.1380   55.0800   57.2710 C.ar   72  TYR72      -0.0009
     76  CE1       34.8770   56.5890   57.8470 C.ar   72  TYR72       0.0417
     77  CE2       36.6840   55.1940   58.5980 C.ar   72  TYR72       0.0417
     78  CZ        35.5540   55.9550   58.8760 C.ar   72  TYR72       0.1957
     79  OH        35.0780   56.0780   60.1690 O.3    72  TYR72      -0.2866
     80  N         28.6360   51.0920   72.0560 N.3   149  PHE149     -0.1227
     81  CA        28.4630   51.9710   70.9130 C.3   149  PHE149      0.1736
     82  C         28.2260   53.4240   71.3930 C.2   149  PHE149      0.2596
     83  O         27.8190   53.6540   72.5320 O.2   149  PHE149     -0.2718
     84  CB        27.2570   51.5120   70.0960 C.3   149  PHE149      0.0547
     85  CG        27.3770   50.1070   69.5900 C.ar  149  PHE149     -0.0202
     86  CD1       27.8420   49.8750   68.3280 C.ar  149  PHE149     -0.0042
     87  CD2       26.9930   49.0410   70.3570 C.ar  149  PHE149     -0.0042
     88  CE1       27.9940   48.6080   67.8460 C.ar  149  PHE149     -0.0003
     89  CE2       27.1300   47.7440   69.8720 C.ar  149  PHE149     -0.0003
     90  CZ        27.6310   47.5490   68.6060 C.ar  149  PHE149     -0.0000
     91  N         28.5090   54.3740   70.5110 N.am  150  GLY150     -0.1957
     92  CA        28.3850   55.7860   70.8520 C.3   150  GLY150      0.1869
     93  C         26.9990   56.2930   70.5330 C.2   150  GLY150      0.2309
     94  O         26.3830   55.8730   69.5430 O.2   150  GLY150     -0.2863
     95  N         26.6040   59.1800   69.4650 N.3   152  LYS152     -0.1231
     96  CA        26.8530   59.9260   68.2120 C.3   152  LYS152      0.1693
     97  C         26.0510   59.3170   67.0530 C.2   152  LYS152      0.2592
     98  O         25.4360   60.0310   66.2540 O.2   152  LYS152     -0.2718
     99  CB        28.3560   59.8850   67.8900 C.3   152  LYS152      0.0285
    100  CG        28.8130   60.3670   66.4910 C.3   152  LYS152      0.0035
    101  CD        29.2570   61.8010   66.5260 C.3   152  LYS152      0.0206
    102  CE        29.6250   62.3070   65.1360 C.3   152  LYS152      0.1093
    103  NZ        28.6560   61.9300   64.0960 N.3   152  LYS152     -0.1314
    104  N         26.0450   57.9870   66.9870 N.am  153  ASP153     -0.1974
    105  CA        25.2340   57.2770   66.0190 C.3   153  ASP153      0.1709
    106  C         23.9910   56.7480   66.7160 C.2   153  ASP153      0.2293
    107  O         23.8660   55.5750   67.0070 O.2   153  ASP153     -0.2864
    108  CB        26.0670   56.1850   65.3760 C.3   153  ASP153      0.1436
    109  CG        27.2640   56.7460   64.6410 C.2   153  ASP153      0.3671
    110  OD1       27.0760   57.3420   63.5420 O.co2 153  ASP153     -0.2456
    111  OD2       28.3980   56.5540   65.1240 O.co2 153  ASP153     -0.2456
    112  N         21.7160   54.0760   64.9360 N.3   156  GLN156     -0.1245
    113  CA        22.4990   52.8420   64.9580 C.3   156  GLN156      0.1566
    114  C         22.3530   52.1020   66.2850 C.2   156  GLN156      0.2260
    115  O         22.1370   50.8950   66.2850 O.2   156  GLN156     -0.2867
    116  CB        23.9810   53.1360   64.6840 C.3   156  GLN156      0.0367
    117  CG        24.9390   51.9410   64.9130 C.3   156  GLN156      0.0905
    118  CD        26.3050   52.1860   64.3210 C.2   156  GLN156      0.2608
    119  OE1       26.4670   52.1450   63.1070 O.2   156  GLN156     -0.2717
    120  NE2       27.2860   52.5210   65.1680 N.am  156  GLN156     -0.0878
    121  N         28.0160   58.4330   75.8420 N.3   177  PRO177     -0.2102
    122  CA        27.7420   59.7830   75.2880 C.3   177  PRO177      0.1504
    123  C         28.8300   60.3200   74.3550 C.2   177  PRO177      0.2576
    124  O         30.0100   59.9510   74.4580 O.2   177  PRO177     -0.2718
    125  CB        27.6090   60.6690   76.5500 C.3   177  PRO177      0.0282
    126  CG        27.2850   59.7280   77.6460 C.3   177  PRO177      0.0208
    127  CD        28.0280   58.4390   77.3200 C.3   177  PRO177      0.0893
    128  N         28.4160   61.1930   73.4490 N.am  178  THR178     -0.1939
    129  CA        29.2600   61.7570   72.4080 C.3   178  THR178      0.2028
    130  C         30.3800   62.6210   72.9850 C.2   178  THR178      0.2642
    131  O         30.1560   63.3900   73.8930 O.2   178  THR178     -0.2714
    132  CB        28.3770   62.5580   71.4260 C.3   178  THR178      0.1808
    133  OG1       27.4250   61.6510   70.8550 O.3   178  THR178     -0.2208
    134  CG2       29.1690   63.1850   70.3290 C.3   178  THR178      0.0379
    135  N         31.5760   62.4500   72.4640 N.am  179  VAL179     -0.1977
    136  CA        32.7320   63.2510   72.8640 C.3   179  VAL179      0.1596
    137  C         32.9260   64.3030   71.7830 C.2   179  VAL179      0.2287
    138  O         32.8030   64.0170   70.5690 O.2   179  VAL179     -0.2864
    139  CB        33.9820   62.3820   73.0450 C.3   179  VAL179      0.0276
    140  CG1       35.2210   63.2290   73.4650 C.3   179  VAL179      0.0022
    141  CG2       33.7220   61.2950   74.1110 C.3   179  VAL179      0.0022
    142  N         33.3290   64.6860   67.6950 N.3   187  LEU187     -0.1231
    143  CA        34.4890   64.0530   67.1130 C.3   187  LEU187      0.1693
    144  C         34.0700   63.0090   66.0980 C.2   187  LEU187      0.2593
    145  O         33.1030   62.2700   66.3010 O.2   187  LEU187     -0.2718
    146  CB        35.3980   63.4430   68.1910 C.3   187  LEU187      0.0284
    147  CG        36.0230   64.4040   69.2070 C.3   187  LEU187      0.0019
    148  CD1       36.9300   63.6530   70.1690 C.3   187  LEU187      0.0001
    149  CD2       36.8050   65.6090   68.5160 C.3   187  LEU187      0.0001
    150  N         34.7990   62.9540   64.9910 N.am  188  SER188     -0.1938
    151  CA        34.4940   62.0080   63.9360 C.3   188  SER188      0.2055
    152  C         35.6910   61.8540   63.0320 C.2   188  SER188      0.2644
    153  O         36.4120   62.8240   62.7200 O.2   188  SER188     -0.2714
    154  CB        33.2700   62.4940   63.1250 C.3   188  SER188      0.2130
    155  OG        32.9850   61.6490   62.0240 O.3   188  SER188     -0.2179
    156  N         35.8950   60.6250   62.5800 N.am  189  SER189     -0.1935
    157  CA        36.9230   60.3530   61.5880 C.3   189  SER189      0.2055
    158  C         36.6610   61.1420   60.2960 C.2   189  SER189      0.2642
    159  O         37.5940   61.5770   59.6400 O.2   189  SER189     -0.2714
    160  CB        36.9860   58.8510   61.3450 C.3   189  SER189      0.2130
    161  OG        37.2780   58.1800   62.5940 O.3   189  SER189     -0.2179
    162  N         35.3960   61.3770   59.9750 N.am  190  ARG190     -0.1977
    163  CA        35.0660   62.1850   58.7990 C.3   190  ARG190      0.1597
    164  C         35.3660   63.6780   58.9280 C.2   190  ARG190      0.2287
    165  O         35.2290   64.4050   57.9580 O.2   190  ARG190     -0.2864
    166  CB        33.5990   61.9880   58.4080 C.3   190  ARG190      0.0334
    167  CG        33.3130   60.5850   57.8700 C.3   190  ARG190      0.0492
    168  CD        31.9710   60.5240   57.1110 C.3   190  ARG190      0.2205
    169  NE        31.7340   59.2340   56.4460 N.pl3 190  ARG190     -0.0865
    170  CZ        31.3800   58.0990   57.0560 C.cat 190  ARG190      0.5346
    171  NH1       31.2410   58.0380   58.3890 N.pl3 190  ARG190      0.1354
    172  NH2       31.1890   56.9970   56.3320 N.pl3 190  ARG190      0.1354
@<TRIPOS>BOND
     1    68    69    1
     2    61    62    2
     3    61    60    1
     4    59    60    1
     5    69    72    1
     6    69    70    1
     7    71    70    2
     8    72    73    1
     9    60    63    1
    10    73    74   ar
    11    73    75   ar
    12   172   170    1
    13   169   170    2
    14   169   168    1
    15    63    64    1
    16    74    76   ar
    17    64    65    1
    18   170   171    1
    19   168   167    1
    20    75    77   ar
    21    76    78   ar
    22   167   166    1
    23   165   164    2
    24   166   163    1
    25    65    66    2
    26    65    67   am
    27    77    78   ar
    28   163   164    1
    29   163   162    1
    30    21    22    1
    31    21    20    1
    32    78    79    1
    33   159   158    2
    34   162   158   am
    35   158   157    1
    36    18    17    2
    37    20    19    1
    38    19    16    1
    39   160   157    1
    40   160   161    1
    41    17    16    1
    42    17    23   am
    43    16    15    1
    44   157   156    1
    45   155   154    1
    46   156   152   am
    47    25    24    1
    48    25    26    2
    49    23    24    1
    50   153   152    2
    51    15    10   am
    52   152   151    1
    53   119   118    2
    54   154   151    1
    55    11    10    2
    56   110   109   ar
    57    10     9    1
    58   151   150    1
    59   103   102    1
    60   118   117    1
    61   118   120   am
    62   109   111   ar
    63   109   108    1
    64   116   117    1
    65   116   113    1
    66   112   113    1
    67   113   114    1
    68   150   144   am
    69     9     8    1
    70     9    12    1
    71   102   101    1
    72    13    12    1
    73   108   105    1
    74     8     3   am
    75    12    14    1
    76    34    36   ar
    77    34    32   ar
    78   105   106    1
    79   105   104    1
    80    49    50   ar
    81    49    47   ar
    82    50    48   ar
    83   144   145    2
    84   144   143    1
    85    36    35   ar
    86    98    97    2
    87   115   114    2
    88   100   101    1
    89   100    99    1
    90     5     2    1
    91     5     6    1
    92     3     4    2
    93     3     2    1
    94   106   107    2
    95   104    97   am
    96    97    96    1
    97    32    31    1
    98    32    33   ar
    99     2     1    1
   100   143   142    1
   101   143   146    1
   102    47    46   ar
   103    48    46   ar
   104    31    28    1
   105    27    28    1
   106    35    33   ar
   107     6     7    1
   108    88    86   ar
   109    88    90   ar
   110    99    96    1
   111    46    45    1
   112    28    29    1
   113   146   147    1
   114    96    95    1
   115    86    85   ar
   116   149   147    1
   117     1     7    1
   118    90    89   ar
   119   147   148    1
   120    45    42    1
   121    94    93    2
   122    85    84    1
   123    85    87   ar
   124    29    30    2
   125    89    87   ar
   126    84    81    1
   127   134   132    1
   128    91    92    1
   129    91    82   am
   130    41    42    1
   131    41    39   am
   132    93    92    1
   133    42    43    1
   134   138   137    2
   135   133   132    1
   136    81    82    1
   137    81    80    1
   138    37    38    1
   139    58    56    1
   140    38    39    1
   141    82    83    2
   142   132   129    1
   143    39    40    2
   144   137   136    1
   145    43    44    2
   146   129   130    1
   147   129   128    1
   148   135   136    1
   149   135   130   am
   150    57    56    1
   151    56    55    1
   152   136   139    1
   153   130   131    2
   154   139   140    1
   155   139   141    1
   156    55    52    1
   157   128   123   am
   158   123   124    2
   159   123   122    1
   160    52    51    1
   161    52    53    1
   162    53    54    2
   163   122   121    1
   164   122   125    1
   165   121   127    1
   166   125   126    1
   167   127   126    1
