@<TRIPOS>MOLECULE
tmp/3q11B01.pdb
 130 121 0 0 0
SMALL
GASTEIGER

@<TRIPOS>ATOM
      1  N         29.0090  -16.4640  -24.2120 N.3    93  ASN93      -0.1225
      2  CA        28.0680  -16.0460  -23.1820 C.3    93  ASN93       0.1785
      3  C         28.4000  -16.6740  -21.8250 C.2    93  ASN93       0.2598
      4  O         27.5780  -17.3570  -21.2080 O.2    93  ASN93      -0.2718
      5  CB        26.6280  -16.3560  -23.5960 C.3    93  ASN93       0.1169
      6  CG        25.6110  -15.8530  -22.5880 C.2    93  ASN93       0.2627
      7  OD1       24.7180  -16.5920  -22.1740 O.2    93  ASN93      -0.2716
      8  ND2       25.7580  -14.6000  -22.1680 N.am   93  ASN93      -0.0877
      9  N         29.6350  -16.4740  -21.3870 N.am   94  THR94      -0.1939
     10  CA        30.0260  -16.7980  -20.0230 C.3    94  THR94       0.2028
     11  C         30.8160  -15.6090  -19.4980 C.2    94  THR94       0.2642
     12  O         31.1760  -14.7100  -20.2650 O.2    94  THR94      -0.2714
     13  CB        30.8900  -18.0860  -19.9270 C.3    94  THR94       0.1808
     14  OG1       32.2050  -17.8260  -20.4230 O.3    94  THR94      -0.2208
     15  CG2       30.2660  -19.2470  -20.6950 C.3    94  THR94       0.0379
     16  N         31.0880  -15.6110  -18.1960 N.am   95  SER95      -0.1949
     17  CA        31.8750  -14.5510  -17.5740 C.3    95  SER95       0.1924
     18  C         33.3830  -14.7630  -17.7290 C.2    95  SER95       0.2314
     19  O         34.1710  -13.8690  -17.4100 O.2    95  SER95      -0.2863
     20  CB        31.5080  -14.4090  -16.0940 C.3    95  SER95       0.2116
     21  OG        31.7470  -15.6170  -15.3980 O.3    95  SER95      -0.2180
     22  N         35.5110  -12.3180  -19.9920 N.3    98  ARG98      -0.1245
     23  CA        34.9900  -10.9420  -19.9590 C.3    98  ARG98       0.1563
     24  C         35.9860   -9.8660  -19.5200 C.2    98  ARG98       0.2260
     25  O         35.9100   -8.7280  -19.9880 O.2    98  ARG98      -0.2867
     26  CB        33.7310  -10.8560  -19.0960 C.3    98  ARG98       0.0307
     27  CG        32.5210  -11.5040  -19.7150 C.3    98  ARG98       0.0489
     28  CD        31.2840  -11.2510  -18.8750 C.3    98  ARG98       0.2205
     29  NE        30.1430  -12.0110  -19.3760 N.pl3  98  ARG98      -0.0865
     30  CZ        29.1330  -12.4350  -18.6270 C.cat  98  ARG98       0.5346
     31  NH1       29.1060  -12.1800  -17.3190 N.pl3  98  ARG98       0.1354
     32  NH2       28.1520  -13.1240  -19.1860 N.pl3  98  ARG98       0.1354
     33  N         28.2370   -9.6620  -22.3860 N.3   125  PRO125     -0.2102
     34  CA        28.2220   -9.2550  -20.9810 C.3   125  PRO125      0.1504
     35  C         27.1170   -9.9180  -20.1560 C.2   125  PRO125      0.2576
     36  O         26.2270  -10.5750  -20.6990 O.2   125  PRO125     -0.2718
     37  CB        27.9890   -7.7350  -21.0510 C.3   125  PRO125      0.0282
     38  CG        28.1950   -7.3550  -22.4900 C.3   125  PRO125      0.0208
     39  CD        27.8210   -8.5630  -23.2730 C.3   125  PRO125      0.0893
     40  N         27.2070   -9.7440  -18.8430 N.am  126  ASN126     -0.1961
     41  CA        26.2040  -10.2040  -17.8940 C.3   126  ASN126      0.1819
     42  C         24.8220   -9.6390  -18.2430 C.2   126  ASN126      0.2621
     43  O         24.7040   -8.4800  -18.6290 O.2   126  ASN126     -0.2715
     44  CB        26.6420   -9.7990  -16.4830 C.3   126  ASN126      0.1195
     45  CG        25.5210   -9.8510  -15.4770 C.2   126  ASN126      0.2630
     46  OD1       24.8960   -8.8320  -15.1890 O.2   126  ASN126     -0.2716
     47  ND2       25.2620  -11.0350  -14.9260 N.am  126  ASN126     -0.0877
     48  N         23.7900  -10.4680  -18.1100 N.am  127  CYS127     -0.1968
     49  CA        22.4420  -10.1110  -18.5660 C.3   127  CYS127      0.1712
     50  C         21.9240   -8.8110  -17.9550 C.2   127  CYS127      0.2296
     51  O         21.4550   -7.9260  -18.6800 O.2   127  CYS127     -0.2864
     52  CB        21.4620  -11.2570  -18.3010 C.3   127  CYS127      0.0983
     53  SG        21.4650  -11.8050  -16.6000 S.3   127  CYS127     -0.0798
     54  N         15.5150   -9.8240  -10.3630 N.3   154  GLN154     -0.1245
     55  CA        15.9330  -10.7600  -11.4050 C.3   154  GLN154      0.1566
     56  C         15.0890  -12.0170  -11.5190 C.2   154  GLN154      0.2260
     57  O         14.7300  -12.6460  -10.5190 O.2   154  GLN154     -0.2867
     58  CB        17.4330  -11.0820  -11.3030 C.3   154  GLN154      0.0367
     59  CG        18.3130   -9.9490  -11.8510 C.3   154  GLN154      0.0905
     60  CD        19.7980  -10.1430  -11.5870 C.2   154  GLN154      0.2608
     61  OE1       20.4050   -9.3810  -10.8350 O.2   154  GLN154     -0.2717
     62  NE2       20.3910  -11.1670  -12.2040 N.am  154  GLN154     -0.0878
     63  N         17.5030  -16.8180  -15.5140 N.3   158  GLY158     -0.1210
     64  CA        18.9200  -16.4600  -15.5550 C.3   158  GLY158      0.1956
     65  C         19.8130  -17.5200  -14.9330 C.2   158  GLY158      0.2611
     66  O         20.9690  -17.6830  -15.3380 O.2   158  GLY158     -0.2717
     67  N         19.2640  -18.2450  -13.9560 N.am  159  ALA159     -0.1979
     68  CA        19.9620  -19.3430  -13.2870 C.3   159  ALA159      0.1597
     69  C         19.8060  -20.6880  -14.0140 C.2   159  ALA159      0.2287
     70  O         20.3030  -21.7150  -13.5500 O.2   159  ALA159     -0.2864
     71  CB        19.4980  -19.4520  -11.8330 C.3   159  ALA159      0.0319
     72  N         22.6670  -13.4020   -5.8330 N.3   208  ILE208     -0.1231
     73  CA        22.8040  -13.9660   -7.1680 C.3   208  ILE208      0.1692
     74  C         24.2860  -14.2230   -7.3800 C.2   208  ILE208      0.2592
     75  O         25.1180  -13.3390   -7.1390 O.2   208  ILE208     -0.2718
     76  CB        22.1880  -13.0580   -8.2540 C.3   208  ILE208      0.0266
     77  CG1       20.6750  -12.9650   -8.0330 C.3   208  ILE208      0.0019
     78  CG2       22.4660  -13.6330   -9.6430 C.3   208  ILE208      0.0020
     79  CD1       20.0130  -11.8290   -8.7030 C.3   208  ILE208      0.0001
     80  N         24.6050  -15.4500   -7.7910 N.am  209  ASP209     -0.1974
     81  CA        25.9820  -15.9590   -7.8070 C.3   209  ASP209      0.1709
     82  C         26.5180  -16.0330   -6.3660 C.2   209  ASP209      0.2293
     83  O         25.7660  -15.8420   -5.4080 O.2   209  ASP209     -0.2864
     84  CB        26.8890  -15.1040   -8.7110 C.3   209  ASP209      0.1436
     85  CG        27.9910  -15.9160   -9.3860 C.2   209  ASP209      0.3671
     86  OD1       28.5530  -16.8440   -8.7600 O.co2 209  ASP209     -0.2456
     87  OD2       28.3020  -15.6160  -10.5520 O.co2 209  ASP209     -0.2456
     88  N         27.6970  -11.3620   -8.9410 N.3   219  GLU219     -0.1245
     89  CA        26.7100  -10.6850   -9.8060 C.3   219  GLU219      0.1567
     90  C         26.7650   -9.1680   -9.6490 C.2   219  GLU219      0.2260
     91  O         26.7540   -8.4350  -10.6390 O.2   219  GLU219     -0.2867
     92  CB        25.2850  -11.1750   -9.5230 C.3   219  GLU219      0.0388
     93  CG        24.2210  -10.6680  -10.5240 C.3   219  GLU219      0.1160
     94  CD        24.1470  -11.5110  -11.7940 C.2   219  GLU219      0.3649
     95  OE1       24.9230  -12.4840  -11.9110 O.co2 219  GLU219     -0.2457
     96  OE2       23.3000  -11.2150  -12.6670 O.co2 219  GLU219     -0.2457
     97  N         30.0630   -7.9680  -11.0600 N.3   222  LYS222     -0.1245
     98  CA        30.0410   -8.0300  -12.5270 C.3   222  LYS222      0.1561
     99  C         29.4110   -6.7710  -13.1190 C.2   222  LYS222      0.2260
    100  O         29.9510   -6.2000  -14.0660 O.2   222  LYS222     -0.2867
    101  CB        29.3280   -9.2900  -13.0430 C.3   222  LYS222      0.0271
    102  CG        30.1750  -10.5650  -12.9590 C.3   222  LYS222      0.0035
    103  CD        29.6250  -11.6950  -13.8300 C.3   222  LYS222      0.0206
    104  CE        28.4430  -12.4070  -13.1840 C.3   222  LYS222      0.1093
    105  NZ        28.1710  -13.7200  -13.8500 N.3   222  LYS222     -0.1314
    106  N         17.0000  -11.9580   -6.5120 N.3   244  ARG244     -0.1245
    107  CA        16.1240  -12.8740   -7.2230 C.3   244  ARG244      0.1563
    108  C         14.7020  -12.7540   -6.6810 C.2   244  ARG244      0.2260
    109  O         14.4870  -12.7780   -5.4630 O.2   244  ARG244     -0.2867
    110  CB        16.6200  -14.3150   -7.0780 C.3   244  ARG244      0.0307
    111  CG        16.0170  -15.2890   -8.0960 C.3   244  ARG244      0.0489
    112  CD        16.6690  -15.1460   -9.4720 C.3   244  ARG244      0.2205
    113  NE        18.0470  -15.6310   -9.4690 N.pl3 244  ARG244     -0.0865
    114  CZ        18.8770  -15.5680  -10.5070 C.cat 244  ARG244      0.5346
    115  NH1       18.4830  -15.0450  -11.6640 N.pl3 244  ARG244      0.1354
    116  NH2       20.1100  -16.0350  -10.3860 N.pl3 244  ARG244      0.1354
    117  N         14.2300   -9.4200  -16.5360 N.3   251  HIS251     -0.1241
    118  CA        14.8180   -8.7260  -15.4040 C.3   251  HIS251      0.1621
    119  C         14.3110   -7.2900  -15.3340 C.2   251  HIS251      0.2264
    120  O         14.1920   -6.6100  -16.3580 O.2   251  HIS251     -0.2867
    121  CB        16.3440   -8.7060  -15.5240 C.3   251  HIS251      0.0745
    122  CG        16.9860  -10.0430  -15.3320 C.ar  251  HIS251      0.0817
    123  ND1       18.2980  -10.2940  -15.6750 N.ar  251  HIS251     -0.2268
    124  CD2       16.4980  -11.2030  -14.8340 C.ar  251  HIS251      0.1154
    125  CE1       18.5920  -11.5490  -15.3810 C.ar  251  HIS251      0.1986
    126  NE2       17.5160  -12.1210  -14.8710 N.ar  251  HIS251     -0.2212
    127  N         19.4060   -9.9600  -22.8450 N.3   328  GLY328     -0.1225
    128  CA        20.3050  -10.3590  -21.7660 C.3   328  GLY328      0.1811
    129  C         21.3010  -11.4470  -22.1430 C.2   328  GLY328      0.2280
    130  O         22.3340  -11.5810  -21.4940 O.2   328  GLY328     -0.2866
@<TRIPOS>BOND
     1     1     2    1
     2     5     2    1
     3     5     6    1
     4    39    38    1
     5    39    33    1
     6     2     3    1
     7   127   128    1
     8     6     7    2
     9     6     8   am
    10    38    37    1
    11    33    34    1
    12   129   128    1
    13   129   130    2
    14     3     9   am
    15     3     4    2
    16     9    10    1
    17    37    34    1
    18    34    35    1
    19    36    35    2
    20    15    13    1
    21    14    13    1
    22    12    11    2
    23    35    40   am
    24    10    13    1
    25    10    11    1
    26    22    23    1
    27    25    24    2
    28    23    24    1
    29    23    26    1
    30    27    26    1
    31    27    28    1
    32    11    16   am
    33    29    28    1
    34    29    30    2
    35    32    30    1
    36    40    41    1
    37    51    50    2
    38    43    42    2
    39    30    31    1
    40    49    52    1
    41    49    48    1
    42    49    50    1
    43    52    53    1
    44    42    48   am
    45    42    41    1
    46    16    17    1
    47    41    44    1
    48    18    17    1
    49    18    19    2
    50    17    20    1
    51   117   118    1
    52    44    45    1
    53   120   119    2
    54    20    21    1
    55   123   125   ar
    56   123   122   ar
    57    64    63    1
    58    64    65    1
    59   121   118    1
    60   121   122    1
    61    45    46    2
    62    45    47   am
    63   118   119    1
    64   125   126   ar
    65    66    65    2
    66   122   124   ar
    67    65    67   am
    68   126   124   ar
    69   100    99    2
    70    69    70    2
    71    69    68    1
    72    67    68    1
    73   105   104    1
    74   103   104    1
    75   103   102    1
    76    68    71    1
    77    99    98    1
    78   101   102    1
    79   101    98    1
    80    96    94   ar
    81    98    97    1
    82    62    60   am
    83    95    94   ar
    84    59    60    1
    85    59    58    1
    86    94    93    1
    87   115   114    1
    88    60    61    2
    89    56    55    1
    90    56    57    2
    91    55    58    1
    92    55    54    1
    93    91    90    2
    94    87    85   ar
    95    93    92    1
    96   114   116    1
    97   114   113    2
    98    89    90    1
    99    89    92    1
   100    89    88    1
   101    78    76    1
   102   112   113    1
   103   112   111    1
   104    85    86   ar
   105    85    84    1
   106    84    81    1
   107    79    77    1
   108    76    77    1
   109    76    73    1
   110   111   110    1
   111    81    80    1
   112    81    82    1
   113    80    74   am
   114    74    73    1
   115    74    75    2
   116   107   110    1
   117   107   108    1
   118   107   106    1
   119    73    72    1
   120   108   109    2
   121    82    83    2
