@<TRIPOS>MOLECULE
tmp/3q12C00.pdb
 135 127 0 0 0
SMALL
GASTEIGER

@<TRIPOS>ATOM
      1  N         -1.3660    4.1100  -38.4480 N.3    29  PRO29      -0.2102
      2  CA        -1.2190    4.0330  -39.9150 C.3    29  PRO29       0.1504
      3  C         -0.8680    5.4210  -40.4600 C.2    29  PRO29       0.2576
      4  O         -1.4730    6.4030  -40.0700 O.2    29  PRO29      -0.2718
      5  CB        -2.6050    3.5820  -40.3820 C.3    29  PRO29       0.0282
      6  CG        -3.1390    2.8840  -39.2460 C.3    29  PRO29       0.0208
      7  CD        -2.7480    3.7620  -38.0680 C.3    29  PRO29       0.0893
      8  N          0.1700    5.4950  -41.2920 N.am   30  THR30      -0.1939
      9  CA         0.5580    6.7250  -41.9100 C.3    30  THR30       0.2028
     10  C          0.9320    6.5520  -43.3580 C.2    30  THR30       0.2642
     11  O          1.2200    5.4380  -43.8200 O.2    30  THR30      -0.2714
     12  CB         1.7640    7.4500  -41.2240 C.3    30  THR30       0.1808
     13  OG1        2.9910    6.9360  -41.7150 O.3    30  THR30      -0.2208
     14  CG2        1.7240    7.4250  -39.7150 C.3    30  THR30       0.0379
     15  N          0.9870    7.6790  -44.0710 N.am   31  MET31      -0.1976
     16  CA         1.5830    7.6420  -45.3920 C.3    31  MET31       0.1605
     17  C          2.9810    8.2920  -45.4690 C.2    31  MET31       0.2287
     18  O          3.4160    8.7480  -46.5290 O.2    31  MET31      -0.2864
     19  CB         0.6430    8.2180  -46.4450 C.3    31  MET31       0.0413
     20  CG        -0.7230    7.4780  -46.4760 C.3    31  MET31       0.0598
     21  SD        -1.5690    7.6430  -48.0200 S.3    31  MET31      -0.1393
     22  CE        -1.9020    9.4100  -47.8720 C.3    31  MET31       0.0692
     23  N          1.9510   13.5720  -36.4300 N.3    38  HIS38      -0.1241
     24  CA         2.2490   12.1400  -36.3360 C.3    38  HIS38       0.1621
     25  C          2.9390   11.7400  -35.0330 C.2    38  HIS38       0.2264
     26  O          2.6520   10.6520  -34.4860 O.2    38  HIS38      -0.2867
     27  CB         3.0600   11.6960  -37.5160 C.3    38  HIS38       0.0745
     28  CG         2.3880   11.8760  -38.8460 C.ar   38  HIS38       0.0817
     29  ND1        2.8070   12.7980  -39.7880 N.ar   38  HIS38      -0.2268
     30  CD2        1.3200   11.2310  -39.4000 C.ar   38  HIS38       0.1154
     31  CE1        2.0420   12.6890  -40.8680 C.ar   38  HIS38       0.1986
     32  NE2        1.1540   11.7270  -40.6660 N.ar   38  HIS38      -0.2212
     33  N          2.9520    2.3210  -39.4140 N.3    55  THR55      -0.1218
     34  CA         3.0780    1.9050  -40.8340 C.3    55  THR55       0.1862
     35  C          3.3490    3.1770  -41.6430 C.2    55  THR55       0.2287
     36  O          2.8100    4.2570  -41.3310 O.2    55  THR55      -0.2866
     37  CB         1.8380    1.1300  -41.3400 C.3    55  THR55       0.1770
     38  OG1        0.7150    1.9760  -41.3420 O.3    55  THR55      -0.2211
     39  CG2        1.5480   -0.0960  -40.4440 C.3    55  THR55       0.0375
     40  N          3.1790    3.9430  -45.6810 N.3    57  PHE57      -0.1241
     41  CA         2.7800    3.4020  -46.9760 C.3    57  PHE57       0.1605
     42  C          1.9290    4.4260  -47.7320 C.2    57  PHE57       0.2264
     43  O          0.8260    4.7490  -47.3460 O.2    57  PHE57      -0.2867
     44  CB         2.0470    2.0480  -46.8350 C.3    57  PHE57       0.0534
     45  CG         1.6810    1.4380  -48.1560 C.ar   57  PHE57      -0.0203
     46  CD1        2.6520    1.1140  -49.0800 C.ar   57  PHE57      -0.0042
     47  CD2        0.3360    1.1970  -48.5050 C.ar   57  PHE57      -0.0042
     48  CE1        2.2990    0.5380  -50.2840 C.ar   57  PHE57      -0.0003
     49  CE2        0.0090    0.6350  -49.7630 C.ar   57  PHE57      -0.0003
     50  CZ         0.9670    0.2920  -50.6080 C.ar   57  PHE57      -0.0000
     51  N         -0.4050    4.9610  -50.2220 N.3    59  ASN59      -0.1240
     52  CA        -1.3160    3.9250  -50.7190 C.3    59  ASN59       0.1653
     53  C         -1.9370    4.3260  -52.0600 C.2    59  ASN59       0.2266
     54  O         -2.8500    5.1730  -52.1030 O.2    59  ASN59      -0.2867
     55  CB        -2.4370    3.7340  -49.6710 C.3    59  ASN59       0.1155
     56  CG        -3.6020    2.8730  -50.1590 C.2    59  ASN59       0.2627
     57  OD1       -4.7980    3.0980  -49.7230 O.2    59  ASN59      -0.2716
     58  ND2       -3.3300    1.9500  -51.0260 N.am   59  ASN59      -0.0877
     59  N         -5.9450    4.9750  -52.7870 N.3    62  GLN62      -0.1245
     60  CA        -6.7680    6.0480  -52.2710 C.3    62  GLN62       0.1566
     61  C         -6.4650    7.3620  -52.9460 C.2    62  GLN62       0.2260
     62  O         -7.0320    8.4000  -52.5600 O.2    62  GLN62      -0.2867
     63  CB        -6.5960    6.1700  -50.7520 C.3    62  GLN62       0.0367
     64  CG        -5.2530    6.7450  -50.2930 C.3    62  GLN62       0.0905
     65  CD        -5.1530    6.7740  -48.7840 C.2    62  GLN62       0.2608
     66  OE1       -5.1250    7.8730  -48.1230 O.2    62  GLN62      -0.2717
     67  NE2       -5.0770    5.5850  -48.2160 N.am   62  GLN62      -0.0878
     68  N        -11.6880    7.6760  -53.3470 N.3   127  HIS127     -0.1241
     69  CA       -10.6800    7.8190  -52.2960 C.3   127  HIS127      0.1621
     70  C        -10.9620    6.9240  -51.1070 C.2   127  HIS127      0.2264
     71  O        -10.0680    6.2020  -50.6480 O.2   127  HIS127     -0.2867
     72  CB       -10.6230    9.2540  -51.8350 C.3   127  HIS127      0.0745
     73  CG        -9.9270    9.4470  -50.5390 C.ar  127  HIS127      0.0817
     74  ND1       -8.5680    9.2720  -50.3880 N.ar  127  HIS127     -0.2268
     75  CD2      -10.3980    9.8120  -49.3260 C.ar  127  HIS127      0.1154
     76  CE1       -8.2470    9.4900  -49.1210 C.ar  127  HIS127      0.1986
     77  NE2       -9.3320    9.8460  -48.4660 N.ar  127  HIS127     -0.2212
     78  N         -8.9060    3.8110  -48.6420 N.3   131  VAL131     -0.1245
     79  CA        -8.6450    3.9170  -47.2120 C.3   131  VAL131      0.1561
     80  C         -9.1620    2.6750  -46.4710 C.2   131  VAL131      0.2260
     81  O         -8.4370    2.0510  -45.7110 O.2   131  VAL131     -0.2867
     82  CB        -9.2750    5.2030  -46.6380 C.3   131  VAL131      0.0252
     83  CG1       -9.1780    5.2030  -45.1130 C.3   131  VAL131      0.0019
     84  CG2       -8.6550    6.4800  -47.2520 C.3   131  VAL131      0.0019
     85  N         -6.9670   -0.4740  -47.4080 N.3   134  ILE134     -0.1231
     86  CA        -5.6120   -0.5620  -46.7930 C.3   134  ILE134      0.1692
     87  C         -5.7150   -0.7320  -45.2840 C.2   134  ILE134      0.2591
     88  O         -4.9540   -1.4940  -44.6890 O.2   134  ILE134     -0.2718
     89  CB        -4.6860    0.5560  -47.1680 C.3   134  ILE134      0.0266
     90  CG1       -3.2040    0.1870  -46.8850 C.3   134  ILE134      0.0019
     91  CG2       -5.0650    1.9280  -46.5680 C.3   134  ILE134      0.0020
     92  CD1       -2.7190   -1.1750  -47.4450 C.3   134  ILE134      0.0001
     93  N         -6.6290   -0.0120  -44.6880 N.am  135  VAL135     -0.1980
     94  CA        -6.7800   -0.1060  -43.2580 C.3   135  VAL135      0.1595
     95  C         -7.2060   -1.5210  -42.8080 C.2   135  VAL135      0.2287
     96  O         -6.6770   -2.0540  -41.8190 O.2   135  VAL135     -0.2864
     97  CB        -7.6350    1.0240  -42.6840 C.3   135  VAL135      0.0276
     98  CG1       -7.8410    0.8800  -41.1770 C.3   135  VAL135      0.0022
     99  CG2       -6.9560    2.3570  -42.9320 C.3   135  VAL135      0.0022
    100  N         -4.1730   -3.7160  -43.0940 N.3   138  LEU138     -0.1245
    101  CA        -3.2290   -3.5190  -41.9840 C.3   138  LEU138      0.1561
    102  C         -3.7820   -4.1280  -40.7200 C.2   138  LEU138      0.2260
    103  O         -3.0450   -4.7640  -39.8990 O.2   138  LEU138     -0.2867
    104  CB        -2.9310   -2.0380  -41.8280 C.3   138  LEU138      0.0270
    105  CG        -2.2100   -1.3570  -43.0020 C.3   138  LEU138      0.0019
    106  CD1       -2.0670    0.1470  -42.7440 C.3   138  LEU138      0.0001
    107  CD2       -0.7700   -2.0230  -43.2710 C.3   138  LEU138      0.0001
    108  N         -5.7230    7.4710  -35.0470 N.3   149  PHE149     -0.1241
    109  CA        -5.8560    8.2610  -36.2630 C.3   149  PHE149      0.1605
    110  C         -6.0340    9.7380  -35.8530 C.2   149  PHE149      0.2264
    111  O         -6.4940   10.0470  -34.7550 O.2   149  PHE149     -0.2867
    112  CB        -7.0710    7.8030  -37.0770 C.3   149  PHE149      0.0534
    113  CG        -7.0150    6.3790  -37.5030 C.ar  149  PHE149     -0.0203
    114  CD1       -6.4890    6.0330  -38.7400 C.ar  149  PHE149     -0.0042
    115  CD2       -7.5090    5.3820  -36.6990 C.ar  149  PHE149     -0.0042
    116  CE1       -6.3920    4.6910  -39.1240 C.ar  149  PHE149     -0.0003
    117  CE2       -7.4540    4.0570  -37.0900 C.ar  149  PHE149     -0.0003
    118  CZ        -6.9000    3.7180  -38.3120 C.ar  149  PHE149     -0.0000
    119  N         -8.4670   14.3180  -40.3270 N.3   153  ASP153     -0.1239
    120  CA        -9.2020   13.6190  -41.3620 C.3   153  ASP153      0.1674
    121  C        -10.4520   13.0630  -40.6660 C.2   153  ASP153      0.2266
    122  O        -10.5640   11.9000  -40.3260 O.2   153  ASP153     -0.2867
    123  CB        -8.3150   12.5660  -41.9910 C.3   153  ASP153      0.1410
    124  CG        -7.1270   13.2070  -42.7320 C.2   153  ASP153      0.3668
    125  OD1       -7.2890   13.5950  -43.9230 O.co2 153  ASP153     -0.2456
    126  OD2       -6.0530   13.3380  -42.1230 O.co2 153  ASP153     -0.2456
    127  N        -12.6980   10.4700  -42.3560 N.3   156  GLN156     -0.1245
    128  CA       -11.9510    9.2170  -42.4110 C.3   156  GLN156      0.1566
    129  C        -12.1010    8.4610  -41.0940 C.2   156  GLN156      0.2260
    130  O        -12.2530    7.2240  -41.0610 O.2   156  GLN156     -0.2867
    131  CB       -10.4640    9.4910  -42.6780 C.3   156  GLN156      0.0367
    132  CG        -9.5680    8.2790  -42.4470 C.3   156  GLN156      0.0905
    133  CD        -8.1250    8.5190  -42.8240 C.2   156  GLN156      0.2608
    134  OE1       -7.7810    8.3550  -43.9690 O.2   156  GLN156     -0.2717
    135  NE2       -7.2960    8.9950  -41.8610 N.am  156  GLN156     -0.0878
@<TRIPOS>BOND
     1    68    69    1
     2    61    62    2
     3    61    60    1
     4    59    60    1
     5    69    72    1
     6    69    70    1
     7    60    63    1
     8    54    53    2
     9    53    52    1
    10    72    73    1
    11    70    71    2
    12    58    56   am
    13    63    64    1
    14    52    51    1
    15    52    55    1
    16    50    48   ar
    17    50    49   ar
    18    73    74   ar
    19    73    75   ar
    20    74    76   ar
    21    64    65    1
    22    48    46   ar
    23    56    57    2
    24    56    55    1
    25    49    47   ar
    26    75    77   ar
    27    76    77   ar
    28    46    45   ar
    29    65    67   am
    30    65    66    2
    31    78    79    1
    32    47    45   ar
    33    45    44    1
    34    21    22    1
    35    21    20    1
    36    42    43    2
    37    42    41    1
    38    92    90    1
    39    85    86    1
    40    84    82    1
    41    79    82    1
    42    79    80    1
    43    89    90    1
    44    89    86    1
    45    89    91    1
    46    41    44    1
    47    41    40    1
    48    86    87    1
    49    82    83    1
    50    18    17    2
    51    20    19    1
    52    80    81    2
    53    19    16    1
    54    17    16    1
    55    16    15    1
    56    87    88    2
    57    87    93   am
    58    93    94    1
    59    15    10   am
    60   134   133    2
    61   125   124   ar
    62    11    10    2
    63    10     9    1
    64   107   105    1
    65    94    95    1
    66    94    97    1
    67   100   101    1
    68   105   106    1
    69   105   104    1
    70    99    97    1
    71   133   132    1
    72   133   135   am
    73    95    96    2
    74   124   126   ar
    75   124   123    1
    76    97    98    1
    77   131   132    1
    78   131   128    1
    79   128   127    1
    80   128   129    1
    81   123   120    1
    82   101   104    1
    83   101   102    1
    84     9     8    1
    85     9    12    1
    86    13    12    1
    87    35    36    2
    88    35    34    1
    89   120   121    1
    90   120   119    1
    91    38    37    1
    92    37    34    1
    93    37    39    1
    94     8     3   am
    95    12    14    1
    96   129   130    2
    97    31    32   ar
    98    31    29   ar
    99    34    33    1
   100   102   103    2
   101   121   122    2
   102    32    30   ar
   103     3     4    2
   104     3     2    1
   105     5     2    1
   106     5     6    1
   107     2     1    1
   108    29    28   ar
   109    30    28   ar
   110     6     7    1
   111   116   114   ar
   112   116   118   ar
   113    28    27    1
   114   114   113   ar
   115     1     7    1
   116   118   117   ar
   117    27    24    1
   118   113   112    1
   119   113   115   ar
   120   117   115   ar
   121   112   109    1
   122    23    24    1
   123    24    25    1
   124   109   110    1
   125   109   108    1
   126   110   111    2
   127    25    26    2
