@<TRIPOS>MOLECULE
tmp/3q13A00.pdb
 97 89 0 0 0
SMALL
GASTEIGER

@<TRIPOS>ATOM
      1  N         -6.2040   46.2190   31.8540 N.3    21  TYR21      -0.1227
      2  CA        -7.2690   46.8840   32.6080 C.3    21  TYR21       0.1736
      3  C         -7.9240   47.9730   31.7550 C.2    21  TYR21       0.2596
      4  O         -7.3080   49.0010   31.5280 O.2    21  TYR21      -0.2718
      5  CB        -6.6560   47.5540   33.8330 C.3    21  TYR21       0.0548
      6  CG        -6.1180   46.5700   34.8670 C.ar   21  TYR21      -0.0200
      7  CD1       -6.9830   45.9540   35.7880 C.ar   21  TYR21      -0.0009
      8  CD2       -4.7510   46.2280   34.9020 C.ar   21  TYR21      -0.0009
      9  CE1       -6.5000   45.0510   36.7510 C.ar   21  TYR21       0.0417
     10  CE2       -4.2520   45.3080   35.8640 C.ar   21  TYR21       0.0417
     11  CZ        -5.1340   44.7280   36.7730 C.ar   21  TYR21       0.1957
     12  OH        -4.6580   43.8470   37.7170 O.3    21  TYR21      -0.2866
     13  N         -9.1690   47.7820   31.3250 N.am   22  GLY22      -0.1942
     14  CA        -9.8380   48.8240   30.5440 C.3    22  GLY22       0.2014
     15  C        -10.1990   49.9890   31.4900 C.2    22  GLY22       0.2638
     16  O        -10.5260   49.7880   32.6490 O.2    22  GLY22      -0.2714
     17  N        -10.0370   51.2130   31.0090 N.am   23  ASN23      -0.1972
     18  CA       -10.4580   52.4380   31.7320 C.3    23  ASN23       0.1688
     19  C        -11.3360   53.2790   30.8010 C.2    23  ASN23       0.2292
     20  O        -11.2880   54.5160   30.8550 O.2    23  ASN23      -0.2864
     21  CB        -9.2370   53.3320   31.9400 C.3    23  ASN23       0.1181
     22  CG        -8.2450   52.8030   32.9270 C.2    23  ASN23       0.2629
     23  OD1       -7.1760   52.2620   32.5510 O.2    23  ASN23      -0.2716
     24  ND2       -8.5430   52.9840   34.1980 N.am   23  ASN23      -0.0877
     25  N        -15.8660   57.8170   32.2150 N.3    28  THR28      -0.1218
     26  CA       -14.5750   58.4620   32.0320 C.3    28  THR28       0.1862
     27  C        -14.4650   59.1860   30.6660 C.2    28  THR28       0.2287
     28  O        -13.7030   60.1340   30.5410 O.2    28  THR28      -0.2866
     29  CB       -13.4250   57.4190   32.1000 C.3    28  THR28       0.1770
     30  OG1      -13.6610   56.4330   31.1030 O.3    28  THR28      -0.2211
     31  CG2      -13.3210   56.7440   33.4990 C.3    28  THR28       0.0375
     32  N        -13.7430   45.6250   38.9450 N.3   104  LEU104     -0.1245
     33  CA       -12.9750   44.3940   39.1620 C.3   104  LEU104      0.1561
     34  C        -13.6960   43.3580   40.0220 C.2   104  LEU104      0.2260
     35  O        -13.4000   42.1830   39.9020 O.2   104  LEU104     -0.2867
     36  CB       -11.5610   44.6850   39.7470 C.3   104  LEU104      0.0270
     37  CG       -10.5770   45.3960   38.7440 C.3   104  LEU104      0.0019
     38  CD1       -9.3300   45.9080   39.4470 C.3   104  LEU104      0.0001
     39  CD2      -10.1810   44.4170   37.6270 C.3   104  LEU104      0.0001
     40  N          8.5410   44.2120   36.8610 N.3   154  LYS154     -0.1245
     41  CA         7.1590   44.7290   36.6450 C.3   154  LYS154      0.1561
     42  C          7.1850   45.9300   35.7120 C.2   154  LYS154      0.2260
     43  O          8.0840   46.7590   35.8110 O.2   154  LYS154     -0.2867
     44  CB         6.5210   45.1580   37.9930 C.3   154  LYS154      0.0271
     45  CG         4.9710   45.3560   37.9530 C.3   154  LYS154      0.0035
     46  CD         4.4120   45.8010   39.3370 C.3   154  LYS154      0.0206
     47  CE         2.9010   45.7430   39.3770 C.3   154  LYS154      0.1093
     48  NZ         2.3510   46.3160   40.6630 N.3   154  LYS154     -0.1314
     49  N          4.3310   48.8510   34.2770 N.3   156  VAL156     -0.1245
     50  CA         2.9490   49.3620   34.2840 C.3   156  VAL156      0.1561
     51  C          2.8900   50.4570   33.2200 C.2   156  VAL156      0.2260
     52  O          3.7470   51.3540   33.2320 O.2   156  VAL156     -0.2867
     53  CB         2.6030   49.9440   35.6400 C.3   156  VAL156      0.0252
     54  CG1        1.1540   50.5000   35.6420 C.3   156  VAL156      0.0019
     55  CG2        2.7290   48.8140   36.7540 C.3   156  VAL156      0.0019
     56  N          0.1820   53.1120   30.9580 N.3   158  ASP158     -0.1239
     57  CA        -1.1450   53.6080   30.5520 C.3   158  ASP158      0.1674
     58  C         -1.2040   53.8500   29.0610 C.2   158  ASP158      0.2266
     59  O         -0.2130   54.2620   28.4400 O.2   158  ASP158     -0.2867
     60  CB        -1.4580   54.9000   31.3120 C.3   158  ASP158      0.1410
     61  CG        -1.5230   54.6420   32.8360 C.2   158  ASP158      0.3668
     62  OD1       -2.2920   53.7540   33.2530 O.co2 158  ASP158     -0.2456
     63  OD2       -0.7710   55.2480   33.5980 O.co2 158  ASP158     -0.2456
     64  N         -7.4270   61.4460   27.8290 N.3   207  THR207     -0.1203
     65  CA        -7.5580   60.5910   29.0340 C.3   207  THR207      0.1994
     66  C         -7.2880   59.1040   28.7200 C.2   207  THR207      0.2617
     67  O         -7.9130   58.5520   27.8130 O.2   207  THR207     -0.2717
     68  CB        -8.9790   60.7600   29.6190 C.3   207  THR207      0.1784
     69  OG1       -9.1740   62.1530   29.9010 O.3   207  THR207     -0.2211
     70  CG2       -9.1600   59.9100   30.9190 C.3   207  THR207      0.0376
     71  N         -6.3500   58.4700   29.4460 N.am  208  GLN208     -0.1979
     72  CA        -5.9550   57.1040   29.1470 C.3   208  GLN208      0.1601
     73  C         -7.1660   56.1520   29.1140 C.2   208  GLN208      0.2287
     74  O         -8.1390   56.2940   29.8970 O.2   208  GLN208     -0.2864
     75  CB        -4.8420   56.6690   30.1070 C.3   208  GLN208      0.0394
     76  CG        -3.5780   57.5110   29.9180 C.3   208  GLN208      0.0908
     77  CD        -2.9360   57.9520   31.2240 C.2   208  GLN208      0.2608
     78  OE1       -3.5230   57.8050   32.3020 O.2   208  GLN208     -0.2717
     79  NE2       -1.7350   58.5020   31.1340 N.am  208  GLN208     -0.0878
     80  N         -4.8610   50.4540   31.0140 N.3   211  ARG211     -0.1245
     81  CA        -3.5600   50.3260   31.6410 C.3   211  ARG211      0.1563
     82  C         -3.1660   48.8620   31.4890 C.2   211  ARG211      0.2260
     83  O         -3.9750   47.9490   31.7330 O.2   211  ARG211     -0.2867
     84  CB        -3.6720   50.6550   33.1410 C.3   211  ARG211      0.0307
     85  CG        -2.4520   50.2140   33.9400 C.3   211  ARG211      0.0489
     86  CD        -2.6100   50.7020   35.4320 C.3   211  ARG211      0.2205
     87  NE        -2.4590   52.1480   35.4500 N.pl3 211  ARG211     -0.0865
     88  CZ        -2.1780   52.8690   36.5310 C.cat 211  ARG211      0.5346
     89  NH1       -2.0570   54.1830   36.4100 N.pl3 211  ARG211      0.1354
     90  NH2       -2.0300   52.2980   37.7250 N.pl3 211  ARG211      0.1354
     91  N         -0.4740   45.8840   32.8540 N.3   213  VAL213     -0.1245
     92  CA         0.4560   45.4930   33.8900 C.3   213  VAL213      0.1561
     93  C          1.1390   44.2160   33.4570 C.2   213  VAL213      0.2260
     94  O          0.4940   43.2500   33.0780 O.2   213  VAL213     -0.2867
     95  CB        -0.2120   45.3070   35.2610 C.3   213  VAL213      0.0252
     96  CG1        0.8420   44.7730   36.2770 C.3   213  VAL213      0.0019
     97  CG2       -0.7250   46.6790   35.7520 C.3   213  VAL213      0.0019
@<TRIPOS>BOND
     1    67    66    2
     2    64    65    1
     3    59    58    2
     4    66    65    1
     5    66    71   am
     6    65    68    1
     7    58    57    1
     8    73    72    1
     9    73    74    2
    10    72    71    1
    11    72    75    1
    12    68    69    1
    13    68    70    1
    14    76    75    1
    15    76    77    1
    16    28    27    2
    17    14    13    1
    18    14    15    1
    19    57    56    1
    20    57    60    1
    21    27    26    1
    22    19    20    2
    23    19    18    1
    24    17    15   am
    25    17    18    1
    26    80    81    1
    27    30    29    1
    28    79    77   am
    29    77    78    2
    30    60    61    1
    31    13     3   am
    32    82    81    1
    33    82    83    2
    34    15    16    2
    35     4     3    2
    36    81    84    1
    37    18    21    1
    38     3     2    1
    39     1     2    1
    40    21    22    1
    41    26    29    1
    42    26    25    1
    43    29    31    1
    44    23    22    2
    45     2     5    1
    46    61    62   ar
    47    61    63   ar
    48    91    92    1
    49    22    24   am
    50    94    93    2
    51    84    85    1
    52    51    52    2
    53    51    50    1
    54    93    92    1
    55     5     6    1
    56    92    95    1
    57    85    86    1
    58    49    50    1
    59    50    53    1
    60     6     8   ar
    61     6     7   ar
    62     8    10   ar
    63    95    97    1
    64    95    96    1
    65    86    87    1
    66    87    88    2
    67    53    54    1
    68    53    55    1
    69    42    43    2
    70    42    41    1
    71     7     9   ar
    72    10    11   ar
    73    89    88    1
    74    88    90    1
    75    41    40    1
    76    41    44    1
    77     9    11   ar
    78    11    12    1
    79    39    37    1
    80    45    44    1
    81    45    46    1
    82    37    38    1
    83    37    36    1
    84    32    33    1
    85    33    36    1
    86    33    34    1
    87    46    47    1
    88    47    48    1
    89    35    34    2
