@<TRIPOS>MOLECULE
tmp/3q14A00.pdb
 129 121 0 0 0
SMALL
GASTEIGER

@<TRIPOS>ATOM
      1  N         -4.0690  -18.1200   14.8340 N.3    99  ILE99      -0.1245
      2  CA        -5.2300  -17.2620   15.0640 C.3    99  ILE99       0.1561
      3  C         -6.4830  -17.6190   14.2670 C.2    99  ILE99       0.2260
      4  O         -7.5760  -17.6330   14.8190 O.2    99  ILE99      -0.2867
      5  CB        -4.8650  -15.7910   14.7880 C.3    99  ILE99       0.0252
      6  CG1       -3.7890  -15.3150   15.7730 C.3    99  ILE99       0.0019
      7  CG2       -6.1080  -14.8910   14.8420 C.3    99  ILE99       0.0019
      8  CD1       -4.2280  -15.3240   17.2160 C.3    99  ILE99       0.0001
      9  N         -8.8180  -20.3450   15.5480 N.3   102  GLY102     -0.1210
     10  CA        -9.1640  -19.9440   16.9090 C.3   102  GLY102      0.1956
     11  C        -10.2340  -18.8570   16.9450 C.2   102  GLY102      0.2611
     12  O        -11.1120  -18.8640   17.8150 O.2   102  GLY102     -0.2717
     13  N        -10.1600  -17.9100   16.0090 N.am  103  GLU103     -0.1979
     14  CA       -11.2260  -16.9230   15.8470 C.3   103  GLU103      0.1602
     15  C        -12.5360  -17.6450   15.5950 C.2   103  GLU103      0.2287
     16  O        -13.5700  -17.3050   16.1580 O.2   103  GLU103     -0.2864
     17  CB       -10.9490  -15.9910   14.6640 C.3   103  GLU103      0.0415
     18  CG        -9.6920  -15.1700   14.8150 C.3   103  GLU103      0.1163
     19  CD        -9.9540  -13.8130   15.4200 C.2   103  GLU103      0.3649
     20  OE1       -9.1240  -12.9140   15.2040 O.co2 103  GLU103     -0.2457
     21  OE2      -10.9850  -13.6480   16.1090 O.co2 103  GLU103     -0.2457
     22  N        -13.9350  -18.9420   18.6260 N.3   106  ALA106     -0.1245
     23  CA       -14.5430  -17.9210   19.4760 C.3   106  ALA106      0.1562
     24  C        -16.0130  -17.6930   19.1420 C.2   106  ALA106      0.2260
     25  O        -16.7590  -17.1580   19.9640 O.2   106  ALA106     -0.2867
     26  CB       -13.7640  -16.6050   19.3840 C.3   106  ALA106      0.0290
     27  N        -16.7670  -12.7810   15.1830 N.3   133  GLU133     -0.1245
     28  CA       -15.7350  -13.8120   15.1600 C.3   133  GLU133      0.1567
     29  C        -15.8130  -14.6130   13.8610 C.2   133  GLU133      0.2260
     30  O        -14.8010  -15.0870   13.3570 O.2   133  GLU133     -0.2867
     31  CB       -15.8130  -14.7390   16.3830 C.3   133  GLU133      0.0388
     32  CG       -15.6980  -14.0290   17.7550 C.3   133  GLU133      0.1160
     33  CD       -14.3930  -13.2510   17.9650 C.2   133  GLU133      0.3649
     34  OE1      -13.5630  -13.1180   17.0350 O.co2 133  GLU133     -0.2457
     35  OE2      -14.1850  -12.7950   19.1030 O.co2 133  GLU133     -0.2457
     36  N        -13.8610  -12.6100   11.5510 N.3   136  HIS136     -0.1241
     37  CA       -12.4270  -12.6990   11.7990 C.3   136  HIS136      0.1621
     38  C        -11.8420  -14.0020   11.3170 C.2   136  HIS136      0.2264
     39  O        -10.7550  -14.0120   10.7550 O.2   136  HIS136     -0.2867
     40  CB       -12.1330  -12.5100   13.2710 C.3   136  HIS136      0.0745
     41  CG       -12.6210  -11.2010   13.7980 C.ar  136  HIS136      0.0817
     42  ND1      -12.6260  -10.8950   15.1410 N.ar  136  HIS136     -0.2268
     43  CD2      -13.1140  -10.1130   13.1600 C.ar  136  HIS136      0.1154
     44  CE1      -13.1110   -9.6760   15.3080 C.ar  136  HIS136      0.1986
     45  NE2      -13.4220   -9.1830   14.1240 N.ar  136  HIS136     -0.2212
     46  N         -7.5310  -22.0640   24.3620 N.3   175  PHE175     -0.1241
     47  CA        -8.8150  -21.5820   23.8540 C.3   175  PHE175      0.1605
     48  C         -9.9480  -22.4960   24.2750 C.2   175  PHE175      0.2264
     49  O        -11.0550  -22.0400   24.5520 O.2   175  PHE175     -0.2867
     50  CB        -8.7730  -21.3630   22.3380 C.3   175  PHE175      0.0534
     51  CG        -7.9460  -20.1800   21.9470 C.ar  175  PHE175     -0.0203
     52  CD1       -8.1470  -18.9520   22.5660 C.ar  175  PHE175     -0.0042
     53  CD2       -6.9340  -20.2970   21.0190 C.ar  175  PHE175     -0.0042
     54  CE1       -7.3770  -17.8510   22.2270 C.ar  175  PHE175     -0.0003
     55  CE2       -6.1560  -19.2000   20.6740 C.ar  175  PHE175     -0.0003
     56  CZ        -6.3760  -17.9780   21.2790 C.ar  175  PHE175     -0.0000
     57  N        -12.5790  -20.3490   26.0850 N.3   179  ILE179     -0.1245
     58  CA       -13.6010  -20.0230   25.0870 C.3   179  ILE179      0.1561
     59  C        -14.7010  -21.0720   24.9820 C.2   179  ILE179      0.2260
     60  O        -15.8830  -20.7570   25.1200 O.2   179  ILE179     -0.2867
     61  CB       -13.0120  -19.8430   23.6720 C.3   179  ILE179      0.0252
     62  CG1      -11.9500  -18.7410   23.6750 C.3   179  ILE179      0.0019
     63  CG2      -14.1330  -19.5380   22.6630 C.3   179  ILE179      0.0019
     64  CD1      -11.5530  -18.2930   22.2640 C.3   179  ILE179      0.0001
     65  N        -12.8430  -14.7730   28.3940 N.3   191  LEU191     -0.1245
     66  CA       -12.6450  -14.3970   27.0080 C.3   191  LEU191      0.1561
     67  C        -12.8640  -12.8970   26.8040 C.2   191  LEU191      0.2260
     68  O        -11.9350  -12.1850   26.4510 O.2   191  LEU191     -0.2867
     69  CB       -13.5610  -15.1960   26.0860 C.3   191  LEU191      0.0270
     70  CG       -13.5580  -14.7410   24.6200 C.3   191  LEU191      0.0019
     71  CD1      -12.1790  -14.8690   23.9950 C.3   191  LEU191      0.0001
     72  CD2      -14.5800  -15.5730   23.8550 C.3   191  LEU191      0.0001
     73  N         -9.0300  -11.8690   28.1000 N.3   195  PHE195     -0.1227
     74  CA        -8.2860  -12.0490   26.8600 C.3   195  PHE195      0.1736
     75  C         -8.4980  -10.8810   25.8910 C.2   195  PHE195      0.2595
     76  O         -7.5290  -10.3210   25.3510 O.2   195  PHE195     -0.2718
     77  CB        -8.6800  -13.3750   26.2080 C.3   195  PHE195      0.0547
     78  CG        -7.8920  -13.7070   24.9730 C.ar  195  PHE195     -0.0202
     79  CD1       -6.5290  -13.9370   25.0390 C.ar  195  PHE195     -0.0042
     80  CD2       -8.5260  -13.8290   23.7490 C.ar  195  PHE195     -0.0042
     81  CE1       -5.8130  -14.2580   23.8870 C.ar  195  PHE195     -0.0003
     82  CE2       -7.8050  -14.1480   22.6010 C.ar  195  PHE195     -0.0003
     83  CZ        -6.4500  -14.3680   22.6830 C.ar  195  PHE195     -0.0000
     84  N         -9.7560  -10.4980   25.6810 N.am  196  GLU196     -0.1979
     85  CA       -10.0770   -9.5700   24.5840 C.3   196  GLU196      0.1602
     86  C         -9.9250   -8.0870   24.9300 C.2   196  GLU196      0.2287
     87  O         -9.7690   -7.2670   24.0260 O.2   196  GLU196     -0.2864
     88  CB       -11.4720   -9.8340   24.0030 C.3   196  GLU196      0.0415
     89  CG       -11.6270  -11.2080   23.3630 C.3   196  GLU196      0.1163
     90  CD       -13.0280  -11.4380   22.7930 C.2   196  GLU196      0.3649
     91  OE1      -14.0200  -11.0360   23.4390 O.co2 196  GLU196     -0.2457
     92  OE2      -13.1340  -12.0140   21.6950 O.co2 196  GLU196     -0.2457
     93  N         -5.3260   -9.2380   23.4560 N.3   200  THR200     -0.1218
     94  CA        -5.3390   -9.2630   21.9970 C.3   200  THR200      0.1862
     95  C         -4.7860   -7.9860   21.3840 C.2   200  THR200      0.2287
     96  O         -4.2770   -8.0120   20.2650 O.2   200  THR200     -0.2866
     97  CB        -6.7110   -9.5550   21.3960 C.3   200  THR200      0.1770
     98  OG1       -7.6550   -8.6080   21.8900 O.3   200  THR200     -0.2211
     99  CG2       -7.1710  -10.9660   21.7630 C.3   200  THR200      0.0375
    100  N         -2.8950   -7.7050   17.7360 N.3   204  PHE204     -0.1241
    101  CA        -3.6390   -7.0770   16.6450 C.3   204  PHE204      0.1605
    102  C         -3.3500   -5.5820   16.4370 C.2   204  PHE204      0.2264
    103  O         -3.6830   -5.0240   15.3790 O.2   204  PHE204     -0.2867
    104  CB        -5.1370   -7.3050   16.8230 C.3   204  PHE204      0.0534
    105  CG        -5.5500   -8.7260   16.6020 C.ar  204  PHE204     -0.0203
    106  CD1       -5.4010   -9.6760   17.6080 C.ar  204  PHE204     -0.0042
    107  CD2       -6.0490   -9.1250   15.3760 C.ar  204  PHE204     -0.0042
    108  CE1       -5.7660  -10.9870   17.3920 C.ar  204  PHE204     -0.0003
    109  CE2       -6.4140  -10.4400   15.1630 C.ar  204  PHE204     -0.0003
    110  CZ        -6.2800  -11.3660   16.1740 C.ar  204  PHE204     -0.0000
    111  N        -13.3900   -6.2150   18.0530 N.3   230  GLU230     -0.1245
    112  CA       -12.9870   -6.7000   19.3670 C.3   230  GLU230      0.1567
    113  C        -13.3350   -5.6440   20.4000 C.2   230  GLU230      0.2260
    114  O        -13.8730   -5.9450   21.4740 O.2   230  GLU230     -0.2867
    115  CB       -11.4770   -6.9490   19.3760 C.3   230  GLU230      0.0388
    116  CG       -10.9350   -7.4760   20.7120 C.3   230  GLU230      0.1160
    117  CD       -11.0310   -8.9890   20.7910 C.2   230  GLU230      0.3649
    118  OE1       -9.9920   -9.6570   20.9620 O.co2 230  GLU230     -0.2457
    119  OE2      -12.1540   -9.5050   20.6660 O.co2 230  GLU230     -0.2457
    120  N        -17.2270   -5.9870   21.1130 N.3   233  HIS233     -0.1241
    121  CA       -17.7650   -7.1730   21.7930 C.3   233  HIS233      0.1621
    122  C        -17.0210   -7.5460   23.0720 C.2   233  HIS233      0.2264
    123  O        -17.5810   -8.2250   23.9310 O.2   233  HIS233     -0.2867
    124  CB       -17.9640   -8.3820   20.8520 C.3   233  HIS233      0.0745
    125  CG       -16.7040   -8.9700   20.2970 C.ar  233  HIS233      0.0817
    126  ND1      -16.4820   -9.0680   18.9370 N.ar  233  HIS233     -0.2268
    127  CD2      -15.6480   -9.5750   20.8930 C.ar  233  HIS233      0.1154
    128  CE1      -15.3260   -9.6690   18.7220 C.ar  233  HIS233      0.1986
    129  NE2      -14.8010   -9.9910   19.8900 N.ar  233  HIS233     -0.2212
@<TRIPOS>BOND
     1    39    38    2
     2    38    37    1
     3    36    37    1
     4    37    40    1
     5    43    41   ar
     6    43    45   ar
     7    40    41    1
     8    30    29    2
     9    41    42   ar
    10    29    28    1
    11    45    44   ar
    12     3     4    2
    13     3     2    1
    14    17    18    1
    15    17    14    1
    16     5     7    1
    17     5     2    1
    18     5     6    1
    19    18    19    1
    20     1     2    1
    21    42    44   ar
    22    28    27    1
    23    28    31    1
    24   109   107   ar
    25   109   110   ar
    26    20    19   ar
    27   107   105   ar
    28   103   102    2
    29    19    21   ar
    30     9    10    1
    31    15    14    1
    32    15    16    2
    33     6     8    1
    34    14    13    1
    35    13    11   am
    36   110   108   ar
    37    31    32    1
    38   102   101    1
    39   105   104    1
    40   105   106   ar
    41   101   104    1
    42   101   100    1
    43    10    11    1
    44    11    12    2
    45    34    33   ar
    46   108   106   ar
    47    32    33    1
    48    33    35   ar
    49   111   112    1
    50    22    23    1
    51   128   126   ar
    52   128   129   ar
    53   126   125   ar
    54    24    23    1
    55    24    25    2
    56   112   115    1
    57   112   113    1
    58   115   116    1
    59    26    23    1
    60   129   127   ar
    61    96    95    2
    62   125   124    1
    63   125   127   ar
    64   113   114    2
    65   119   117   ar
    66    55    53   ar
    67    55    56   ar
    68   116   117    1
    69   117   118   ar
    70   124   121    1
    71    53    51   ar
    72   120   121    1
    73    56    54   ar
    74    95    94    1
    75    97    99    1
    76    97    98    1
    77    97    94    1
    78    92    90   ar
    79   121   122    1
    80    51    50    1
    81    51    52   ar
    82    94    93    1
    83    54    52   ar
    84    64    62    1
    85    50    47    1
    86    82    83   ar
    87    82    80   ar
    88    63    61    1
    89    83    81   ar
    90    90    89    1
    91    90    91   ar
    92   122   123    2
    93    89    88    1
    94    61    62    1
    95    61    58    1
    96    80    78   ar
    97    47    48    1
    98    47    46    1
    99    72    70    1
   100    81    79   ar
   101    71    70    1
   102    88    85    1
   103    87    86    2
   104    48    49    2
   105    85    86    1
   106    85    84    1
   107    70    69    1
   108    78    79   ar
   109    78    77    1
   110    59    58    1
   111    59    60    2
   112    58    57    1
   113    76    75    2
   114    84    75   am
   115    75    74    1
   116    69    66    1
   117    77    74    1
   118    68    67    2
   119    67    66    1
   120    74    73    1
   121    66    65    1
