@<TRIPOS>MOLECULE
tmp/3q14D00.pdb
 80 74 0 0 0
SMALL
GASTEIGER

@<TRIPOS>ATOM
      1  N        -22.1710    9.1870   14.7110 N.3    73  MET73      -0.1230
      2  CA       -21.2370    8.8060   15.7610 C.3    73  MET73       0.1702
      3  C        -20.8180    7.3420   15.6640 C.2    73  MET73       0.2592
      4  O        -19.6630    7.0010   15.9160 O.2    73  MET73      -0.2718
      5  CB       -21.8360    9.0850   17.1420 C.3    73  MET73       0.0401
      6  CG       -20.8060    9.1370   18.2510 C.3    73  MET73       0.0596
      7  SD       -19.8240   10.6530   18.1810 S.3    73  MET73      -0.1393
      8  CE       -18.1950    9.9860   17.8470 C.3    73  MET73       0.0692
      9  N        -21.7610    6.4830   15.2980 N.am   74  GLN74      -0.1979
     10  CA       -21.5190    5.0430   15.2890 C.3    74  GLN74       0.1601
     11  C        -20.4300    4.6670   14.2870 C.2    74  GLN74       0.2287
     12  O        -19.7740    3.6340   14.4350 O.2    74  GLN74      -0.2864
     13  CB       -22.8100    4.2810   14.9700 C.3    74  GLN74       0.0394
     14  CG       -22.7400    2.7750   15.2660 C.3    74  GLN74       0.0908
     15  CD       -22.9960    2.4450   16.7340 C.2    74  GLN74       0.2608
     16  OE1      -22.4410    1.4870   17.2800 O.2    74  GLN74      -0.2717
     17  NE2      -23.8490    3.2360   17.3740 N.am   74  GLN74      -0.0878
     18  N        -17.6320    5.8690   14.0010 N.3    76  LEU76      -0.1231
     19  CA       -16.2990    5.9030   14.5890 C.3    76  LEU76       0.1693
     20  C        -15.7820    4.4860   14.7990 C.2    76  LEU76       0.2591
     21  O        -14.5760    4.2540   14.8250 O.2    76  LEU76      -0.2718
     22  CB       -16.3030    6.6510   15.9290 C.3    76  LEU76       0.0284
     23  CG       -14.9130    6.9250   16.4990 C.3    76  LEU76       0.0019
     24  CD1      -14.0580    7.6560   15.4790 C.3    76  LEU76       0.0001
     25  CD2      -15.0210    7.7180   17.7950 C.3    76  LEU76       0.0001
     26  N        -16.7080    3.5400   14.9360 N.am   77  GLU77      -0.1979
     27  CA       -16.3460    2.1390   15.1070 C.3    77  GLU77       0.1602
     28  C        -15.4850    1.6020   13.9770 C.2    77  GLU77       0.2287
     29  O        -14.7470    0.6470   14.1630 O.2    77  GLU77      -0.2864
     30  CB       -17.5910    1.2660   15.2320 C.3    77  GLU77       0.0415
     31  CG       -17.2520   -0.1350   15.6650 C.3    77  GLU77       0.1163
     32  CD       -18.4460   -1.0610   15.6730 C.2    77  GLU77       0.3649
     33  OE1      -18.2710   -2.2200   15.2540 O.co2  77  GLU77      -0.2457
     34  OE2      -19.5450   -0.6330   16.0950 O.co2  77  GLU77      -0.2457
     35  N        -12.0830    2.9840   15.4350 N.3    80  LEU80      -0.1245
     36  CA       -11.7760    2.9550   16.8610 C.3    80  LEU80       0.1561
     37  C        -11.2380    1.5820   17.2220 C.2    80  LEU80       0.2260
     38  O        -12.0070    0.6740   17.5510 O.2    80  LEU80      -0.2867
     39  CB       -13.0310    3.2500   17.6800 C.3    80  LEU80       0.0270
     40  CG       -12.8300    3.3440   19.1920 C.3    80  LEU80       0.0019
     41  CD1      -11.9080    4.5280   19.5070 C.3    80  LEU80       0.0001
     42  CD2      -14.1650    3.5060   19.8950 C.3    80  LEU80       0.0001
     43  N        -16.1910    3.5130   28.6810 N.3    87  ILE87      -0.1245
     44  CA       -16.8140    4.2240   27.5720 C.3    87  ILE87       0.1561
     45  C        -18.3050    4.4190   27.8240 C.2    87  ILE87       0.2260
     46  O        -18.9830    3.5530   28.3770 O.2    87  ILE87      -0.2867
     47  CB       -16.5650    3.4800   26.2310 C.3    87  ILE87       0.0252
     48  CG1      -17.0350    4.2960   25.0250 C.3    87  ILE87       0.0019
     49  CG2      -17.2240    2.0950   26.2390 C.3    87  ILE87       0.0019
     50  CD1      -16.6120    3.6710   23.6870 C.3    87  ILE87       0.0001
     51  N        -21.3340    5.9230   25.2780 N.3    89  ALA89      -0.1231
     52  CA       -21.5080    6.4320   23.9240 C.3    89  ALA89       0.1694
     53  C        -22.9660    6.5090   23.5190 C.2    89  ALA89       0.2592
     54  O        -23.7640    5.6420   23.8620 O.2    89  ALA89      -0.2718
     55  CB       -20.7240    5.5800   22.9270 C.3    89  ALA89       0.0304
     56  N        -23.3090    7.5640   22.7930 N.am   90  ASP90      -0.1960
     57  CA       -24.6400    7.6920   22.2260 C.3    90  ASP90       0.1840
     58  C        -24.5160    8.3970   20.8850 C.2    90  ASP90       0.2621
     59  O        -23.4040    8.5950   20.3950 O.2    90  ASP90      -0.2715
     60  CB       -25.5950    8.4320   23.1750 C.3    90  ASP90       0.1450
     61  CG       -25.1520    9.8620   23.4750 C.2    90  ASP90       0.3671
     62  OD1      -25.5170   10.3850   24.5540 O.co2  90  ASP90      -0.2456
     63  OD2      -24.4520   10.4680   22.6390 O.co2  90  ASP90      -0.2456
     64  N        -25.6470    8.7690   20.2900 N.am   91  GLU91      -0.1977
     65  CA       -25.6330    9.3320   18.9500 C.3    91  GLU91       0.1602
     66  C        -24.9510   10.6960   18.8710 C.2    91  GLU91       0.2287
     67  O        -24.5660   11.1310   17.7860 O.2    91  GLU91      -0.2864
     68  CB       -27.0490    9.4060   18.3630 C.3    91  GLU91       0.0415
     69  CG       -27.9860   10.3830   19.0580 C.3    91  GLU91       0.1163
     70  CD       -29.2900   10.5960   18.2890 C.2    91  GLU91       0.3649
     71  OE1      -29.3980   10.1140   17.1380 O.co2  91  GLU91      -0.2457
     72  OE2      -30.2070   11.2490   18.8350 O.co2  91  GLU91      -0.2457
     73  N        -19.1230   10.5180   22.3440 N.3    94  ILE94      -0.1245
     74  CA       -18.5250    9.4300   23.1020 C.3    94  ILE94       0.1561
     75  C        -17.6980   10.0240   24.2350 C.2    94  ILE94       0.2260
     76  O        -17.0330   11.0450   24.0600 O.2    94  ILE94      -0.2867
     77  CB       -17.6110    8.5600   22.2270 C.3    94  ILE94       0.0252
     78  CG1      -18.3430    8.0990   20.9730 C.3    94  ILE94       0.0019
     79  CG2      -17.1350    7.3560   23.0220 C.3    94  ILE94       0.0019
     80  CD1      -17.4210    7.4450   19.9910 C.3    94  ILE94       0.0001
@<TRIPOS>BOND
     1    28    29    2
     2    28    27    1
     3    18    19    1
     4    11    12    2
     5    11    10    1
     6    19    20    1
     7    19    22    1
     8     1     2    1
     9    20    21    2
    10    20    26   am
    11    26    27    1
    12    13    14    1
    13    13    10    1
    14    27    30    1
    15    30    31    1
    16    33    32   ar
    17    14    15    1
    18    10     9    1
    19     9     3   am
    20    35    36    1
    21    24    23    1
    22     3     2    1
    23     3     4    2
    24    31    32    1
    25    32    34   ar
    26     2     5    1
    27    22    23    1
    28    23    25    1
    29    15    16    2
    30    15    17   am
    31    36    37    1
    32    36    39    1
    33    71    70   ar
    34     5     6    1
    35    37    38    2
    36    39    40    1
    37    67    66    2
    38     8     7    1
    39     7     6    1
    40    70    72   ar
    41    70    69    1
    42    68    65    1
    43    68    69    1
    44    66    65    1
    45    65    64    1
    46    40    41    1
    47    40    42    1
    48    80    78    1
    49    64    58   am
    50    59    58    2
    51    58    57    1
    52    78    77    1
    53    57    56    1
    54    57    60    1
    55    77    79    1
    56    77    74    1
    57    73    74    1
    58    63    61   ar
    59    56    53   am
    60    55    52    1
    61    74    75    1
    62    60    61    1
    63    61    62   ar
    64    53    54    2
    65    53    52    1
    66    50    48    1
    67    52    51    1
    68    76    75    2
    69    48    47    1
    70    47    49    1
    71    47    44    1
    72    44    45    1
    73    44    43    1
    74    45    46    2
