@<TRIPOS>MOLECULE
tmp/3q1fB00.pdb
 144 135 0 0 0
SMALL
GASTEIGER

@<TRIPOS>ATOM
      1  N        -13.2500   12.0840   28.3940 N.3    41  CYS41      -0.1221
      2  CA       -12.6080   13.1640   29.1230 C.3    41  CYS41       0.1808
      3  C        -13.2800   13.2700   30.5030 C.2    41  CYS41       0.2601
      4  O        -13.5730   12.2560   31.1070 O.2    41  CYS41      -0.2717
      5  CB       -12.6200   14.4690   28.3300 C.3    41  CYS41       0.0970
      6  SG       -11.7610   14.3340   26.7340 S.3    41  CYS41      -0.0800
      7  N        -13.5590   14.4790   30.9700 N.am   42  GLY42      -0.1957
      8  CA       -14.1010   14.6710   32.3390 C.3    42  GLY42       0.1869
      9  C        -15.4490   14.0650   32.6460 C.2    42  GLY42       0.2309
     10  O        -15.8320   13.9580   33.8290 O.2    42  GLY42      -0.2863
     11  N        -15.5640   11.3390   35.1960 N.3    45  LYS45      -0.1245
     12  CA       -15.5250   11.6280   36.6280 C.3    45  LYS45       0.1561
     13  C        -16.8000   11.1930   37.3370 C.2    45  LYS45       0.2260
     14  O        -16.7690   10.8590   38.5120 O.2    45  LYS45      -0.2867
     15  CB       -15.2060   13.0990   36.8730 C.3    45  LYS45       0.0271
     16  CG       -13.8150   13.4880   36.3430 C.3    45  LYS45       0.0035
     17  CD       -13.5220   14.9670   36.4910 C.3    45  LYS45       0.0206
     18  CE       -12.0530   15.2320   36.2040 C.3    45  LYS45       0.1093
     19  NZ       -11.7960   16.6100   35.7110 N.3    45  LYS45      -0.1314
     20  N         -2.5390   19.0450   35.7820 N.3    76  ASN76      -0.1225
     21  CA        -2.7400   20.2600   34.9580 C.3    76  ASN76       0.1785
     22  C         -3.7970   21.2630   35.4270 C.2    76  ASN76       0.2597
     23  O         -3.7500   22.4450   35.0560 O.2    76  ASN76      -0.2718
     24  CB        -3.0330   19.8760   33.5070 C.3    76  ASN76       0.1169
     25  CG        -4.3440   19.1450   33.3660 C.2    76  ASN76       0.2627
     26  OD1       -4.6490   18.2560   34.1630 O.2    76  ASN76      -0.2716
     27  ND2       -5.1640   19.5590   32.3940 N.am   76  ASN76      -0.0877
     28  N         -4.7980   20.7930   36.1630 N.am   77  TYR77      -0.1976
     29  CA        -5.8880   21.6640   36.5760 C.3    77  TYR77       0.1639
     30  C         -6.3880   21.1980   37.9310 C.2    77  TYR77       0.2290
     31  O         -6.9920   20.1290   38.0480 O.2    77  TYR77      -0.2864
     32  CB        -7.0150   21.6410   35.5470 C.3    77  TYR77       0.0560
     33  CG        -8.0990   22.6280   35.8680 C.ar   77  TYR77      -0.0198
     34  CD1       -7.8230   23.9830   35.9110 C.ar   77  TYR77      -0.0009
     35  CD2       -9.3790   22.2020   36.2020 C.ar   77  TYR77      -0.0009
     36  CE1       -8.8010   24.9060   36.2320 C.ar   77  TYR77       0.0417
     37  CE2      -10.3730   23.1230   36.5210 C.ar   77  TYR77       0.0417
     38  CZ       -10.0670   24.4750   36.5280 C.ar   77  TYR77       0.1957
     39  OH       -11.0330   25.4070   36.8630 O.3    77  TYR77      -0.2866
     40  N        -14.3780   20.0210   38.2340 N.3   102  SER102     -0.1217
     41  CA       -13.5780   19.2580   37.2820 C.3   102  SER102      0.1889
     42  C        -12.1000   19.2180   37.6750 C.2   102  SER102      0.2288
     43  O        -11.2110   19.1890   36.8160 O.2   102  SER102     -0.2866
     44  CB       -13.7540   19.7400   35.8420 C.3   102  SER102      0.2089
     45  OG       -13.7860   18.6130   34.9590 O.3   102  SER102     -0.2183
     46  N         -8.7080   17.8180   38.3660 N.3   104  ASN104     -0.1240
     47  CA        -8.0130   16.5930   37.8970 C.3   104  ASN104      0.1653
     48  C         -7.2050   15.8470   38.9580 C.2   104  ASN104      0.2266
     49  O         -7.0840   14.6250   38.9090 O.2   104  ASN104     -0.2867
     50  CB        -7.1490   16.8960   36.6740 C.3   104  ASN104      0.1155
     51  CG        -7.9690   17.0740   35.4190 C.2   104  ASN104      0.2627
     52  OD1       -9.1360   16.6860   35.3670 O.2   104  ASN104     -0.2716
     53  ND2       -7.3500   17.6390   34.3780 N.am  104  ASN104     -0.0877
     54  N         -5.5290   11.1390   35.0000 N.3   138  GLU138     -0.1231
     55  CA        -5.4060   12.5070   34.5160 C.3   138  GLU138      0.1684
     56  C         -3.9180   12.8600   34.5450 C.2   138  GLU138      0.2434
     57  O         -3.2340   12.5230   35.5030 O.2   138  GLU138     -0.2733
     58  CB        -6.1300   13.4710   35.4410 C.3   138  GLU138      0.0402
     59  CG        -7.6020   13.2110   35.5880 C.3   138  GLU138      0.1161
     60  CD        -8.3980   13.6660   34.3820 C.2   138  GLU138      0.3649
     61  OE1       -7.7840   14.2180   33.4480 O.co2 138  GLU138     -0.2457
     62  OE2       -9.6470   13.4610   34.3700 O.co2 138  GLU138     -0.2457
     63  N         -3.4300   13.5790   33.5220 N.am  139  PRO139     -0.2718
     64  CA        -4.2190   14.1920   32.4680 C.3   139  PRO139      0.1535
     65  C         -4.2390   13.4360   31.1300 C.2   139  PRO139      0.2599
     66  O         -4.8800   13.8990   30.1940 O.2   139  PRO139     -0.2715
     67  CB        -3.5010   15.5310   32.2570 C.3   139  PRO139      0.0310
     68  CG        -2.0360   15.1830   32.4770 C.3   139  PRO139      0.0237
     69  CD        -2.0230   14.0480   33.5070 C.3   139  PRO139      0.0939
     70  N         -3.5560   12.2880   31.0420 N.am  140  THR140     -0.1951
     71  CA        -3.4590   11.5880   29.7540 C.3   140  THR140      0.1897
     72  C         -4.7570   10.9710   29.2470 C.2   140  THR140      0.2313
     73  O         -4.8610   10.6770   28.0700 O.2   140  THR140     -0.2863
     74  CB        -2.3270   10.5430   29.7120 C.3   140  THR140      0.1794
     75  OG1       -2.5820    9.5000   30.6500 O.3   140  THR140     -0.2208
     76  CG2       -0.9590   11.2050   30.0030 C.3   140  THR140      0.0378
     77  N         -7.2220   12.3500   28.5240 N.3   142  ASN142     -0.1225
     78  CA        -7.8160   13.3470   27.6290 C.3   142  ASN142      0.1785
     79  C         -7.1530   13.4900   26.2650 C.2   142  ASN142      0.2597
     80  O         -7.4280   14.4510   25.5550 O.2   142  ASN142     -0.2718
     81  CB        -7.8570   14.7300   28.3020 C.3   142  ASN142      0.1169
     82  CG        -8.5050   14.6900   29.6510 C.2   142  ASN142      0.2627
     83  OD1       -9.7190   14.4920   29.7620 O.2   142  ASN142     -0.2716
     84  ND2       -7.7090   14.8570   30.6960 N.am  142  ASN142     -0.0877
     85  N         -6.2750   12.5600   25.8920 N.am  143  THR143     -0.1953
     86  CA        -5.6040   12.6920   24.5750 C.3   143  THR143      0.1897
     87  C         -6.6040   12.7060   23.4060 C.2   143  THR143      0.2313
     88  O         -6.3820   13.3770   22.4010 O.2   143  THR143     -0.2863
     89  CB        -4.5290   11.6470   24.3630 C.3   143  THR143      0.1794
     90  OG1       -5.0580   10.3550   24.6240 O.3   143  THR143     -0.2208
     91  CG2       -3.3560   11.8890   25.3290 C.3   143  THR143      0.0378
     92  N        -19.5140   24.2010   36.0650 N.3   188  THR188     -0.1218
     93  CA       -18.9470   24.2910   34.7170 C.3   188  THR188      0.1862
     94  C        -19.8760   24.0620   33.5660 C.2   188  THR188      0.2287
     95  O        -19.4100   24.0740   32.4050 O.2   188  THR188     -0.2866
     96  CB       -17.8430   23.2250   34.5170 C.3   188  THR188      0.1770
     97  OG1      -18.4580   21.9300   34.4360 O.3   188  THR188     -0.2211
     98  CG2      -16.8330   23.2390   35.6660 C.3   188  THR188      0.0375
     99  N        -19.3950   18.1190   32.6160 N.3   207  THR207     -0.1203
    100  CA       -18.7310   18.4150   31.3780 C.3   207  THR207      0.1994
    101  C        -17.4120   17.6570   31.2250 C.2   207  THR207      0.2618
    102  O        -16.9180   17.0510   32.1560 O.2   207  THR207     -0.2717
    103  CB       -18.3870   19.9210   31.3020 C.3   207  THR207      0.1784
    104  OG1      -17.6560   20.2960   32.4830 O.3   207  THR207     -0.2211
    105  CG2      -19.6650   20.7620   31.2170 C.3   207  THR207      0.0376
    106  N        -16.8480   17.7220   30.0310 N.am  208  GLY208     -0.1942
    107  CA       -15.5270   17.1580   29.7680 C.3   208  GLY208      0.2014
    108  C        -14.9440   17.8560   28.5550 C.2   208  GLY208      0.2640
    109  O        -15.6730   18.2600   27.6650 O.2   208  GLY208     -0.2714
    110  N        -13.6200   18.0180   28.5400 N.am  209  SER209     -0.1935
    111  CA       -12.9340   18.6880   27.4310 C.3   209  SER209      0.2055
    112  C        -11.5570   18.0640   27.2070 C.2   209  SER209      0.2644
    113  O        -10.8690   17.7150   28.1650 O.2   209  SER209     -0.2714
    114  CB       -12.7930   20.1930   27.7250 C.3   209  SER209      0.2130
    115  OG       -12.0950   20.8660   26.6890 O.3   209  SER209     -0.2179
    116  N        -11.1550   17.9210   25.9430 N.am  210  GLY210     -0.1939
    117  CA        -9.8670   17.3290   25.6330 C.3   210  GLY210      0.2014
    118  C         -9.2850   17.8250   24.3430 C.2   210  GLY210      0.2638
    119  O         -9.7950   18.7680   23.7290 O.2   210  GLY210     -0.2714
    120  N         -8.1920   17.1930   23.9320 N.am  211  ASP211     -0.1971
    121  CA        -7.5640   17.5160   22.6650 C.3   211  ASP211      0.1709
    122  C         -8.5500   17.1560   21.5440 C.2   211  ASP211      0.2293
    123  O         -9.6070   16.5300   21.7890 O.2   211  ASP211     -0.2864
    124  CB        -6.2720   16.7280   22.4930 C.3   211  ASP211      0.1436
    125  CG        -5.0550   17.4440   23.0760 C.2   211  ASP211      0.3671
    126  OD1       -5.1370   18.6430   23.4150 O.co2 211  ASP211     -0.2456
    127  OD2       -4.0060   16.7810   23.1990 O.co2 211  ASP211     -0.2456
    128  N        -12.6030   24.5630   21.5590 N.3   244  SER244     -0.1217
    129  CA       -13.7540   23.9990   22.2360 C.3   244  SER244      0.1889
    130  C        -15.0180   24.5160   21.5490 C.2   244  SER244      0.2288
    131  O        -15.0520   25.6480   21.0590 O.2   244  SER244     -0.2866
    132  CB       -13.7470   24.3910   23.7090 C.3   244  SER244      0.2089
    133  OG       -12.6780   23.7560   24.3880 O.3   244  SER244     -0.2183
    134  N        -18.5900   24.3100   22.9080 N.3   246  ARG246     -0.1245
    135  CA       -19.7320   24.0640   23.8050 C.3   246  ARG246      0.1563
    136  C        -21.0550   24.4710   23.1580 C.2   246  ARG246      0.2260
    137  O        -22.1250   23.9300   23.5020 O.2   246  ARG246     -0.2867
    138  CB       -19.5290   24.7530   25.1540 C.3   246  ARG246      0.0307
    139  CG       -18.3900   24.0990   25.9590 C.3   246  ARG246      0.0489
    140  CD       -18.1540   24.7800   27.2840 C.3   246  ARG246      0.2205
    141  NE       -17.6450   26.1460   27.1240 N.pl3 246  ARG246     -0.0865
    142  CZ       -17.3290   26.9380   28.1430 C.cat 246  ARG246      0.5346
    143  NH1      -17.4380   26.4910   29.3880 N.pl3 246  ARG246      0.1354
    144  NH2      -16.8890   28.1670   27.9210 N.pl3 246  ARG246      0.1354
@<TRIPOS>BOND
     1   131   130    2
     2   122   123    2
     3   122   121    1
     4   130   129    1
     5   128   129    1
     6   129   132    1
     7    88    87    2
     8   124   121    1
     9   124   125    1
    10   121   120    1
    11   134   135    1
    12   125   127   ar
    13   125   126   ar
    14   136   137    2
    15   136   135    1
    16    87    86    1
    17   132   133    1
    18   119   118    2
    19   135   138    1
    20   120   118   am
    21   118   117    1
    22    89    86    1
    23    89    90    1
    24    89    91    1
    25    86    85    1
    26   138   139    1
    27    80    79    2
    28   117   116    1
    29    85    79   am
    30   116   112   am
    31   139   140    1
    32    79    78    1
    33   115   114    1
    34     6     5    1
    35   141   140    1
    36   141   142    2
    37   112   111    1
    38   112   113    2
    39   111   114    1
    40   111   110    1
    41    78    81    1
    42    78    77    1
    43   109   108    2
    44   144   142    1
    45    73    72    2
    46   142   143    1
    47    81    82    1
    48     5     2    1
    49     1     2    1
    50   110   108   am
    51   108   107    1
    52     2     3    1
    53    72    71    1
    54    82    83    2
    55    82    84   am
    56    74    71    1
    57    74    76    1
    58    74    75    1
    59    71    70    1
    60   107   106    1
    61   106   101   am
    62    66    65    2
    63     3     7   am
    64     3     4    2
    65     7     8    1
    66    70    65   am
    67    65    64    1
    68   105   103    1
    69   101   100    1
    70   101   102    2
    71   103   100    1
    72   103   104    1
    73   100    99    1
    74    67    64    1
    75    67    68    1
    76     8     9    1
    77    27    25   am
    78    95    94    2
    79    64    63    1
    80    68    69    1
    81     9    10    2
    82    25    24    1
    83    25    26    2
    84    61    60   ar
    85    69    63    1
    86    24    21    1
    87    63    56   am
    88    94    93    1
    89    62    60   ar
    90    53    51   am
    91    60    59    1
    92    97    96    1
    93    55    56    1
    94    55    54    1
    95    55    58    1
    96    96    93    1
    97    96    98    1
    98    56    57    2
    99    93    92    1
   100    21    22    1
   101    21    20    1
   102    45    44    1
   103    23    22    2
   104    11    12    1
   105    52    51    2
   106    51    50    1
   107    22    28   am
   108    58    59    1
   109    32    33    1
   110    32    29    1
   111    19    18    1
   112    44    41    1
   113    33    34   ar
   114    33    35   ar
   115    34    36   ar
   116    28    29    1
   117    35    37   ar
   118    18    17    1
   119    36    38   ar
   120    16    17    1
   121    16    15    1
   122    37    38   ar
   123    38    39    1
   124    29    30    1
   125    12    15    1
   126    12    13    1
   127    50    47    1
   128    43    42    2
   129    41    42    1
   130    41    40    1
   131    13    14    2
   132    47    46    1
   133    47    48    1
   134    30    31    2
   135    49    48    2
