@<TRIPOS>MOLECULE
tmp/3q1fA01.pdb
 69 63 0 0 0
SMALL
GASTEIGER

@<TRIPOS>ATOM
      1  N         15.1890  -10.9920   -6.0500 N.3    53  ALA53      -0.1245
      2  CA        15.8170  -10.2150   -7.1080 C.3    53  ALA53       0.1562
      3  C         16.2270  -11.1210   -8.2630 C.2    53  ALA53       0.2260
      4  O         16.0480  -10.7640   -9.4510 O.2    53  ALA53      -0.2867
      5  CB        17.0230   -9.4470   -6.5490 C.3    53  ALA53       0.0290
      6  N         13.2140  -12.1780  -10.1520 N.3    56  LYS56      -0.1231
      7  CA        12.7920  -11.1100  -11.0570 C.3    56  LYS56       0.1693
      8  C         13.6360  -11.1380  -12.3440 C.2    56  LYS56       0.2591
      9  O         13.0940  -11.0430  -13.4580 O.2    56  LYS56      -0.2718
     10  CB        12.8720   -9.7480  -10.3570 C.3    56  LYS56       0.0285
     11  CG        12.6840   -8.5250  -11.3020 C.3    56  LYS56       0.0035
     12  CD        11.3410   -8.5400  -12.0240 C.3    56  LYS56       0.0206
     13  CE        10.1680   -8.4050  -11.0440 C.3    56  LYS56       0.1093
     14  NZ         8.8480   -8.3540  -11.7830 N.3    56  LYS56      -0.1314
     15  N         14.9430  -11.3220  -12.2010 N.am   57  GLN57      -0.1979
     16  CA        15.8050  -11.3920  -13.3750 C.3    57  GLN57       0.1601
     17  C         15.3830  -12.5560  -14.2610 C.2    57  GLN57       0.2287
     18  O         15.4440  -12.4600  -15.5010 O.2    57  GLN57      -0.2864
     19  CB        17.2670  -11.5640  -12.9720 C.3    57  GLN57       0.0394
     20  CG        17.9080  -10.3360  -12.3680 C.3    57  GLN57       0.0908
     21  CD        19.4000  -10.5110  -12.1960 C.2    57  GLN57       0.2608
     22  OE1       19.8650  -11.6050  -11.9160 O.2    57  GLN57      -0.2717
     23  NE2       20.1560   -9.4490  -12.4260 N.am   57  GLN57      -0.0878
     24  N         23.7820  -10.4720   -8.7630 N.3   116  LEU116     -0.1245
     25  CA        23.1440   -9.1520   -8.7880 C.3   116  LEU116      0.1561
     26  C         24.1360   -7.9890   -8.8680 C.2   116  LEU116      0.2260
     27  O         23.7230   -6.8340   -8.9130 O.2   116  LEU116     -0.2867
     28  CB        22.2100   -8.9980   -7.5830 C.3   116  LEU116      0.0270
     29  CG        21.1060  -10.0510   -7.5700 C.3   116  LEU116      0.0019
     30  CD1       20.5060  -10.1670   -6.1690 C.3   116  LEU116      0.0001
     31  CD2       20.0460   -9.7230   -8.6190 C.3   116  LEU116      0.0001
     32  N         23.2220   -4.3300   -5.6790 N.3   121  GLY121     -0.1225
     33  CA        22.2790   -4.8770   -6.6360 C.3   121  GLY121      0.1811
     34  C         21.0330   -5.3730   -5.9360 C.2   121  GLY121      0.2280
     35  O         19.9360   -5.3220   -6.4770 O.2   121  GLY121     -0.2866
     36  N         19.1860   -2.2140   -5.0270 N.3   124  ALA124     -0.1231
     37  CA        18.5340   -1.6830   -6.2300 C.3   124  ALA124      0.1694
     38  C         17.2100   -2.3750   -6.5100 C.2   124  ALA124      0.2592
     39  O         16.2530   -1.7450   -6.9440 O.2   124  ALA124     -0.2718
     40  CB        19.4690   -1.8030   -7.4500 C.3   124  ALA124      0.0304
     41  N         17.1550   -3.6870   -6.2900 N.am  125  PHE125     -0.1976
     42  CA        15.9010   -4.3870   -6.4940 C.3   125  PHE125      0.1639
     43  C         14.8490   -3.9180   -5.4670 C.2   125  PHE125      0.2290
     44  O         13.6950   -3.6960   -5.8110 O.2   125  PHE125     -0.2864
     45  CB        16.0990   -5.9110   -6.4120 C.3   125  PHE125      0.0560
     46  CG        14.8180   -6.6780   -6.4390 C.ar  125  PHE125     -0.0200
     47  CD1       14.0670   -6.7610   -7.6020 C.ar  125  PHE125     -0.0042
     48  CD2       14.3350   -7.3040   -5.2860 C.ar  125  PHE125     -0.0042
     49  CE1       12.8470   -7.4190   -7.6210 C.ar  125  PHE125     -0.0003
     50  CE2       13.1410   -8.0140   -5.3170 C.ar  125  PHE125     -0.0003
     51  CZ        12.3940   -8.0590   -6.4800 C.ar  125  PHE125     -0.0000
     52  N         13.3990   -0.8290   -6.6060 N.3   128  ALA128     -0.1231
     53  CA        12.5410   -1.0520   -7.7860 C.3   128  ALA128      0.1694
     54  C         11.1450   -1.5210   -7.4210 C.2   128  ALA128      0.2591
     55  O         10.1970   -1.3120   -8.1840 O.2   128  ALA128     -0.2718
     56  CB        13.1990   -2.0370   -8.7470 C.3   128  ALA128      0.0304
     57  N         11.0070   -2.1680   -6.2650 N.am  129  ILE129     -0.1980
     58  CA         9.7000   -2.6300   -5.8290 C.3   129  ILE129      0.1595
     59  C          9.0860   -1.7620   -4.7440 C.2   129  ILE129      0.2287
     60  O          8.0900   -2.1500   -4.1190 O.2   129  ILE129     -0.2864
     61  CB         9.6990   -4.1300   -5.4230 C.3   129  ILE129      0.0276
     62  CG1       10.6160   -4.3860   -4.2240 C.3   129  ILE129      0.0022
     63  CG2       10.1170   -4.9960   -6.6000 C.3   129  ILE129      0.0022
     64  CD1       10.3670   -5.7680   -3.5670 C.3   129  ILE129      0.0001
     65  N          4.8050   -7.9700   -7.0970 N.3   172  ALA172     -0.1245
     66  CA         6.1830   -7.5250   -7.3230 C.3   172  ALA172      0.1562
     67  C          6.9180   -8.5100   -8.2440 C.2   172  ALA172      0.2260
     68  O          7.8160   -8.1230   -8.9990 O.2   172  ALA172     -0.2867
     69  CB         6.9200   -7.3590   -6.0030 C.3   172  ALA172      0.0290
@<TRIPOS>BOND
     1    18    17    2
     2    17    16    1
     3     9     8    2
     4    16    19    1
     5    16    15    1
     6    19    20    1
     7    23    21   am
     8    20    21    1
     9     8    15   am
    10     8     7    1
    11    21    22    2
    12    12    11    1
    13    12    13    1
    14    14    13    1
    15    11    10    1
    16     7    10    1
    17     7     6    1
    18     4     3    2
    19    68    67    2
    20    27    26    2
    21    26    25    1
    22    25    24    1
    23    25    28    1
    24    56    53    1
    25    31    29    1
    26     3     2    1
    27    67    66    1
    28    55    54    2
    29    53    54    1
    30    53    52    1
    31    49    47   ar
    32    49    51   ar
    33    47    46   ar
    34    28    29    1
    35    29    30    1
    36    40    37    1
    37    54    57   am
    38    66    65    1
    39    66    69    1
    40     2     5    1
    41     2     1    1
    42    39    38    2
    43    33    34    1
    44    33    32    1
    45    63    61    1
    46    38    41   am
    47    38    37    1
    48    42    45    1
    49    42    41    1
    50    42    43    1
    51    51    50   ar
    52    35    34    2
    53    46    45    1
    54    46    48   ar
    55    57    58    1
    56    37    36    1
    57    58    61    1
    58    58    59    1
    59    44    43    2
    60    61    62    1
    61    50    48   ar
    62    59    60    2
    63    62    64    1
