@<TRIPOS>MOLECULE
tmp/3q1fB01.pdb
 124 120 0 0 0
SMALL
GASTEIGER

@<TRIPOS>ATOM
      1  N        -37.5270    9.4030   30.4920 N.3    24  THR24      -0.1218
      2  CA       -38.0190    8.3930   31.4420 C.3    24  THR24       0.1862
      3  C        -39.5370    8.3640   31.5650 C.2    24  THR24       0.2287
      4  O        -40.1010    7.4410   32.1700 O.2    24  THR24      -0.2866
      5  CB       -37.3890    8.5410   32.8510 C.3    24  THR24       0.1770
      6  OG1      -37.8900    9.7220   33.4890 O.3    24  THR24      -0.2211
      7  CG2      -35.8470    8.6120   32.7480 C.3    24  THR24       0.0375
      8  N        -28.5540    7.9610   38.5290 N.3   166  THR166     -0.1203
      9  CA       -29.2740    9.1300   39.0640 C.3   166  THR166      0.1994
     10  C        -30.7730    8.9770   39.1940 C.2   166  THR166      0.2617
     11  O        -31.3900    9.6820   39.9950 O.2   166  THR166     -0.2717
     12  CB       -29.0000   10.4030   38.2210 C.3   166  THR166      0.1784
     13  OG1      -29.4920   10.2230   36.8790 O.3   166  THR166     -0.2211
     14  CG2      -27.5190   10.7180   38.1910 C.3   166  THR166      0.0376
     15  N        -31.3320    8.1440   38.2880 N.am  167  LEU167     -0.1979
     16  CA       -32.7750    7.8980   38.1480 C.3   167  LEU167      0.1596
     17  C        -33.1260    6.4020   38.1690 C.2   167  LEU167      0.2287
     18  O        -34.1170    5.9830   37.5610 O.2   167  LEU167     -0.2864
     19  CB       -33.2940    8.5100   36.8420 C.3   167  LEU167      0.0297
     20  CG       -32.9840    9.9910   36.5980 C.3   167  LEU167      0.0022
     21  CD1      -33.4670   10.4450   35.2050 C.3   167  LEU167      0.0001
     22  CD2      -33.5920   10.8550   37.7060 C.3   167  LEU167      0.0001
     23  N        -31.5190    2.4610   40.3570 N.3   169  HIS169     -0.1241
     24  CA       -31.0800    1.8450   41.5830 C.3   169  HIS169      0.1621
     25  C        -29.7090    1.2110   41.5570 C.2   169  HIS169      0.2264
     26  O        -29.4340    0.2790   42.3240 O.2   169  HIS169     -0.2867
     27  CB       -32.1540    0.8390   42.0200 C.3   169  HIS169      0.0745
     28  CG       -33.5320    1.4130   41.9770 C.ar  169  HIS169      0.0817
     29  ND1      -34.0070    2.2510   42.9570 N.ar  169  HIS169     -0.2268
     30  CD2      -34.4790    1.3880   41.0100 C.ar  169  HIS169      0.1154
     31  CE1      -35.2110    2.6810   42.6230 C.ar  169  HIS169      0.1986
     32  NE2      -35.5230    2.1710   41.4450 N.ar  169  HIS169     -0.2212
     33  N        -27.4700    7.8700   45.6980 N.3   176  ARG176     -0.1231
     34  CA       -28.0510    8.4380   44.4890 C.3   176  ARG176      0.1694
     35  C        -28.4000    9.9130   44.7130 C.2   176  ARG176      0.2591
     36  O        -28.1710   10.7590   43.8380 O.2   176  ARG176     -0.2718
     37  CB       -29.3020    7.6600   44.0790 C.3   176  ARG176      0.0321
     38  CG       -30.1680    8.4030   43.0760 C.3   176  ARG176      0.0489
     39  CD       -31.4060    7.6080   42.7270 C.3   176  ARG176      0.2205
     40  NE       -32.4420    7.7620   43.7370 N.pl3 176  ARG176     -0.0865
     41  CZ       -33.6290    7.1660   43.6880 C.cat 176  ARG176      0.5346
     42  NH1      -33.9310    6.3640   42.6750 N.pl3 176  ARG176      0.1354
     43  NH2      -34.5130    7.3710   44.6550 N.pl3 176  ARG176      0.1354
     44  N        -28.9760   10.2160   45.8720 N.am  177  ALA177     -0.1980
     45  CA       -29.3140   11.6030   46.2030 C.3   177  ALA177      0.1597
     46  C        -28.0580   12.4740   46.2540 C.2   177  ALA177      0.2287
     47  O        -28.0650   13.6160   45.7760 O.2   177  ALA177     -0.2864
     48  CB       -30.0750   11.6730   47.5120 C.3   177  ALA177      0.0319
     49  N        -26.8300   13.1740   42.7100 N.3   180  VAL180     -0.1245
     50  CA       -27.6920   14.1570   42.0660 C.3   180  VAL180      0.1561
     51  C        -27.4330   15.5620   42.6280 C.2   180  VAL180      0.2260
     52  O        -27.3290   16.5280   41.8680 O.2   180  VAL180     -0.2867
     53  CB       -29.1970   13.7760   42.1830 C.3   180  VAL180      0.0252
     54  CG1      -30.0860   14.9470   41.7880 C.3   180  VAL180      0.0019
     55  CG2      -29.5010   12.5410   41.3050 C.3   180  VAL180      0.0019
     56  N        -26.2200   18.6780   40.3440 N.3   184  LYS184     -0.1245
     57  CA       -27.0410   19.9000   40.3140 C.3   184  LYS184      0.1561
     58  C        -26.2420   21.1280   40.7420 C.2   184  LYS184      0.2260
     59  O        -26.5730   22.2450   40.3650 O.2   184  LYS184     -0.2867
     60  CB       -28.2850   19.7500   41.2020 C.3   184  LYS184      0.0271
     61  CG       -29.3860   18.8960   40.6110 C.3   184  LYS184      0.0035
     62  CD       -30.5810   18.8770   41.5620 C.3   184  LYS184      0.0206
     63  CE       -31.7820   18.2200   40.9380 C.3   184  LYS184      0.1093
     64  NZ       -32.9870   18.4630   41.8110 N.3   184  LYS184     -0.1314
     65  N        -34.8020   22.3120   35.3560 N.3   202  THR202     -0.1218
     66  CA       -33.7480   22.0880   36.3310 C.3   202  THR202      0.1862
     67  C        -32.8530   20.9980   35.7820 C.2   202  THR202      0.2287
     68  O        -33.3260   20.0710   35.1260 O.2   202  THR202     -0.2866
     69  CB       -34.3350   21.6200   37.6770 C.3   202  THR202      0.1770
     70  OG1      -35.1260   22.6720   38.2420 O.3   202  THR202     -0.2211
     71  CG2      -33.2410   21.2400   38.6490 C.3   202  THR202      0.0375
     72  N        -34.8100   17.8710   34.4700 N.3   222  TRP222     -0.1228
     73  CA       -36.2060   17.8360   34.8930 C.3   222  TRP222      0.1722
     74  C        -36.9650   18.9330   34.1590 C.2   222  TRP222      0.2437
     75  O        -36.9110   20.1090   34.5470 O.2   222  TRP222     -0.2733
     76  CB       -36.3160   18.0150   36.4080 C.3   222  TRP222      0.0563
     77  CG       -35.8280   16.8300   37.1870 C.ar  222  TRP222      0.0003
     78  CD1      -36.5870   15.8040   37.6940 C.ar  222  TRP222      0.0946
     79  CD2      -34.4720   16.5380   37.5420 C.ar  222  TRP222      0.0152
     80  NE1      -35.7850   14.9020   38.3490 N.ar  222  TRP222     -0.2442
     81  CE2      -34.4820   15.3260   38.2690 C.ar  222  TRP222      0.0810
     82  CE3      -33.2530   17.1940   37.3360 C.ar  222  TRP222      0.0012
     83  CZ2      -33.3170   14.7490   38.7780 C.ar  222  TRP222      0.0191
     84  CZ3      -32.0920   16.6140   37.8410 C.ar  222  TRP222      0.0001
     85  CH2      -32.1390   15.4080   38.5580 C.ar  222  TRP222      0.0015
     86  N        -37.6220   18.5720   33.0540 N.am  223  PRO223     -0.2718
     87  CA       -38.3650   19.5670   32.2990 C.3   223  PRO223      0.1535
     88  C        -39.5430   19.9870   33.1260 C.2   223  PRO223      0.2598
     89  O        -40.0940   19.1700   33.8540 O.2   223  PRO223     -0.2715
     90  CB       -38.8470   18.7930   31.0560 C.3   223  PRO223      0.0310
     91  CG       -38.0430   17.5400   31.0320 C.3   223  PRO223      0.0237
     92  CD       -37.7330   17.2340   32.4580 C.3   223  PRO223      0.0939
     93  N        -39.9230   21.2490   33.0250 N.am  224  GLN224     -0.1978
     94  CA       -41.0310   21.7620   33.8090 C.3   224  GLN224      0.1601
     95  C        -42.2930   20.9040   33.6930 C.2   224  GLN224      0.2287
     96  O        -42.8440   20.7210   32.6020 O.2   224  GLN224     -0.2864
     97  CB       -41.3420   23.2060   33.4290 C.3   224  GLN224      0.0394
     98  CG       -42.3340   23.8700   34.3680 C.3   224  GLN224      0.0908
     99  CD       -42.4940   25.3440   34.0930 C.2   224  GLN224      0.2608
    100  OE1      -42.0140   26.1800   34.8510 O.2   224  GLN224     -0.2717
    101  NE2      -43.1770   25.6720   33.0060 N.am  224  GLN224     -0.0878
    102  N        -42.7150   17.7170   33.9410 N.3   226  ARG226     -0.1231
    103  CA       -42.5900   16.4030   33.3100 C.3   226  ARG226      0.1694
    104  C        -41.5110   15.5090   33.9240 C.2   226  ARG226      0.2592
    105  O        -40.6420   15.9780   34.6580 O.2   226  ARG226     -0.2718
    106  CB       -42.3370   16.5770   31.8170 C.3   226  ARG226      0.0321
    107  CG       -43.5350   17.1710   31.0670 C.3   226  ARG226      0.0489
    108  CD       -43.1850   17.5070   29.6340 C.3   226  ARG226      0.2205
    109  NE       -43.0790   16.3070   28.8020 N.pl3 226  ARG226     -0.0865
    110  CZ       -42.9350   16.3240   27.4760 C.cat 226  ARG226      0.5346
    111  NH1      -42.8460   15.1850   26.8020 N.pl3 226  ARG226      0.1354
    112  NH2      -42.8930   17.4830   26.8250 N.pl3 226  ARG226      0.1354
    113  N        -41.5700   14.2190   33.5990 N.am  227  ALA227     -0.1966
    114  CA       -40.6110   13.2380   34.1050 C.3   227  ALA227      0.1713
    115  C        -39.1930   13.5700   33.5990 C.2   227  ALA227      0.2458
    116  O        -39.0360   14.1590   32.5460 O.2   227  ALA227     -0.2730
    117  CB       -41.0240   11.8400   33.6810 C.3   227  ALA227      0.0333
    118  N        -38.1630   13.1740   34.3620 N.am  228  PRO228     -0.2727
    119  CA       -36.8050   13.5370   33.9430 C.3   228  PRO228      0.1402
    120  C        -36.2620   12.8440   32.7050 C.2   228  PRO228      0.2269
    121  O        -36.7420   11.7750   32.2910 O.2   228  PRO228     -0.2865
    122  CB       -35.9460   13.1960   35.1770 C.3   228  PRO228      0.0296
    123  CG       -36.7040   12.1690   35.8990 C.3   228  PRO228      0.0237
    124  CD       -38.1850   12.4790   35.6540 C.3   228  PRO228      0.0939
@<TRIPOS>BOND
     1   111   110    1
     2   112   110    1
     3   110   109    2
     4   109   108    1
     5   108   107    1
     6     1     2    1
     7    91    90    1
     8    91    92    1
     9    90    87    1
    10   107   106    1
    11     2     3    1
    12     2     5    1
    13     3     4    2
    14   106   103    1
    15   121   120    2
    16    87    86    1
    17    87    88    1
    18    92    86    1
    19   116   115    2
    20    96    95    2
    21   120   119    1
    22     7     5    1
    23     5     6    1
    24   101    99   am
    25    93    88   am
    26    93    94    1
    27    86    74   am
    28    88    89    2
    29   103   104    1
    30   103   102    1
    31    97    94    1
    32    97    98    1
    33   115   114    1
    34   115   118   am
    35   113   104   am
    36   113   114    1
    37   117   114    1
    38    95    94    1
    39   104   105    2
    40   119   118    1
    41   119   122    1
    42    99    98    1
    43    99   100    2
    44    74    75    2
    45    74    73    1
    46   118   124    1
    47    72    73    1
    48    73    76    1
    49    68    67    2
    50   122   123    1
    51    21    20    1
    52    65    66    1
    53   124   123    1
    54    67    66    1
    55    66    69    1
    56    76    77    1
    57    20    19    1
    58    20    22    1
    59    19    16    1
    60    13    12    1
    61    77    79   ar
    62    77    78   ar
    63    82    79   ar
    64    82    84   ar
    65    79    81   ar
    66    18    17    2
    67    69    70    1
    68    69    71    1
    69    78    80   ar
    70    84    85   ar
    71    16    17    1
    72    16    15    1
    73    14    12    1
    74    12     9    1
    75    81    80   ar
    76    81    83   ar
    77    15    10   am
    78     8     9    1
    79    85    83   ar
    80     9    10    1
    81    10    11    2
    82    57    56    1
    83    57    58    1
    84    57    60    1
    85    23    24    1
    86    59    58    2
    87    61    60    1
    88    61    62    1
    89    63    62    1
    90    63    64    1
    91    30    32   ar
    92    30    28   ar
    93    55    53    1
    94    32    31   ar
    95    25    24    1
    96    25    26    2
    97    24    27    1
    98    54    53    1
    99    52    51    2
   100    28    27    1
   101    28    29   ar
   102    50    53    1
   103    50    51    1
   104    50    49    1
   105    31    29   ar
   106    42    41    1
   107    39    38    1
   108    39    40    1
   109    38    37    1
   110    41    40    2
   111    41    43    1
   112    36    35    2
   113    37    34    1
   114    34    35    1
   115    34    33    1
   116    35    44   am
   117    47    46    2
   118    44    45    1
   119    45    46    1
   120    45    48    1
