@<TRIPOS>MOLECULE
tmp/3q1iA00.pdb
 123 124 0 0 0
SMALL
GASTEIGER

@<TRIPOS>ATOM
      1  N         12.5190    1.0960   15.0460 N.3    41  SER41      -0.1202
      2  CA        13.4780    1.8370   15.8630 C.3    41  SER41       0.2020
      3  C         13.5860    3.3070   15.4770 C.2    41  SER41       0.2619
      4  O         13.8960    4.1540   16.3200 O.2    41  SER41      -0.2717
      5  CB        14.8570    1.1860   15.7880 C.3    41  SER41       0.2103
      6  OG        14.9400    0.0840   16.6670 O.3    41  SER41      -0.2182
      7  N         13.3480    3.6100   14.2010 N.am   42  LYS42      -0.1965
      8  CA        13.4400    4.9830   13.6850 C.3    42  LYS42       0.1728
      9  C         12.4720    5.1330   12.5240 C.2    42  LYS42       0.2616
     10  O         12.1540    4.1540   11.8520 O.2    42  LYS42      -0.2715
     11  CB        14.8610    5.3060   13.1870 C.3    42  LYS42       0.0311
     12  CG        15.9810    5.0000   14.1580 C.3    42  LYS42       0.0038
     13  CD        17.3400    5.2990   13.5640 C.3    42  LYS42       0.0206
     14  CE        18.4330    4.9000   14.5380 C.3    42  LYS42       0.1093
     15  NZ        19.7460    5.4920   14.1730 N.3    42  LYS42      -0.1314
     16  N         12.0080    6.3540   12.2820 N.am   43  TRP43      -0.1960
     17  CA        11.1780    6.6070   11.1050 C.3    43  TRP43       0.1771
     18  C         11.3260    8.0370   10.6050 C.2    43  TRP43       0.2619
     19  O         11.7150    8.9360   11.3570 O.2    43  TRP43      -0.2715
     20  CB         9.6980    6.2460   11.3530 C.3    43  TRP43       0.0590
     21  CG         9.0830    6.9750   12.5120 C.ar   43  TRP43       0.0006
     22  CD1        8.9750    6.5240   13.7990 C.ar   43  TRP43       0.0946
     23  CD2        8.5130    8.2910   12.4980 C.ar   43  TRP43       0.0152
     24  NE1        8.3700    7.4750   14.5830 N.ar   43  TRP43      -0.2442
     25  CE2        8.0810    8.5720   13.8130 C.ar   43  TRP43       0.0810
     26  CE3        8.3260    9.2610   11.5020 C.ar   43  TRP43       0.0012
     27  CZ2        7.4670    9.7780   14.1590 C.ar   43  TRP43       0.0191
     28  CZ3        7.7130   10.4590   11.8460 C.ar   43  TRP43       0.0001
     29  CH2        7.2990   10.7090   13.1660 C.ar   43  TRP43       0.0015
     30  N         11.0350    8.2200    9.3190 N.am   44  VAL44      -0.1977
     31  CA        11.0730    9.5230    8.6650 C.3    44  VAL44       0.1596
     32  C          9.8300    9.6490    7.7940 C.2    44  VAL44       0.2287
     33  O          9.6110    8.8500    6.8750 O.2    44  VAL44      -0.2864
     34  CB        12.3370    9.7080    7.7870 C.3    44  VAL44       0.0276
     35  CG1       12.2750   11.0260    7.0370 C.3    44  VAL44       0.0022
     36  CG2       13.6030    9.6420    8.6240 C.3    44  VAL44       0.0022
     37  N         20.1900    8.8120    6.4920 N.3   114  TYR114     -0.1241
     38  CA        19.7080    9.8220    7.4270 C.3   114  TYR114      0.1605
     39  C         19.4180    9.2230    8.7950 C.2   114  TYR114      0.2264
     40  O         19.8100    9.7820    9.8180 O.2   114  TYR114     -0.2867
     41  CB        18.4620   10.5500    6.9050 C.3   114  TYR114      0.0534
     42  CG        18.0120   11.6360    7.8610 C.ar  114  TYR114     -0.0201
     43  CD1       18.5510   12.9210    7.7900 C.ar  114  TYR114     -0.0009
     44  CD2       17.0750   11.3700    8.8580 C.ar  114  TYR114     -0.0009
     45  CE1       18.1590   13.9130    8.6790 C.ar  114  TYR114      0.0417
     46  CE2       16.6800   12.3510    9.7510 C.ar  114  TYR114      0.0417
     47  CZ        17.2230   13.6220    9.6520 C.ar  114  TYR114      0.1957
     48  OH        16.8300   14.5970   10.5340 O.3   114  TYR114     -0.2866
     49  N         21.3200   10.3390   12.2880 N.3   118  HIS118     -0.1226
     50  CA        20.6420   11.4430   12.9910 C.3   118  HIS118      0.1752
     51  C         19.6130   11.1190   14.0680 C.2   118  HIS118      0.2596
     52  O         19.2480   11.9970   14.8550 O.2   118  HIS118     -0.2718
     53  CB        20.0040   12.3990   11.9800 C.3   118  HIS118      0.0759
     54  CG        20.9960   13.0900   11.1010 C.ar  118  HIS118      0.0818
     55  ND1       21.7600   14.1530   11.5320 N.ar  118  HIS118     -0.2268
     56  CD2       21.3540   12.8660    9.8160 C.ar  118  HIS118      0.1154
     57  CE1       22.5450   14.5550   10.5500 C.ar  118  HIS118      0.1986
     58  NE2       22.3180   13.7910    9.4970 N.ar  118  HIS118     -0.2212
     59  N         19.1350    9.8820   14.1040 N.am  119  LEU119     -0.1966
     60  CA        18.0140    9.5570   14.9880 C.3   119  LEU119      0.1728
     61  C         18.3490    8.5300   16.0640 C.2   119  LEU119      0.2616
     62  O         19.2100    7.6670   15.8720 O.2   119  LEU119     -0.2715
     63  CB        16.7850    9.1360   14.1650 C.3   119  LEU119      0.0311
     64  CG        16.3280   10.1010   13.0550 C.3   119  LEU119      0.0022
     65  CD1       15.1180    9.5460   12.3160 C.3   119  LEU119      0.0001
     66  CD2       16.0400   11.5050   13.5930 C.3   119  LEU119      0.0001
     67  N         17.6710    8.6570   17.2030 N.am  120  LEU120     -0.1977
     68  CA        17.7630    7.6950   18.2960 C.3   120  LEU120      0.1596
     69  C         17.1820    6.3560   17.8740 C.2   120  LEU120      0.2287
     70  O         16.1780    6.2980   17.1610 O.2   120  LEU120     -0.2864
     71  CB        17.0060    8.2100   19.5240 C.3   120  LEU120      0.0297
     72  CG        17.7250    8.6210   20.8120 C.3   120  LEU120      0.0022
     73  CD1       19.0090    9.4040   20.5620 C.3   120  LEU120      0.0001
     74  CD2       16.7690    9.4060   21.6930 C.3   120  LEU120      0.0001
     75  N          3.7750    5.1150   18.8130 N.3   155  ASN155     -0.1225
     76  CA         4.7540    6.0190   19.4220 C.3   155  ASN155      0.1785
     77  C          4.0800    7.3400   19.7580 C.2   155  ASN155      0.2597
     78  O          3.5820    8.0150   18.8590 O.2   155  ASN155     -0.2718
     79  CB         5.9050    6.3150   18.4530 C.3   155  ASN155      0.1169
     80  CG         6.8500    5.1400   18.2380 C.2   155  ASN155      0.2627
     81  OD1        6.5760    3.9910   18.6020 O.2   155  ASN155     -0.2716
     82  ND2        7.9850    5.4390   17.6200 N.am  155  ASN155     -0.0877
     83  N          4.0760    7.7070   21.0360 N.am  156  PHE156     -0.1962
     84  CA         3.4540    8.9570   21.4880 C.3   156  PHE156      0.1771
     85  C          4.4470   10.1180   21.4220 C.2   156  PHE156      0.2619
     86  O          5.5520   10.0150   21.9530 O.2   156  PHE156     -0.2715
     87  CB         2.8930    8.7950   22.9070 C.3   156  PHE156      0.0574
     88  CG         1.7640    7.8020   23.0020 C.ar  156  PHE156     -0.0200
     89  CD1        2.0130    6.4740   23.3320 C.ar  156  PHE156     -0.0042
     90  CD2        0.4530    8.2000   22.7560 C.ar  156  PHE156     -0.0042
     91  CE1        0.9700    5.5490   23.4080 C.ar  156  PHE156     -0.0003
     92  CE2       -0.5950    7.2860   22.8370 C.ar  156  PHE156     -0.0003
     93  CZ        -0.3370    5.9620   23.1620 C.ar  156  PHE156     -0.0000
     94  N          4.0480   11.2140   20.7770 N.am  157  PHE157     -0.1974
     95  CA         4.9500   12.3470   20.5370 C.3   157  PHE157      0.1639
     96  C          5.3170   13.1470   21.7920 C.2   157  PHE157      0.2290
     97  O          6.4770   13.5360   21.9590 O.2   157  PHE157     -0.2864
     98  CB         4.3730   13.3180   19.4920 C.3   157  PHE157      0.0560
     99  CG         4.0850   12.6970   18.1470 C.ar  157  PHE157     -0.0200
    100  CD1        2.8380   12.8690   17.5540 C.ar  157  PHE157     -0.0042
    101  CD2        5.0510   11.9600   17.4640 C.ar  157  PHE157     -0.0042
    102  CE1        2.5550   12.3170   16.3060 C.ar  157  PHE157     -0.0003
    103  CE2        4.7720   11.4020   16.2170 C.ar  157  PHE157     -0.0003
    104  CZ         3.5220   11.5790   15.6420 C.ar  157  PHE157     -0.0000
    105  N          7.1900   10.5780   24.5380 N.3   160  HIS160     -0.1241
    106  CA         8.1200    9.6070   23.9350 C.3   160  HIS160      0.1621
    107  C          7.9010    8.1700   24.3960 C.2   160  HIS160      0.2264
    108  O          8.7720    7.3130   24.2270 O.2   160  HIS160     -0.2867
    109  CB         9.5750   10.0470   24.1400 C.3   160  HIS160      0.0745
    110  CG         9.8140   11.4730   23.7670 C.ar  160  HIS160      0.0817
    111  ND1        9.8820   11.8960   22.4580 N.ar  160  HIS160     -0.2268
    112  CD2        9.9600   12.5820   24.5300 C.ar  160  HIS160      0.1154
    113  CE1       10.0770   13.2020   22.4300 C.ar  160  HIS160      0.1986
    114  NE2       10.1300   13.6420   23.6740 N.ar  160  HIS160     -0.2212
    115  N          6.0890    4.4570   24.1620 N.3   162  LYS162     -0.1245
    116  CA         5.7840    3.6130   23.0050 C.3   162  LYS162      0.1561
    117  C          5.1540    2.2930   23.4230 C.2   162  LYS162      0.2260
    118  O          5.4860    1.7340   24.4750 O.2   162  LYS162     -0.2867
    119  CB         7.0490    3.3500   22.1750 C.3   162  LYS162      0.0271
    120  CG         7.8170    4.6150   21.7940 C.3   162  LYS162      0.0035
    121  CD         9.1230    4.3080   21.0810 C.3   162  LYS162      0.0206
    122  CE         9.8640    5.5860   20.7080 C.3   162  LYS162      0.1093
    123  NZ        10.3000    6.3520   21.9080 N.3   162  LYS162     -0.1314
@<TRIPOS>BOND
     1    37    38    1
     2    33    32    2
     3    41    38    1
     4    41    42    1
     5    35    34    1
     6    38    39    1
     7    34    36    1
     8    34    31    1
     9    43    42   ar
    10    43    45   ar
    11    32    31    1
    12    42    44   ar
    13    31    30    1
    14    45    47   ar
    15    39    40    2
    16    44    46   ar
    17    30    18   am
    18    58    56   ar
    19    58    57   ar
    20    47    46   ar
    21    47    48    1
    22    56    54   ar
    23    57    55   ar
    24    18    17    1
    25    18    19    2
    26    54    55   ar
    27    54    53    1
    28    17    20    1
    29    17    16    1
    30    20    21    1
    31    26    28   ar
    32    26    23   ar
    33    28    29   ar
    34    10     9    2
    35    53    50    1
    36    16     9   am
    37    49    50    1
    38    65    64    1
    39    23    21   ar
    40    23    25   ar
    41    21    22   ar
    42     9     8    1
    43    50    51    1
    44    64    66    1
    45    64    63    1
    46    29    27   ar
    47    11     8    1
    48    11    12    1
    49    13    12    1
    50    13    14    1
    51     8     7    1
    52    22    24   ar
    53    25    27   ar
    54    25    24   ar
    55    51    59   am
    56    51    52    2
    57    59    60    1
    58    63    60    1
    59    15    14    1
    60     7     3   am
    61    60    61    1
    62     1     2    1
    63     3     2    1
    64     3     4    2
    65   104   103   ar
    66   104   102   ar
    67     5     2    1
    68     5     6    1
    69    62    61    2
    70    61    67   am
    71   103   101   ar
    72   102   100   ar
    73    70    69    2
    74    67    68    1
    75   101    99   ar
    76   100    99   ar
    77    82    80   am
    78    69    68    1
    79    99    98    1
    80    80    79    1
    81    80    81    2
    82    68    71    1
    83    79    76    1
    84    75    76    1
    85    78    77    2
    86    76    77    1
    87    98    95    1
    88    71    72    1
    89    77    83   am
    90    95    94    1
    91    95    96    1
    92    73    72    1
    93   122   121    1
    94   122   123    1
    95    94    85   am
    96    72    74    1
    97    83    84    1
    98   121   120    1
    99    85    84    1
   100    85    86    2
   101    84    87    1
   102    96    97    2
   103   120   119    1
   104   119   116    1
   105   113   111   ar
   106   113   114   ar
   107   111   110   ar
   108    90    92   ar
   109    90    88   ar
   110    92    93   ar
   111    87    88    1
   112    88    89   ar
   113   116   117    1
   114   116   115    1
   115    93    91   ar
   116    89    91   ar
   117   117   118    2
   118   114   112   ar
   119   110   109    1
   120   110   112   ar
   121   106   109    1
   122   106   107    1
   123   106   105    1
   124   108   107    2
