@<TRIPOS>MOLECULE
tmp/3q1mA00.pdb
 123 119 0 0 0
SMALL
GASTEIGER

@<TRIPOS>ATOM
      1  N         60.7280   30.6960   66.9320 N.3   143  PRO143     -0.2116
      2  CA        60.2140   29.3950   67.3340 C.3   143  PRO143      0.1372
      3  C         58.7790   29.4930   67.7800 C.2   143  PRO143      0.2244
      4  O         58.0490   28.5070   67.7460 O.2   143  PRO143     -0.2868
      5  CB        61.0920   29.0050   68.5220 C.3   143  PRO143      0.0268
      6  CG        62.0970   30.0630   68.6720 C.3   143  PRO143      0.0207
      7  CD        62.0580   30.9580   67.4980 C.3   143  PRO143      0.0892
      8  N         56.9410   30.1830   64.1040 N.3   146  VAL146     -0.1231
      9  CA        57.3480   29.3440   62.9760 C.3   146  VAL146      0.1692
     10  C         56.3560   28.2330   62.8080 C.2   146  VAL146      0.2592
     11  O         55.7070   27.8080   63.7630 O.2   146  VAL146     -0.2718
     12  CB        58.7360   28.7070   63.1040 C.3   146  VAL146      0.0266
     13  CG1       58.6670   27.4020   63.8600 C.3   146  VAL146      0.0020
     14  CG2       59.2610   28.4120   61.7420 C.3   146  VAL146      0.0020
     15  N         56.2990   27.7220   61.5940 N.am  147  LEU147     -0.1966
     16  CA        55.1160   27.0660   61.1010 C.3   147  LEU147      0.1728
     17  C         55.5530   26.3560   59.8320 C.2   147  LEU147      0.2616
     18  O         56.3110   26.9130   59.0290 O.2   147  LEU147     -0.2715
     19  CB        54.0870   28.1380   60.8130 C.3   147  LEU147      0.0311
     20  CG        52.6630   27.6900   60.6910 C.3   147  LEU147      0.0022
     21  CD1       51.8170   28.8810   61.0100 C.3   147  LEU147      0.0001
     22  CD2       52.4660   27.2820   59.2880 C.3   147  LEU147      0.0001
     23  N         55.1860   25.0940   59.6830 N.am  148  ASN148     -0.1972
     24  CA        55.8310   24.3260   58.6380 C.3   148  ASN148      0.1688
     25  C         55.2890   24.6420   57.2350 C.2   148  ASN148      0.2292
     26  O         55.9480   24.3790   56.2350 O.2   148  ASN148     -0.2864
     27  CB        55.8450   22.8390   58.9690 C.3   148  ASN148      0.1181
     28  CG        54.5520   22.3780   59.5240 C.2   148  ASN148      0.2629
     29  OD1       53.5060   22.9190   59.1850 O.2   148  ASN148     -0.2716
     30  ND2       54.5980   21.3840   60.3990 N.am  148  ASN148     -0.0877
     31  N         57.6100   26.4110   55.1830 N.3   151  TYR151     -0.1241
     32  CA        58.6610   25.6960   54.4820 C.3   151  TYR151      0.1605
     33  C         58.2920   25.3930   53.0290 C.2   151  TYR151      0.2264
     34  O         59.1180   24.8990   52.2480 O.2   151  TYR151     -0.2867
     35  CB        59.0260   24.4180   55.2500 C.3   151  TYR151      0.0534
     36  CG        59.9700   24.6850   56.3910 C.ar  151  TYR151     -0.0201
     37  CD1       59.4970   25.0720   57.6520 C.ar  151  TYR151     -0.0009
     38  CD2       61.3390   24.6190   56.2000 C.ar  151  TYR151     -0.0009
     39  CE1       60.3850   25.3530   58.7070 C.ar  151  TYR151      0.0417
     40  CE2       62.2260   24.8950   57.2340 C.ar  151  TYR151      0.0417
     41  CZ        61.7510   25.2640   58.4800 C.ar  151  TYR151      0.1957
     42  OH        62.6630   25.5510   59.4630 O.3   151  TYR151     -0.2866
     43  N         63.4530   19.6940   59.3090 N.3   169  TYR169     -0.1241
     44  CA        63.2350   21.1200   59.1020 C.3   169  TYR169      0.1605
     45  C         64.2580   21.8640   59.9260 C.2   169  TYR169      0.2264
     46  O         64.5100   21.5120   61.0670 O.2   169  TYR169     -0.2867
     47  CB        61.8420   21.4900   59.5890 C.3   169  TYR169      0.0534
     48  CG        60.7370   20.8820   58.7610 C.ar  169  TYR169     -0.0201
     49  CD1       60.5240   19.5070   58.7270 C.ar  169  TYR169     -0.0009
     50  CD2       59.9160   21.6870   57.9920 C.ar  169  TYR169     -0.0009
     51  CE1       59.5180   18.9600   57.9470 C.ar  169  TYR169      0.0417
     52  CE2       58.9100   21.1520   57.2130 C.ar  169  TYR169      0.0417
     53  CZ        58.7110   19.7940   57.1880 C.ar  169  TYR169      0.1957
     54  OH        57.6970   19.3020   56.3880 O.3   169  TYR169     -0.2866
     55  N         66.3490   25.5750   61.2150 N.3   171  ALA171     -0.1245
     56  CA        66.5890   27.0100   61.2170 C.3   171  ALA171      0.1562
     57  C         67.9010   27.3230   61.8890 C.2   171  ALA171      0.2260
     58  O         68.5110   26.4640   62.5250 O.2   171  ALA171     -0.2867
     59  CB        65.4600   27.7490   61.8970 C.3   171  ALA171      0.0290
     60  N         64.7240   33.8290   64.1750 N.3   186  TYR186     -0.1241
     61  CA        65.5870   33.0300   63.3170 C.3   186  TYR186      0.1605
     62  C         66.1930   33.9040   62.2420 C.2   186  TYR186      0.2264
     63  O         65.5770   34.8920   61.8220 O.2   186  TYR186     -0.2867
     64  CB        64.7490   31.9920   62.6050 C.3   186  TYR186      0.0534
     65  CG        64.2450   30.8700   63.4570 C.ar  186  TYR186     -0.0201
     66  CD1       62.8980   30.5220   63.4410 C.ar  186  TYR186     -0.0009
     67  CD2       65.1130   30.1200   64.2460 C.ar  186  TYR186     -0.0009
     68  CE1       62.4190   29.4690   64.2040 C.ar  186  TYR186      0.0417
     69  CE2       64.6470   29.0650   65.0160 C.ar  186  TYR186      0.0417
     70  CZ        63.2970   28.7420   64.9900 C.ar  186  TYR186      0.1957
     71  OH        62.8180   27.6930   65.7480 O.3   186  TYR186     -0.2866
     72  N         60.9860   17.0150   71.5830 N.3   223  PHE223     -0.1241
     73  CA        60.5270   18.3950   71.7040 C.3   223  PHE223      0.1605
     74  C         59.4820   18.5500   72.7780 C.2   223  PHE223      0.2264
     75  O         58.6640   17.6450   72.9860 O.2   223  PHE223     -0.2867
     76  CB        59.9330   18.9110   70.4040 C.3   223  PHE223      0.0534
     77  CG        59.3600   20.2980   70.5140 C.ar  223  PHE223     -0.0203
     78  CD1       60.1850   21.4090   70.4000 C.ar  223  PHE223     -0.0042
     79  CD2       58.0010   20.4880   70.7320 C.ar  223  PHE223     -0.0042
     80  CE1       59.6770   22.6910   70.4960 C.ar  223  PHE223     -0.0003
     81  CE2       57.4770   21.7700   70.8310 C.ar  223  PHE223     -0.0003
     82  CZ        58.3220   22.8780   70.7080 C.ar  223  PHE223     -0.0000
     83  N         62.6570   23.0840   75.1560 N.3   228  TYR228     -0.1241
     84  CA        63.3210   23.7150   74.0360 C.3   228  TYR228      0.1605
     85  C         64.2670   24.7570   74.5440 C.2   228  TYR228      0.2264
     86  O         65.4600   24.6950   74.2550 O.2   228  TYR228     -0.2867
     87  CB        62.3150   24.3830   73.1000 C.3   228  TYR228      0.0534
     88  CG        62.9560   25.1800   71.9740 C.ar  228  TYR228     -0.0201
     89  CD1       63.7730   24.5600   71.0260 C.ar  228  TYR228     -0.0009
     90  CD2       62.7330   26.5490   71.8540 C.ar  228  TYR228     -0.0009
     91  CE1       64.3590   25.2840   70.0020 C.ar  228  TYR228      0.0417
     92  CE2       63.3080   27.2770   70.8260 C.ar  228  TYR228      0.0417
     93  CZ        64.1200   26.6420   69.9040 C.ar  228  TYR228      0.1957
     94  OH        64.6920   27.3790   68.8930 O.3   228  TYR228     -0.2866
     95  N         69.4410   24.6070   64.2710 N.3   252  GLU252     -0.1245
     96  CA        68.3840   23.8250   64.9020 C.3   252  GLU252      0.1567
     97  C         67.6650   22.9130   63.8860 C.2   252  GLU252      0.2260
     98  O         67.3310   23.3550   62.7810 O.2   252  GLU252     -0.2867
     99  CB        67.4060   24.7750   65.5880 C.3   252  GLU252      0.0388
    100  CG        66.0600   24.1690   65.9320 C.3   252  GLU252      0.1160
    101  CD        65.0130   25.2320   66.2280 C.2   252  GLU252      0.3649
    102  OE1       65.4170   26.3190   66.7070 O.co2 252  GLU252     -0.2457
    103  OE2       63.8010   24.9820   65.9830 O.co2 252  GLU252     -0.2457
    104  N         64.4740   20.1540   63.4500 N.3   254  ILE254     -0.1245
    105  CA        63.3040   19.4240   63.8970 C.3   254  ILE254      0.1561
    106  C         63.0750   18.1800   63.0360 C.2   254  ILE254      0.2260
    107  O         62.9940   18.2780   61.8260 O.2   254  ILE254     -0.2867
    108  CB        62.0670   20.3370   63.8110 C.3   254  ILE254      0.0252
    109  CG1       62.2800   21.5870   64.6510 C.3   254  ILE254      0.0019
    110  CG2       60.8230   19.6240   64.2860 C.3   254  ILE254      0.0019
    111  CD1       62.7040   21.2730   66.0450 C.3   254  ILE254      0.0001
    112  N         58.3980   15.0820   68.1100 N.3   267  TYR267     -0.1241
    113  CA        59.4480   15.6260   67.2600 C.3   267  TYR267      0.1605
    114  C         60.7670   15.5160   67.9940 C.2   267  TYR267      0.2264
    115  O         60.8000   15.6830   69.1980 O.2   267  TYR267     -0.2867
    116  CB        59.1740   17.1010   67.0130 C.3   267  TYR267      0.0534
    117  CG        57.9230   17.4070   66.2260 C.ar  267  TYR267     -0.0201
    118  CD1       56.8080   16.5800   66.2890 C.ar  267  TYR267     -0.0009
    119  CD2       57.8440   18.5590   65.4450 C.ar  267  TYR267     -0.0009
    120  CE1       55.6560   16.8710   65.5690 C.ar  267  TYR267      0.0417
    121  CE2       56.7070   18.8640   64.7140 C.ar  267  TYR267      0.0417
    122  CZ        55.6100   18.0150   64.7780 C.ar  267  TYR267      0.1957
    123  OH        54.4680   18.3180   64.0520 O.3   267  TYR267     -0.2866
@<TRIPOS>BOND
     1    34    33    2
     2    33    32    1
     3    32    31    1
     4    32    35    1
     5    35    36    1
     6    38    36   ar
     7    38    40   ar
     8    26    25    2
     9    54    53    1
    10    36    37   ar
    11    53    52   ar
    12    53    51   ar
    13    52    50   ar
    14    40    41   ar
    15    25    24    1
    16    37    39   ar
    17    51    49   ar
    18    50    48   ar
    19    41    39   ar
    20    41    42    1
    21    24    27    1
    22    24    23    1
    23    49    48   ar
    24    48    47    1
    25    27    28    1
    26    18    17    2
    27    44    43    1
    28    44    47    1
    29    44    45    1
    30    29    28    2
    31    22    20    1
    32    28    30   am
    33    23    17   am
    34    17    16    1
    35    45    46    2
    36    20    19    1
    37    20    21    1
    38    19    16    1
    39    16    15    1
    40    55    56    1
    41    56    57    1
    42    56    59    1
    43    15    10   am
    44    14    12    1
    45    63    62    2
    46   107   106    2
    47    57    58    2
    48    62    61    1
    49    64    61    1
    50    64    65    1
    51    98    97    2
    52    10     9    1
    53    10    11    2
    54     9    12    1
    55     9     8    1
    56   106   105    1
    57    12    13    1
    58    61    60    1
    59    66    65   ar
    60    66    68   ar
    61   104   105    1
    62    65    67   ar
    63   108   105    1
    64   108   110    1
    65   108   109    1
    66    97    96    1
    67   123   122    1
    68    68    70   ar
    69    67    69   ar
    70    95    96    1
    71   109   111    1
    72   121   122   ar
    73   121   119   ar
    74   122   120   ar
    75    96    99    1
    76    70    69   ar
    77    70    71    1
    78   119   117   ar
    79   120   118   ar
    80    99   100    1
    81   100   101    1
    82   103   101   ar
    83   117   118   ar
    84   117   116    1
    85   101   102   ar
    86     1     2    1
    87     1     7    1
    88   116   113    1
    89   113   114    1
    90   113   112    1
    91     2     3    1
    92     2     5    1
    93     7     6    1
    94     4     3    2
    95   114   115    2
    96     5     6    1
    97    94    93    1
    98    93    91   ar
    99    93    92   ar
   100    91    89   ar
   101    78    80   ar
   102    78    77   ar
   103    76    77    1
   104    76    73    1
   105    80    82   ar
   106    77    79   ar
   107    82    81   ar
   108    79    81   ar
   109    92    90   ar
   110    89    88   ar
   111    72    73    1
   112    73    74    1
   113    90    88   ar
   114    88    87    1
   115    74    75    2
   116    87    84    1
   117    84    85    1
   118    84    83    1
   119    86    85    2
