@<TRIPOS>MOLECULE
tmp/3q1oA01.pdb
 143 131 0 0 0
SMALL
GASTEIGER

@<TRIPOS>ATOM
      1  N         11.0590  -25.5310  -32.6300 N.3    87  HIS87      -0.1241
      2  CA        11.0420  -26.9450  -32.2710 C.3    87  HIS87       0.1621
      3  C         12.0450  -27.7630  -33.1090 C.2    87  HIS87       0.2264
      4  O         12.8430  -28.5190  -32.5540 O.2    87  HIS87      -0.2867
      5  CB         9.6240  -27.5170  -32.3740 C.3    87  HIS87       0.0745
      6  CG         9.5640  -29.0000  -32.1930 C.ar   87  HIS87       0.0817
      7  ND1       10.0590  -29.6330  -31.0730 N.ar   87  HIS87      -0.2268
      8  CD2        9.0780  -29.9760  -32.9950 C.ar   87  HIS87       0.1154
      9  CE1        9.8900  -30.9380  -31.1970 C.ar   87  HIS87       0.1986
     10  NE2        9.2960  -31.1720  -32.3530 N.ar   87  HIS87      -0.2212
     11  N         15.7020  -27.2460  -32.1320 N.3    90  SER90      -0.1202
     12  CA        16.0890  -27.9800  -30.9240 C.3    90  SER90       0.2020
     13  C         16.3890  -29.4390  -31.2220 C.2    90  SER90       0.2618
     14  O         17.3120  -29.9930  -30.6450 O.2    90  SER90      -0.2717
     15  CB        15.0150  -27.8830  -29.8440 C.3    90  SER90       0.2103
     16  OG        13.8840  -28.6670  -30.1810 O.3    90  SER90      -0.2182
     17  N         15.5980  -30.0420  -32.1150 N.am   91  LEU91      -0.1979
     18  CA        15.8340  -31.4050  -32.6090 C.3    91  LEU91       0.1596
     19  C         17.2040  -31.5480  -33.2710 C.2    91  LEU91       0.2287
     20  O         17.9540  -32.4770  -32.9490 O.2    91  LEU91      -0.2864
     21  CB        14.7400  -31.8340  -33.5910 C.3    91  LEU91       0.0297
     22  CG        13.2810  -31.8400  -33.1270 C.3    91  LEU91       0.0022
     23  CD1       12.3630  -32.3770  -34.2190 C.3    91  LEU91       0.0001
     24  CD2       13.1210  -32.6490  -31.8660 C.3    91  LEU91       0.0001
     25  N         19.8050  -31.2370  -30.6140 N.3    94  ASP94      -0.1225
     26  CA        19.6790  -32.4330  -29.7890 C.3    94  ASP94       0.1805
     27  C         20.3930  -33.6460  -30.4070 C.2    94  ASP94       0.2597
     28  O         21.0080  -34.4310  -29.6970 O.2    94  ASP94      -0.2718
     29  CB        18.2030  -32.7620  -29.5570 C.3    94  ASP94       0.1424
     30  CG        18.0070  -33.8810  -28.5650 C.2    94  ASP94       0.3668
     31  OD1       18.3100  -33.6800  -27.3690 O.co2  94  ASP94      -0.2456
     32  OD2       17.5480  -34.9650  -28.9840 O.co2  94  ASP94      -0.2456
     33  N         20.3130  -33.7790  -31.7280 N.am   95  ASP95      -0.1974
     34  CA        20.8860  -34.9230  -32.4340 C.3    95  ASP95       0.1709
     35  C         22.3890  -34.8180  -32.6990 C.2    95  ASP95       0.2293
     36  O         22.9800  -35.7560  -33.2320 O.2    95  ASP95      -0.2864
     37  CB        20.1610  -35.1430  -33.7620 C.3    95  ASP95       0.1436
     38  CG        18.7020  -35.5150  -33.5840 C.2    95  ASP95       0.3671
     39  OD1       18.3430  -36.1230  -32.5540 O.co2  95  ASP95      -0.2456
     40  OD2       17.9100  -35.1990  -34.4920 O.co2  95  ASP95      -0.2456
     41  N         23.0210  -35.9720  -28.2700 N.3   100  ASP100     -0.1239
     42  CA        22.4850  -37.3440  -28.2730 C.3   100  ASP100      0.1674
     43  C         23.0380  -38.2360  -29.3760 C.2   100  ASP100      0.2266
     44  O         22.7220  -39.4280  -29.4150 O.2   100  ASP100     -0.2867
     45  CB        20.9550  -37.3590  -28.3330 C.3   100  ASP100      0.1410
     46  CG        20.3100  -36.7800  -27.0890 C.2   100  ASP100      0.3668
     47  OD1       19.0660  -36.6590  -27.0960 O.co2 100  ASP100     -0.2456
     48  OD2       21.0230  -36.4400  -26.1150 O.co2 100  ASP100     -0.2456
     49  N         16.4010  -38.8160  -37.9500 N.3   105  ARG105     -0.1245
     50  CA        15.2030  -38.1610  -37.4190 C.3   105  ARG105      0.1563
     51  C         14.1720  -37.8910  -38.5070 C.2   105  ARG105      0.2260
     52  O         14.5310  -37.5040  -39.6240 O.2   105  ARG105     -0.2867
     53  CB        15.5070  -36.8590  -36.6710 C.3   105  ARG105      0.0307
     54  CG        14.3160  -36.4520  -35.8040 C.3   105  ARG105      0.0489
     55  CD        14.5350  -35.2120  -35.0280 C.3   105  ARG105      0.2205
     56  NE        15.3260  -35.3980  -33.8130 N.pl3 105  ARG105     -0.0865
     57  CZ        14.8470  -35.7730  -32.6280 C.cat 105  ARG105      0.5346
     58  NH1       13.5590  -36.0580  -32.4600 N.pl3 105  ARG105      0.1354
     59  NH2       15.6760  -35.8670  -31.5990 N.pl3 105  ARG105      0.1354
     60  N         13.1380  -24.4040  -22.3130 N.3   161  MET161     -0.1245
     61  CA        13.6540  -25.5190  -23.1020 C.3   161  MET161      0.1570
     62  C         15.1440  -25.7770  -22.8730 C.2   161  MET161      0.2261
     63  O         15.5590  -26.9250  -22.7290 O.2   161  MET161     -0.2867
     64  CB        13.3580  -25.2940  -24.5910 C.3   161  MET161      0.0387
     65  CG        13.5650  -26.5160  -25.4640 C.3   161  MET161      0.0595
     66  SD        13.1950  -26.2200  -27.2020 S.3   161  MET161     -0.1393
     67  CE        14.3740  -24.9320  -27.5730 C.3   161  MET161      0.0692
     68  N         17.3970  -29.0220  -21.4470 N.3   165  GLN165     -0.1245
     69  CA        18.4350  -29.6750  -22.2510 C.3   165  GLN165      0.1566
     70  C         19.7710  -29.7250  -21.5310 C.2   165  GLN165      0.2260
     71  O         20.4360  -30.7550  -21.5430 O.2   165  GLN165     -0.2867
     72  CB        18.5980  -28.9890  -23.6190 C.3   165  GLN165      0.0367
     73  CG        17.5660  -29.3830  -24.6650 C.3   165  GLN165      0.0905
     74  CD        17.7310  -30.8130  -25.1500 C.2   165  GLN165      0.2608
     75  OE1       17.3010  -31.7660  -24.4930 O.2   165  GLN165     -0.2717
     76  NE2       18.3400  -30.9680  -26.3190 N.am  165  GLN165     -0.0878
     77  N         19.5450  -32.3020  -18.7410 N.3   168  ASP168     -0.1239
     78  CA        19.5540  -33.6290  -19.3510 C.3   168  ASP168      0.1674
     79  C         20.9670  -34.0910  -19.6800 C.2   168  ASP168      0.2266
     80  O         21.3330  -35.2320  -19.3880 O.2   168  ASP168     -0.2867
     81  CB        18.6930  -33.6240  -20.6100 C.3   168  ASP168      0.1410
     82  CG        18.2670  -35.0160  -21.0490 C.2   168  ASP168      0.3668
     83  OD1       18.5210  -36.0030  -20.3230 O.co2 168  ASP168     -0.2456
     84  OD2       17.6590  -35.1220  -22.1380 O.co2 168  ASP168     -0.2456
     85  N         12.5120  -29.1790  -20.5100 N.3   188  LYS188     -0.1231
     86  CA        12.8860  -29.7440  -21.8050 C.3   188  LYS188      0.1693
     87  C         11.7310  -29.8280  -22.8220 C.2   188  LYS188      0.2592
     88  O         11.9290  -29.5530  -24.0080 O.2   188  LYS188     -0.2718
     89  CB        13.4780  -31.1380  -21.5710 C.3   188  LYS188      0.0285
     90  CG        14.1330  -31.7900  -22.7570 C.3   188  LYS188      0.0035
     91  CD        14.6960  -33.1620  -22.4110 C.3   188  LYS188      0.0206
     92  CE        13.6020  -34.2150  -22.3240 C.3   188  LYS188      0.1093
     93  NZ        14.1490  -35.5900  -22.4730 N.3   188  LYS188     -0.1314
     94  N         10.5300  -30.1780  -22.3590 N.am  189  THR189     -0.1953
     95  CA         9.4300  -30.5200  -23.2680 C.3   189  THR189      0.1897
     96  C          8.1190  -29.7540  -23.0410 C.2   189  THR189      0.2313
     97  O          7.5020  -29.2770  -23.9990 O.2   189  THR189     -0.2863
     98  CB         9.1810  -32.0370  -23.2430 C.3   189  THR189      0.1794
     99  OG1       10.3970  -32.7010  -23.5900 O.3   189  THR189     -0.2208
    100  CG2        8.0930  -32.4560  -24.2210 C.3   189  THR189      0.0378
    101  N          6.2770  -36.1810  -22.7920 N.3   227  GLN227     -0.1245
    102  CA         7.6450  -36.6790  -22.6540 C.3   227  GLN227      0.1566
    103  C          7.7360  -38.0710  -22.0230 C.2   227  GLN227      0.2260
    104  O          8.6110  -38.8640  -22.3830 O.2   227  GLN227     -0.2867
    105  CB         8.5050  -35.6840  -21.8740 C.3   227  GLN227      0.0367
    106  CG        10.0030  -35.9990  -21.8760 C.3   227  GLN227      0.0905
    107  CD        10.5850  -36.2000  -23.2580 C.2   227  GLN227      0.2608
    108  OE1       10.4170  -35.3590  -24.1400 O.2   227  GLN227     -0.2717
    109  NE2       11.2840  -37.3160  -23.4510 N.am  227  GLN227     -0.0878
    110  N          7.0180  -40.3080  -24.6830 N.3   230  ASP230     -0.1225
    111  CA         8.1790  -40.3120  -25.5710 C.3   230  ASP230      0.1805
    112  C          9.2780  -41.2180  -25.0290 C.2   230  ASP230      0.2597
    113  O          9.9330  -41.9230  -25.7980 O.2   230  ASP230     -0.2718
    114  CB         8.7270  -38.8920  -25.7810 C.3   230  ASP230      0.1424
    115  CG         9.8930  -38.8530  -26.7650 C.2   230  ASP230      0.3668
    116  OD1        9.6620  -39.0710  -27.9720 O.co2 230  ASP230     -0.2456
    117  OD2       11.0400  -38.6070  -26.3290 O.co2 230  ASP230     -0.2456
    118  N          9.4710  -41.1960  -23.7100 N.am  231  ASP231     -0.1974
    119  CA        10.4260  -42.0860  -23.0430 C.3   231  ASP231      0.1709
    120  C         10.0620  -43.5540  -23.2450 C.2   231  ASP231      0.2293
    121  O         10.9430  -44.3940  -23.4260 O.2   231  ASP231     -0.2864
    122  CB        10.5240  -41.7570  -21.5560 C.3   231  ASP231      0.1436
    123  CG        11.2390  -40.4430  -21.2910 C.2   231  ASP231      0.3671
    124  OD1       11.7370  -39.8210  -22.2510 O.co2 231  ASP231     -0.2456
    125  OD2       11.3180  -40.0300  -20.1170 O.co2 231  ASP231     -0.2456
    126  N         13.1250  -42.0790  -35.8160 N.3   244  LYS244     -0.1245
    127  CA        14.3200  -41.5290  -35.1850 C.3   244  LYS244      0.1561
    128  C         15.1270  -42.6110  -34.4860 C.2   244  LYS244      0.2260
    129  O         14.5930  -43.6750  -34.1640 O.2   244  LYS244     -0.2867
    130  CB        13.9430  -40.4240  -34.1870 C.3   244  LYS244      0.0271
    131  CG        12.9620  -40.8560  -33.0980 C.3   244  LYS244      0.0035
    132  CD        12.6830  -39.7370  -32.1160 C.3   244  LYS244      0.0206
    133  CE        11.8200  -40.2290  -30.9600 C.3   244  LYS244      0.1093
    134  NZ        11.2640  -39.0970  -30.1600 N.3   244  LYS244     -0.1314
    135  N         21.2120  -42.6610  -20.1530 N.3   252  LYS252     -0.1245
    136  CA        20.5970  -41.3470  -19.8940 C.3   252  LYS252      0.1561
    137  C         19.3940  -41.3760  -18.9340 C.2   252  LYS252      0.2260
    138  O         19.0050  -42.4290  -18.4190 O.2   252  LYS252     -0.2867
    139  CB        20.1890  -40.6920  -21.2170 C.3   252  LYS252      0.0271
    140  CG        20.1160  -39.1750  -21.1930 C.3   252  LYS252      0.0035
    141  CD        19.3630  -38.6690  -22.4110 C.3   252  LYS252      0.0206
    142  CE        20.0230  -37.4370  -22.9960 C.3   252  LYS252      0.1093
    143  NZ        19.1240  -36.7850  -23.9770 N.3   252  LYS252     -0.1314
@<TRIPOS>BOND
     1    52    51    2
     2    51    50    1
     3    49    50    1
     4    50    53    1
     5    53    54    1
     6   126   127    1
     7    54    55    1
     8   127   128    1
     9   127   130    1
    10    55    56    1
    11    40    38   ar
    12   128   129    2
    13    23    22    1
    14   130   131    1
    15    56    57    2
    16    37    38    1
    17    37    34    1
    18    21    22    1
    19    21    18    1
    20    38    39   ar
    21    19    20    2
    22    19    18    1
    23    36    35    2
    24    22    24    1
    25     3     4    2
    26     3     2    1
    27   131   132    1
    28     8    10   ar
    29     8     6   ar
    30    35    34    1
    31     1     2    1
    32    57    58    1
    33    57    59    1
    34    18    17    1
    35    34    33    1
    36     5     2    1
    37     5     6    1
    38    10     9   ar
    39     6     7   ar
    40    11    12    1
    41   132   133    1
    42    17    13   am
    43    33    27   am
    44    13    12    1
    45    13    14    2
    46     9     7   ar
    47   133   134    1
    48    12    15    1
    49    25    26    1
    50    27    26    1
    51    27    28    2
    52    16    15    1
    53    26    29    1
    54    29    30    1
    55    44    43    2
    56    43    42    1
    57    32    30   ar
    58    30    31   ar
    59    45    42    1
    60    45    46    1
    61    42    41    1
    62   116   115   ar
    63    67    66    1
    64    66    65    1
    65    47    46   ar
    66    46    48   ar
    67   115   117   ar
    68   115   114    1
    69    76    74   am
    70   113   112    2
    71   114   111    1
    72   111   112    1
    73   111   110    1
    74    65    64    1
    75    74    73    1
    76    74    75    2
    77   112   118   am
    78    73    72    1
    79    64    61    1
    80   100    98    1
    81   108   107    2
    82    88    87    2
    83    97    96    2
    84   143   142    1
    85   118   119    1
    86    72    69    1
    87    99    98    1
    88   109   107   am
    89   121   120    2
    90    95    98    1
    91    95    96    1
    92    95    94    1
    93   107   106    1
    94   120   119    1
    95    61    62    1
    96    61    60    1
    97   119   122    1
    98   142   141    1
    99    62    63    2
   100    87    94   am
   101    87    86    1
   102   101   102    1
   103    90    91    1
   104    90    89    1
   105   102   103    1
   106   102   105    1
   107    93    92    1
   108   141   140    1
   109    91    92    1
   110   104   103    2
   111    69    70    1
   112    69    68    1
   113   124   123   ar
   114    84    82   ar
   115   106   105    1
   116    86    89    1
   117    86    85    1
   118   122   123    1
   119    71    70    2
   120   123   125   ar
   121   139   140    1
   122   139   136    1
   123    82    81    1
   124    82    83   ar
   125    81    78    1
   126   135   136    1
   127   136   137    1
   128    79    80    2
   129    79    78    1
   130    78    77    1
   131   137   138    2
