@<TRIPOS>MOLECULE
tmp/3q1oA00.pdb
 148 142 0 0 0
SMALL
GASTEIGER

@<TRIPOS>ATOM
      1  N          7.3050  -34.9130  -39.0910 N.3    48  GLY48      -0.1210
      2  CA         6.9230  -34.4280  -37.7770 C.3    48  GLY48       0.1956
      3  C          5.4220  -34.5090  -37.6440 C.2    48  GLY48       0.2612
      4  O          4.7060  -34.4180  -38.6380 O.2    48  GLY48      -0.2717
      5  N          4.9440  -34.6790  -36.4150 N.am   49  LYS49      -0.1965
      6  CA         3.5070  -34.7560  -36.1510 C.3    49  LYS49       0.1728
      7  C          2.8460  -33.3820  -36.1870 C.2    49  LYS49       0.2616
      8  O          1.6190  -33.2940  -36.2530 O.2    49  LYS49      -0.2715
      9  CB         3.2330  -35.4070  -34.7930 C.3    49  LYS49       0.0311
     10  CG         3.5890  -36.8860  -34.7100 C.3    49  LYS49       0.0038
     11  CD         3.3720  -37.4430  -33.2980 C.3    49  LYS49       0.0206
     12  CE         4.3750  -36.8760  -32.2930 C.3    49  LYS49       0.1093
     13  NZ         5.7930  -37.1190  -32.6970 N.3    49  LYS49      -0.1314
     14  N          3.6640  -32.3260  -36.1230 N.am   50  ARG50      -0.1963
     15  CA         3.2050  -30.9310  -36.0770 C.3    50  ARG50       0.1729
     16  C          2.3520  -30.7030  -34.8390 C.2    50  ARG50       0.2616
     17  O          1.4010  -29.9150  -34.8740 O.2    50  ARG50      -0.2715
     18  CB         2.4270  -30.5320  -37.3510 C.3    50  ARG50       0.0348
     19  CG         3.2490  -30.0430  -38.5540 C.3    50  ARG50       0.0492
     20  CD         4.6170  -30.6710  -38.6400 C.3    50  ARG50       0.2205
     21  NE         5.0580  -30.8620  -40.0100 N.pl3  50  ARG50      -0.0865
     22  CZ         6.3220  -30.7630  -40.4030 C.cat  50  ARG50       0.5346
     23  NH1        6.6310  -30.9690  -41.6750 N.pl3  50  ARG50       0.1354
     24  NH2        7.2740  -30.4420  -39.5300 N.pl3  50  ARG50       0.1354
     25  N          2.7100  -31.3860  -33.7490 N.am   51  PHE51      -0.1960
     26  CA         1.9140  -31.3830  -32.5240 C.3    51  PHE51       0.1771
     27  C          1.7420  -29.9870  -31.9550 C.2    51  PHE51       0.2619
     28  O          0.6470  -29.6130  -31.5360 O.2    51  PHE51      -0.2715
     29  CB         2.5150  -32.3180  -31.4630 C.3    51  PHE51       0.0574
     30  CG         1.7120  -32.3900  -30.1870 C.ar   51  PHE51      -0.0200
     31  CD1        0.3640  -32.7460  -30.2090 C.ar   51  PHE51      -0.0042
     32  CD2        2.3060  -32.1240  -28.9600 C.ar   51  PHE51      -0.0042
     33  CE1       -0.3780  -32.8240  -29.0250 C.ar   51  PHE51      -0.0003
     34  CE2        1.5730  -32.2060  -27.7720 C.ar   51  PHE51      -0.0003
     35  CZ         0.2270  -32.5520  -27.8080 C.ar   51  PHE51      -0.0000
     36  N          2.8260  -29.2210  -31.9610 N.am   52  ARG52      -0.1977
     37  CA         2.8060  -27.8680  -31.4200 C.3    52  ARG52       0.1597
     38  C          2.0000  -26.8650  -32.2810 C.2    52  ARG52       0.2287
     39  O          1.1900  -26.1170  -31.7280 O.2    52  ARG52      -0.2864
     40  CB         4.2280  -27.4020  -31.0880 C.3    52  ARG52       0.0334
     41  CG         4.8490  -28.2010  -29.9580 C.3    52  ARG52       0.0492
     42  CD         6.3350  -28.3540  -30.1180 C.3    52  ARG52       0.2205
     43  NE         6.8840  -29.3450  -29.1930 N.pl3  52  ARG52      -0.0865
     44  CZ         7.0170  -30.6400  -29.4680 C.cat  52  ARG52       0.5346
     45  NH1        7.5300  -31.4660  -28.5640 N.pl3  52  ARG52       0.1354
     46  NH2        6.6330  -31.1160  -30.6430 N.pl3  52  ARG52       0.1354
     47  N          7.1460  -24.2980  -35.0120 N.3    84  GLU84      -0.1245
     48  CA         7.7170  -25.4970  -35.6080 C.3    84  GLU84       0.1567
     49  C          9.2010  -25.3340  -35.9500 C.2    84  GLU84       0.2260
     50  O          9.9900  -26.2680  -35.7720 O.2    84  GLU84      -0.2867
     51  CB         6.9020  -25.9310  -36.8320 C.3    84  GLU84       0.0388
     52  CG         7.2870  -27.2940  -37.4300 C.3    84  GLU84       0.1160
     53  CD         7.0550  -28.4750  -36.4880 C.2    84  GLU84       0.3649
     54  OE1        6.3310  -28.3350  -35.4780 O.co2  84  GLU84      -0.2457
     55  OE2        7.5970  -29.5630  -36.7730 O.co2  84  GLU84      -0.2457
     56  N         11.0590  -25.5310  -32.6300 N.3    87  HIS87      -0.1241
     57  CA        11.0420  -26.9450  -32.2710 C.3    87  HIS87       0.1621
     58  C         12.0450  -27.7630  -33.1090 C.2    87  HIS87       0.2264
     59  O         12.8430  -28.5190  -32.5540 O.2    87  HIS87      -0.2867
     60  CB         9.6240  -27.5170  -32.3740 C.3    87  HIS87       0.0745
     61  CG         9.5640  -29.0000  -32.1930 C.ar   87  HIS87       0.0817
     62  ND1       10.0590  -29.6330  -31.0730 N.ar   87  HIS87      -0.2268
     63  CD2        9.0780  -29.9760  -32.9950 C.ar   87  HIS87       0.1154
     64  CE1        9.8900  -30.9380  -31.1970 C.ar   87  HIS87       0.1986
     65  NE2        9.2960  -31.1720  -32.3530 N.ar   87  HIS87      -0.2212
     66  N         15.5980  -30.0420  -32.1150 N.3    91  LEU91      -0.1245
     67  CA        15.8340  -31.4050  -32.6090 C.3    91  LEU91       0.1561
     68  C         17.2040  -31.5480  -33.2710 C.2    91  LEU91       0.2260
     69  O         17.9540  -32.4770  -32.9490 O.2    91  LEU91      -0.2867
     70  CB        14.7400  -31.8340  -33.5910 C.3    91  LEU91       0.0270
     71  CG        13.2810  -31.8400  -33.1270 C.3    91  LEU91       0.0019
     72  CD1       12.3630  -32.3770  -34.2190 C.3    91  LEU91       0.0001
     73  CD2       13.1210  -32.6490  -31.8660 C.3    91  LEU91       0.0001
     74  N         16.4010  -38.8160  -37.9500 N.3   105  ARG105     -0.1231
     75  CA        15.2030  -38.1610  -37.4190 C.3   105  ARG105      0.1694
     76  C         14.1720  -37.8910  -38.5070 C.2   105  ARG105      0.2591
     77  O         14.5310  -37.5040  -39.6240 O.2   105  ARG105     -0.2718
     78  CB        15.5070  -36.8590  -36.6710 C.3   105  ARG105      0.0321
     79  CG        14.3160  -36.4520  -35.8040 C.3   105  ARG105      0.0489
     80  CD        14.5350  -35.2120  -35.0280 C.3   105  ARG105      0.2205
     81  NE        15.3260  -35.3980  -33.8130 N.pl3 105  ARG105     -0.0865
     82  CZ        14.8470  -35.7730  -32.6280 C.cat 105  ARG105      0.5346
     83  NH1       13.5590  -36.0580  -32.4600 N.pl3 105  ARG105      0.1354
     84  NH2       15.6760  -35.8670  -31.5990 N.pl3 105  ARG105      0.1354
     85  N         12.8970  -38.0980  -38.1570 N.am  106  ARG106     -0.1980
     86  CA        11.7480  -37.8860  -39.0460 C.3   106  ARG106      0.1597
     87  C         11.8850  -38.7150  -40.3370 C.2   106  ARG106      0.2287
     88  O         11.5950  -38.2300  -41.4370 O.2   106  ARG106     -0.2864
     89  CB        11.5270  -36.3830  -39.3230 C.3   106  ARG106      0.0334
     90  CG        11.1890  -35.5530  -38.0770 C.3   106  ARG106      0.0492
     91  CD        11.3100  -34.0440  -38.3200 C.3   106  ARG106      0.2205
     92  NE        10.6570  -33.2620  -37.2620 N.pl3 106  ARG106     -0.0865
     93  CZ        10.4010  -31.9530  -37.3090 C.cat 106  ARG106      0.5346
     94  NH1       10.7330  -31.2240  -38.3650 N.pl3 106  ARG106      0.1354
     95  NH2        9.8040  -31.3620  -36.2890 N.pl3 106  ARG106      0.1354
     96  N         12.5120  -29.1790  -20.5100 N.3   188  LYS188     -0.1231
     97  CA        12.8860  -29.7440  -21.8050 C.3   188  LYS188      0.1693
     98  C         11.7310  -29.8280  -22.8220 C.2   188  LYS188      0.2592
     99  O         11.9290  -29.5530  -24.0080 O.2   188  LYS188     -0.2718
    100  CB        13.4780  -31.1380  -21.5710 C.3   188  LYS188      0.0285
    101  CG        14.1330  -31.7900  -22.7570 C.3   188  LYS188      0.0035
    102  CD        14.6960  -33.1620  -22.4110 C.3   188  LYS188      0.0206
    103  CE        13.6020  -34.2150  -22.3240 C.3   188  LYS188      0.1093
    104  NZ        14.1490  -35.5900  -22.4730 N.3   188  LYS188     -0.1314
    105  N         10.5300  -30.1780  -22.3590 N.am  189  THR189     -0.1953
    106  CA         9.4300  -30.5200  -23.2680 C.3   189  THR189      0.1897
    107  C          8.1190  -29.7540  -23.0410 C.2   189  THR189      0.2313
    108  O          7.5020  -29.2770  -23.9990 O.2   189  THR189     -0.2863
    109  CB         9.1810  -32.0370  -23.2430 C.3   189  THR189      0.1794
    110  OG1       10.3970  -32.7010  -23.5900 O.3   189  THR189     -0.2208
    111  CG2        8.0930  -32.4560  -24.2210 C.3   189  THR189      0.0378
    112  N          3.4410  -35.9210  -22.3840 N.3   226  PHE226     -0.1227
    113  CA         4.0130  -36.0850  -23.7190 C.3   226  PHE226      0.1736
    114  C          5.4170  -36.7100  -23.6620 C.2   226  PHE226      0.2595
    115  O          5.6980  -37.6670  -24.3840 O.2   226  PHE226     -0.2718
    116  CB         4.0440  -34.7370  -24.4540 C.3   226  PHE226      0.0547
    117  CG         4.4500  -34.8350  -25.9060 C.ar  226  PHE226     -0.0202
    118  CD1        5.7710  -34.6190  -26.2950 C.ar  226  PHE226     -0.0042
    119  CD2        3.5100  -35.1310  -26.8830 C.ar  226  PHE226     -0.0042
    120  CE1        6.1450  -34.7100  -27.6260 C.ar  226  PHE226     -0.0003
    121  CE2        3.8760  -35.2220  -28.2210 C.ar  226  PHE226     -0.0003
    122  CZ         5.1950  -35.0090  -28.5950 C.ar  226  PHE226     -0.0000
    123  N          6.2770  -36.1810  -22.7920 N.am  227  GLN227     -0.1979
    124  CA         7.6450  -36.6790  -22.6540 C.3   227  GLN227      0.1601
    125  C          7.7360  -38.0710  -22.0230 C.2   227  GLN227      0.2287
    126  O          8.6110  -38.8640  -22.3830 O.2   227  GLN227     -0.2864
    127  CB         8.5050  -35.6840  -21.8740 C.3   227  GLN227      0.0394
    128  CG        10.0030  -35.9990  -21.8760 C.3   227  GLN227      0.0908
    129  CD        10.5850  -36.2000  -23.2580 C.2   227  GLN227      0.2608
    130  OE1       10.4170  -35.3590  -24.1400 O.2   227  GLN227     -0.2717
    131  NE2       11.2840  -37.3160  -23.4510 N.am  227  GLN227     -0.0878
    132  N          7.0180  -40.3080  -24.6830 N.3   230  ASP230     -0.1239
    133  CA         8.1790  -40.3120  -25.5710 C.3   230  ASP230      0.1674
    134  C          9.2780  -41.2180  -25.0290 C.2   230  ASP230      0.2266
    135  O          9.9330  -41.9230  -25.7980 O.2   230  ASP230     -0.2867
    136  CB         8.7270  -38.8920  -25.7810 C.3   230  ASP230      0.1410
    137  CG         9.8930  -38.8530  -26.7650 C.2   230  ASP230      0.3668
    138  OD1        9.6620  -39.0710  -27.9720 O.co2 230  ASP230     -0.2456
    139  OD2       11.0400  -38.6070  -26.3290 O.co2 230  ASP230     -0.2456
    140  N         13.1250  -42.0790  -35.8160 N.3   244  LYS244     -0.1245
    141  CA        14.3200  -41.5290  -35.1850 C.3   244  LYS244      0.1561
    142  C         15.1270  -42.6110  -34.4860 C.2   244  LYS244      0.2260
    143  O         14.5930  -43.6750  -34.1640 O.2   244  LYS244     -0.2867
    144  CB        13.9430  -40.4240  -34.1870 C.3   244  LYS244      0.0271
    145  CG        12.9620  -40.8560  -33.0980 C.3   244  LYS244      0.0035
    146  CD        12.6830  -39.7370  -32.1160 C.3   244  LYS244      0.0206
    147  CE        11.8200  -40.2290  -30.9600 C.3   244  LYS244      0.1093
    148  NZ        11.2640  -39.0970  -30.1600 N.3   244  LYS244     -0.1314
@<TRIPOS>BOND
     1    23    22    1
     2    88    87    2
     3    22    21    2
     4    22    24    1
     5    87    86    1
     6    21    20    1
     7    77    76    2
     8    89    86    1
     9    89    90    1
    10     1     2    1
    11    86    85    1
    12    20    19    1
    13     4     3    2
    14    19    18    1
    15    76    85   am
    16    76    75    1
    17    94    93    1
    18    91    90    1
    19    91    92    1
    20    74    75    1
    21     2     3    1
    22     3     5   am
    23    52    51    1
    24    52    53    1
    25    75    78    1
    26    18    15    1
    27    93    92    2
    28    93    95    1
    29    51    48    1
    30    55    53   ar
    31    78    79    1
    32    53    54   ar
    33     5     6    1
    34     8     7    2
    35     7     6    1
    36     7    14   am
    37     6     9    1
    38    14    15    1
    39    15    16    1
    40    49    50    2
    41    49    48    1
    42   140   141    1
    43    79    80    1
    44    48    47    1
    45   141   142    1
    46   141   144    1
    47    80    81    1
    48    17    16    2
    49    16    25   am
    50     9    10    1
    51    10    11    1
    52   142   143    2
    53    72    71    1
    54   144   145    1
    55    81    82    2
    56    25    26    1
    57    70    71    1
    58    70    67    1
    59    11    12    1
    60    68    69    2
    61    68    67    1
    62    71    73    1
    63    58    59    2
    64    58    57    1
    65   145   146    1
    66    63    65   ar
    67    63    61   ar
    68    13    12    1
    69    56    57    1
    70    82    83    1
    71    82    84    1
    72    67    66    1
    73    26    27    1
    74    26    29    1
    75    60    57    1
    76    60    61    1
    77    65    64   ar
    78    38    39    2
    79    38    37    1
    80    61    62   ar
    81   146   147    1
    82    36    27   am
    83    36    37    1
    84    27    28    2
    85    29    30    1
    86    37    40    1
    87    64    62   ar
    88    40    41    1
    89   147   148    1
    90    46    44    1
    91    31    30   ar
    92    31    33   ar
    93    30    32   ar
    94    42    41    1
    95    42    43    1
    96    44    43    2
    97    44    45    1
    98    33    35   ar
    99    32    34   ar
   100   122   121   ar
   101   122   120   ar
   102   121   119   ar
   103   138   137   ar
   104    35    34   ar
   105   120   118   ar
   106   119   117   ar
   107   137   139   ar
   108   137   136    1
   109   118   117   ar
   110   117   116    1
   111   135   134    2
   112   136   133    1
   113   133   134    1
   114   133   132    1
   115   116   113    1
   116   115   114    2
   117   111   109    1
   118   130   129    2
   119    99    98    2
   120   108   107    2
   121   113   114    1
   122   113   112    1
   123   114   123   am
   124   110   109    1
   125   131   129   am
   126   106   109    1
   127   106   107    1
   128   106   105    1
   129   129   128    1
   130    98   105   am
   131    98    97    1
   132   123   124    1
   133   101   102    1
   134   101   100    1
   135   124   125    1
   136   124   127    1
   137   104   103    1
   138   102   103    1
   139   126   125    2
   140   128   127    1
   141    97   100    1
   142    97    96    1
