@<TRIPOS>MOLECULE
tmp/3q2aA00.pdb
 114 111 0 0 0
SMALL
GASTEIGER

@<TRIPOS>ATOM
      1  N         14.0230   26.0100  -18.6070 N.3   337  TRP337     -0.1241
      2  CA        13.1180   27.0660  -18.1570 C.3   337  TRP337      0.1605
      3  C         12.2850   26.6020  -16.9570 C.2   337  TRP337      0.2264
      4  O         11.1430   27.0400  -16.7590 O.2   337  TRP337     -0.2867
      5  CB        12.2200   27.5380  -19.3170 C.3   337  TRP337      0.0550
      6  CG        12.8780   28.5770  -20.2030 C.ar  337  TRP337      0.0003
      7  CD1       12.7500   29.9360  -20.1070 C.ar  337  TRP337      0.0946
      8  CD2       13.7650   28.3360  -21.3050 C.ar  337  TRP337      0.0152
      9  NE1       13.5030   30.5530  -21.0760 N.ar  337  TRP337     -0.2442
     10  CE2       14.1360   29.5960  -21.8260 C.ar  337  TRP337      0.0810
     11  CE3       14.2850   27.1820  -21.8990 C.ar  337  TRP337      0.0012
     12  CZ2       14.9980   29.7310  -22.9160 C.ar  337  TRP337      0.0191
     13  CZ3       15.1400   27.3180  -22.9840 C.ar  337  TRP337      0.0001
     14  CH2       15.4880   28.5860  -23.4800 C.ar  337  TRP337      0.0015
     15  N          9.7670   28.5020  -14.5040 N.3   340  THR340     -0.1218
     16  CA         8.4060   28.8690  -14.8820 C.3   340  THR340      0.1862
     17  C          7.4310   27.6920  -14.7570 C.2   340  THR340      0.2287
     18  O          6.2590   27.8150  -15.1030 O.2   340  THR340     -0.2866
     19  CB         8.3330   29.3820  -16.3390 C.3   340  THR340      0.1770
     20  OG1        8.7140   28.3300  -17.2350 O.3   340  THR340     -0.2211
     21  CG2        9.2530   30.5800  -16.5400 C.3   340  THR340      0.0375
     22  N         17.9180   30.6740  -17.8650 N.3   389  PRO389     -0.2102
     23  CA        17.6720   31.4330  -19.0980 C.3   389  PRO389      0.1504
     24  C         17.6470   32.9440  -18.8900 C.2   389  PRO389      0.2576
     25  O         17.2720   33.4300  -17.8210 O.2   389  PRO389     -0.2718
     26  CB        16.2750   30.9640  -19.5020 C.3   389  PRO389      0.0282
     27  CG        15.6100   30.6840  -18.1880 C.3   389  PRO389      0.0208
     28  CD        16.6840   30.0470  -17.3550 C.3   389  PRO389      0.0893
     29  N         18.0230   33.6850  -19.9230 N.am  390  GLU390     -0.1966
     30  CA        17.9330   35.1350  -19.8670 C.3   390  GLU390      0.1733
     31  C         17.1030   35.6740  -21.0260 C.2   390  GLU390      0.2617
     32  O         17.1390   36.8660  -21.3490 O.2   390  GLU390     -0.2715
     33  CB        19.3310   35.7530  -19.7880 C.3   390  GLU390      0.0429
     34  CG        20.0220   35.3960  -18.4670 C.3   390  GLU390      0.1163
     35  CD        21.5060   35.7020  -18.4540 C.2   390  GLU390      0.3649
     36  OE1       21.8960   36.7990  -18.9100 O.co2 390  GLU390     -0.2457
     37  OE2       22.2800   34.8370  -17.9860 O.co2 390  GLU390     -0.2457
     38  N         16.3420   34.7790  -21.6470 N.am  391  THR391     -0.1937
     39  CA        15.3630   35.1900  -22.6350 C.3   391  THR391      0.2028
     40  C         14.2270   34.1830  -22.7110 C.2   391  THR391      0.2642
     41  O         14.2150   33.2030  -21.9730 O.2   391  THR391     -0.2714
     42  CB        15.9850   35.3680  -24.0290 C.3   391  THR391      0.1808
     43  OG1       15.0250   35.9910  -24.8890 O.3   391  THR391     -0.2208
     44  CG2       16.3890   34.0180  -24.6150 C.3   391  THR391      0.0379
     45  N         13.2700   34.4370  -23.5960 N.am  392  LEU392     -0.1963
     46  CA        12.1680   33.5110  -23.7940 C.3   392  LEU392      0.1713
     47  C         12.4840   32.5440  -24.9190 C.2   392  LEU392      0.2458
     48  O         13.2130   32.8820  -25.8550 O.2   392  LEU392     -0.2730
     49  CB        10.8840   34.2560  -24.1420 C.3   392  LEU392      0.0310
     50  CG        10.2620   35.1590  -23.0910 C.3   392  LEU392      0.0022
     51  CD1       11.1070   36.4140  -22.9290 C.3   392  LEU392      0.0001
     52  CD2        8.8630   35.5090  -23.5320 C.3   392  LEU392      0.0001
     53  N         11.9390   31.3260  -24.8230 N.am  393  PRO393     -0.2727
     54  CA        11.9480   30.4300  -25.9770 C.3   393  PRO393      0.1402
     55  C         10.9140   30.9330  -26.9710 C.2   393  PRO393      0.2269
     56  O          9.9750   31.6280  -26.5640 O.2   393  PRO393     -0.2865
     57  CB        11.5000   29.0920  -25.3820 C.3   393  PRO393      0.0296
     58  CG        10.7040   29.4560  -24.1790 C.3   393  PRO393      0.0237
     59  CD        11.3090   30.7160  -23.6360 C.3   393  PRO393      0.0939
     60  N          2.2710   33.4190  -25.2090 N.3   449  ILE449     -0.1245
     61  CA         3.0190   34.1460  -24.1850 C.3   449  ILE449      0.1561
     62  C          4.0360   35.1160  -24.7910 C.2   449  ILE449      0.2260
     63  O          4.1820   36.2450  -24.3220 O.2   449  ILE449     -0.2867
     64  CB         3.7120   33.1840  -23.2020 C.3   449  ILE449      0.0252
     65  CG1        2.6720   32.5060  -22.3240 C.3   449  ILE449      0.0019
     66  CG2        4.6960   33.9430  -22.3110 C.3   449  ILE449      0.0019
     67  CD1        3.2680   31.7310  -21.1810 C.3   449  ILE449      0.0001
     68  N          4.1680   39.1810  -24.5550 N.3   453  PHE453     -0.1241
     69  CA         5.3820   39.8090  -24.0500 C.3   453  PHE453      0.1605
     70  C          5.8170   40.9370  -24.9850 C.2   453  PHE453      0.2264
     71  O          6.2190   42.0090  -24.5360 O.2   453  PHE453     -0.2867
     72  CB         6.4900   38.7590  -23.9150 C.3   453  PHE453      0.0534
     73  CG         7.7720   39.2930  -23.3520 C.ar  453  PHE453     -0.0203
     74  CD1        8.0050   39.2790  -21.9870 C.ar  453  PHE453     -0.0042
     75  CD2        8.7510   39.8030  -24.1890 C.ar  453  PHE453     -0.0042
     76  CE1        9.1900   39.7780  -21.4570 C.ar  453  PHE453     -0.0003
     77  CE2        9.9420   40.3000  -23.6670 C.ar  453  PHE453     -0.0003
     78  CZ        10.1590   40.2840  -22.2950 C.ar  453  PHE453     -0.0000
     79  N          9.2220   43.6980  -18.2310 N.3   461  MET461     -0.1230
     80  CA         9.6340   42.7670  -19.2750 C.3   461  MET461      0.1702
     81  C         10.9050   42.0090  -18.8990 C.2   461  MET461      0.2593
     82  O         11.9410   42.1320  -19.5530 O.2   461  MET461     -0.2718
     83  CB         9.7980   43.5070  -20.6000 C.3   461  MET461      0.0401
     84  CG         8.4750   44.0540  -21.1300 C.3   461  MET461      0.0596
     85  SD         8.5880   44.9510  -22.6960 S.3   461  MET461     -0.1393
     86  CE         9.3190   43.7130  -23.7660 C.3   461  MET461      0.0692
     87  N         10.8030   41.2100  -17.8440 N.am  462  THR462     -0.1939
     88  CA        11.9510   40.5290  -17.2640 C.3   462  THR462      0.2028
     89  C         11.4770   39.1840  -16.7700 C.2   462  THR462      0.2642
     90  O         10.2760   38.9250  -16.7480 O.2   462  THR462     -0.2714
     91  CB        12.4980   41.2820  -16.0460 C.3   462  THR462      0.1808
     92  OG1       11.5080   41.2890  -15.0130 O.3   462  THR462     -0.2208
     93  CG2       12.8540   42.7220  -16.4130 C.3   462  THR462      0.0379
     94  N         12.4130   38.3350  -16.3630 N.am  463  LEU463     -0.1977
     95  CA        12.0500   37.0020  -15.9000 C.3   463  LEU463      0.1596
     96  C         11.0740   37.0900  -14.7300 C.2   463  LEU463      0.2287
     97  O         10.1130   36.3280  -14.6610 O.2   463  LEU463     -0.2864
     98  CB        13.2920   36.1960  -15.5220 C.3   463  LEU463      0.0297
     99  CG        13.0790   34.7860  -14.9640 C.3   463  LEU463      0.0022
    100  CD1       12.2560   33.9230  -15.9140 C.3   463  LEU463      0.0001
    101  CD2       14.4210   34.1390  -14.6740 C.3   463  LEU463      0.0001
    102  N          7.5250   38.0740  -15.8410 N.3   466  ALA466     -0.1245
    103  CA         6.8310   36.9540  -16.4670 C.3   466  ALA466      0.1562
    104  C          6.3410   35.9710  -15.4110 C.2   466  ALA466      0.2260
    105  O          5.2340   35.4500  -15.5000 O.2   466  ALA466     -0.2867
    106  CB         7.7410   36.2620  -17.4810 C.3   466  ALA466      0.0290
    107  N          2.5920   34.9160  -14.6790 N.3   470  MET470     -0.1245
    108  CA         2.1950   33.5080  -14.7110 C.3   470  MET470      0.1570
    109  C          1.4720   33.0370  -13.4410 C.2   470  MET470      0.2261
    110  O          1.0180   31.9010  -13.3710 O.2   470  MET470     -0.2867
    111  CB         3.3950   32.6090  -15.0210 C.3   470  MET470      0.0387
    112  CG         3.9150   32.7620  -16.4600 C.3   470  MET470      0.0595
    113  SD         5.1650   31.5330  -16.8610 S.3   470  MET470     -0.1393
    114  CE         5.7770   32.1150  -18.4370 C.3   470  MET470      0.0692
@<TRIPOS>BOND
     1    55    56    2
     2    55    54    1
     3    54    57    1
     4    54    53    1
     5    48    47    2
     6    57    58    1
     7    60    61    1
     8    70    71    2
     9    70    69    1
    10    47    53   am
    11    47    46    1
    12    43    42    1
    13    53    59    1
    14    62    63    2
    15    62    61    1
    16    44    42    1
    17    68    69    1
    18    75    77   ar
    19    75    73   ar
    20    61    64    1
    21    58    59    1
    22    49    46    1
    23    49    50    1
    24    69    72    1
    25    42    39    1
    26    72    73    1
    27    46    45    1
    28    86    85    1
    29    77    78   ar
    30    45    40   am
    31    52    50    1
    32    14    13   ar
    33    14    12   ar
    34    73    74   ar
    35    64    65    1
    36    64    66    1
    37    50    51    1
    38    13    11   ar
    39    12    10   ar
    40    40    39    1
    41    40    41    2
    42    85    84    1
    43    39    38    1
    44    65    67    1
    45    78    76   ar
    46    74    76   ar
    47    11     8   ar
    48    10     8   ar
    49    10     9   ar
    50    38    31   am
    51    32    31    2
    52     8     6   ar
    53    84    83    1
    54     9     7   ar
    55    31    30    1
    56    83    80    1
    57     6     7   ar
    58     6     5    1
    59    29    30    1
    60    29    24   am
    61    30    33    1
    62    33    34    1
    63    82    81    2
    64    26    23    1
    65    26    27    1
    66     5     2    1
    67    80    81    1
    68    80    79    1
    69    23    24    1
    70    23    22    1
    71    36    35   ar
    72    81    87   am
    73    24    25    2
    74     1     2    1
    75    34    35    1
    76    35    37   ar
    77   114   113    1
    78    27    28    1
    79     2     3    1
    80    22    28    1
    81    87    88    1
    82   106   103    1
    83    88    89    1
    84    88    91    1
    85    20    19    1
    86     3     4    2
    87   113   112    1
    88    89    90    2
    89    89    94   am
    90    21    19    1
    91   103   102    1
    92   103   104    1
    93   112   111    1
    94    93    91    1
    95    94    95    1
    96    19    16    1
    97    91    92    1
    98   100    99    1
    99    95    98    1
   100    95    96    1
   101    98    99    1
   102   105   104    2
   103    18    17    2
   104   111   108    1
   105    99   101    1
   106    16    17    1
   107    16    15    1
   108    96    97    2
   109   108   107    1
   110   108   109    1
   111   109   110    2
