@<TRIPOS>MOLECULE
tmp/3q2aA01.pdb
 113 107 0 0 0
SMALL
GASTEIGER

@<TRIPOS>ATOM
      1  N          2.7940   28.9100  -18.4020 N.3   166  TRP166     -0.1241
      2  CA         2.8640   28.4760  -19.8060 C.3   166  TRP166      0.1605
      3  C          2.2060   27.1170  -20.0740 C.2   166  TRP166      0.2264
      4  O          1.5340   26.9490  -21.0940 O.2   166  TRP166     -0.2867
      5  CB         4.3040   28.4970  -20.3410 C.3   166  TRP166      0.0550
      6  CG         5.1510   27.4310  -19.7450 C.ar  166  TRP166      0.0003
      7  CD1        6.0180   27.5630  -18.6970 C.ar  166  TRP166      0.0946
      8  CD2        5.1870   26.0500  -20.1250 C.ar  166  TRP166      0.0152
      9  NE1        6.6020   26.3500  -18.4120 N.ar  166  TRP166     -0.2442
     10  CE2        6.1080   25.4060  -19.2740 C.ar  166  TRP166      0.0810
     11  CE3        4.5340   25.2960  -21.1090 C.ar  166  TRP166      0.0012
     12  CZ2        6.3940   24.0420  -19.3750 C.ar  166  TRP166      0.0191
     13  CZ3        4.8160   23.9430  -21.2070 C.ar  166  TRP166      0.0001
     14  CH2        5.7380   23.3290  -20.3440 C.ar  166  TRP166      0.0015
     15  N         13.6590   21.7840  -22.7750 N.3   333  GLY333     -0.1225
     16  CA        13.0500   23.0960  -22.6350 C.3   333  GLY333      0.1811
     17  C         12.3790   23.3060  -21.2840 C.2   333  GLY333      0.2280
     18  O         12.5520   24.3530  -20.6500 O.2   333  GLY333     -0.2866
     19  N         14.0230   26.0100  -18.6070 N.3   337  TRP337     -0.1241
     20  CA        13.1180   27.0660  -18.1570 C.3   337  TRP337      0.1605
     21  C         12.2850   26.6020  -16.9570 C.2   337  TRP337      0.2264
     22  O         11.1430   27.0400  -16.7590 O.2   337  TRP337     -0.2867
     23  CB        12.2200   27.5380  -19.3170 C.3   337  TRP337      0.0550
     24  CG        12.8780   28.5770  -20.2030 C.ar  337  TRP337      0.0003
     25  CD1       12.7500   29.9360  -20.1070 C.ar  337  TRP337      0.0946
     26  CD2       13.7650   28.3360  -21.3050 C.ar  337  TRP337      0.0152
     27  NE1       13.5030   30.5530  -21.0760 N.ar  337  TRP337     -0.2442
     28  CE2       14.1360   29.5960  -21.8260 C.ar  337  TRP337      0.0810
     29  CE3       14.2850   27.1820  -21.8990 C.ar  337  TRP337      0.0012
     30  CZ2       14.9980   29.7310  -22.9160 C.ar  337  TRP337      0.0191
     31  CZ3       15.1400   27.3180  -22.9840 C.ar  337  TRP337      0.0001
     32  CH2       15.4880   28.5860  -23.4800 C.ar  337  TRP337      0.0015
     33  N          9.7670   28.5020  -14.5040 N.3   340  THR340     -0.1218
     34  CA         8.4060   28.8690  -14.8820 C.3   340  THR340      0.1862
     35  C          7.4310   27.6920  -14.7570 C.2   340  THR340      0.2287
     36  O          6.2590   27.8150  -15.1030 O.2   340  THR340     -0.2866
     37  CB         8.3330   29.3820  -16.3390 C.3   340  THR340      0.1770
     38  OG1        8.7140   28.3300  -17.2350 O.3   340  THR340     -0.2211
     39  CG2        9.2530   30.5800  -16.5400 C.3   340  THR340      0.0375
     40  N         16.3420   34.7790  -21.6470 N.3   391  THR391     -0.1203
     41  CA        15.3630   35.1900  -22.6350 C.3   391  THR391      0.1994
     42  C         14.2270   34.1830  -22.7110 C.2   391  THR391      0.2618
     43  O         14.2150   33.2030  -21.9730 O.2   391  THR391     -0.2717
     44  CB        15.9850   35.3680  -24.0290 C.3   391  THR391      0.1784
     45  OG1       15.0250   35.9910  -24.8890 O.3   391  THR391     -0.2211
     46  CG2       16.3890   34.0180  -24.6150 C.3   391  THR391      0.0376
     47  N         13.2700   34.4370  -23.5960 N.am  392  LEU392     -0.1966
     48  CA        12.1680   33.5110  -23.7940 C.3   392  LEU392      0.1713
     49  C         12.4840   32.5440  -24.9190 C.2   392  LEU392      0.2458
     50  O         13.2130   32.8820  -25.8550 O.2   392  LEU392     -0.2730
     51  CB        10.8840   34.2560  -24.1420 C.3   392  LEU392      0.0310
     52  CG        10.2620   35.1590  -23.0910 C.3   392  LEU392      0.0022
     53  CD1       11.1070   36.4140  -22.9290 C.3   392  LEU392      0.0001
     54  CD2        8.8630   35.5090  -23.5320 C.3   392  LEU392      0.0001
     55  N         11.9390   31.3260  -24.8230 N.am  393  PRO393     -0.2727
     56  CA        11.9480   30.4300  -25.9770 C.3   393  PRO393      0.1402
     57  C         10.9140   30.9330  -26.9710 C.2   393  PRO393      0.2269
     58  O          9.9750   31.6280  -26.5640 O.2   393  PRO393     -0.2865
     59  CB        11.5000   29.0920  -25.3820 C.3   393  PRO393      0.0296
     60  CG        10.7040   29.4560  -24.1790 C.3   393  PRO393      0.0237
     61  CD        11.3090   30.7160  -23.6360 C.3   393  PRO393      0.0939
     62  N          7.7310   30.4070  -29.0510 N.3   395  VAL395     -0.1245
     63  CA         6.5890   29.5700  -28.7200 C.3   395  VAL395      0.1561
     64  C          5.6720   29.3540  -29.9240 C.2   395  VAL395      0.2260
     65  O          5.4460   30.2740  -30.7140 O.2   395  VAL395     -0.2867
     66  CB         5.7980   30.1750  -27.5390 C.3   395  VAL395      0.0252
     67  CG1        4.5150   29.4200  -27.3090 C.3   395  VAL395      0.0019
     68  CG2        6.6510   30.1860  -26.2840 C.3   395  VAL395      0.0019
     69  N          1.3440   26.2000  -28.0660 N.3   400  GLN400     -0.1245
     70  CA         1.8010   27.0490  -26.9500 C.3   400  GLN400      0.1566
     71  C          3.0640   26.4950  -26.2900 C.2   400  GLN400      0.2260
     72  O          3.3230   26.7380  -25.1120 O.2   400  GLN400     -0.2867
     73  CB         0.6990   27.2290  -25.8900 C.3   400  GLN400      0.0367
     74  CG        -0.6750   27.5640  -26.4640 C.3   400  GLN400      0.0905
     75  CD        -0.6860   28.8670  -27.2480 C.2   400  GLN400      0.2608
     76  OE1       -0.3380   29.9160  -26.7160 O.2   400  GLN400     -0.2717
     77  NE2       -1.0890   28.8060  -28.5130 N.am  400  GLN400     -0.0878
     78  N          7.4290   25.5040  -26.7800 N.3   402  PRO402     -0.2116
     79  CA         8.5760   26.0410  -27.5290 C.3   402  PRO402      0.1372
     80  C          8.8270   25.3460  -28.8750 C.2   402  PRO402      0.2244
     81  O          8.4780   24.1740  -29.0560 O.2   402  PRO402     -0.2868
     82  CB         9.7480   25.8150  -26.5710 C.3   402  PRO402      0.0268
     83  CG         9.1160   25.9040  -25.2100 C.3   402  PRO402      0.0207
     84  CD         7.7540   25.2700  -25.3580 C.3   402  PRO402      0.0892
     85  N          2.2710   33.4190  -25.2090 N.3   449  ILE449     -0.1245
     86  CA         3.0190   34.1460  -24.1850 C.3   449  ILE449      0.1561
     87  C          4.0360   35.1160  -24.7910 C.2   449  ILE449      0.2260
     88  O          4.1820   36.2450  -24.3220 O.2   449  ILE449     -0.2867
     89  CB         3.7120   33.1840  -23.2020 C.3   449  ILE449      0.0252
     90  CG1        2.6720   32.5060  -22.3240 C.3   449  ILE449      0.0019
     91  CG2        4.6960   33.9430  -22.3110 C.3   449  ILE449      0.0019
     92  CD1        3.2680   31.7310  -21.1810 C.3   449  ILE449      0.0001
     93  N         12.4130   38.3350  -16.3630 N.3   463  LEU463     -0.1245
     94  CA        12.0500   37.0020  -15.9000 C.3   463  LEU463      0.1561
     95  C         11.0740   37.0900  -14.7300 C.2   463  LEU463      0.2260
     96  O         10.1130   36.3280  -14.6610 O.2   463  LEU463     -0.2867
     97  CB        13.2920   36.1960  -15.5220 C.3   463  LEU463      0.0270
     98  CG        13.0790   34.7860  -14.9640 C.3   463  LEU463      0.0019
     99  CD1       12.2560   33.9230  -15.9140 C.3   463  LEU463      0.0001
    100  CD2       14.4210   34.1390  -14.6740 C.3   463  LEU463      0.0001
    101  N          7.5250   38.0740  -15.8410 N.3   466  ALA466     -0.1245
    102  CA         6.8310   36.9540  -16.4670 C.3   466  ALA466      0.1562
    103  C          6.3410   35.9710  -15.4110 C.2   466  ALA466      0.2260
    104  O          5.2340   35.4500  -15.5000 O.2   466  ALA466     -0.2867
    105  CB         7.7410   36.2620  -17.4810 C.3   466  ALA466      0.0290
    106  N          2.5920   34.9160  -14.6790 N.3   470  MET470     -0.1245
    107  CA         2.1950   33.5080  -14.7110 C.3   470  MET470      0.1570
    108  C          1.4720   33.0370  -13.4410 C.2   470  MET470      0.2261
    109  O          1.0180   31.9010  -13.3710 O.2   470  MET470     -0.2867
    110  CB         3.3950   32.6090  -15.0210 C.3   470  MET470      0.0387
    111  CG         3.9150   32.7620  -16.4600 C.3   470  MET470      0.0595
    112  SD         5.1650   31.5330  -16.8610 S.3   470  MET470     -0.1393
    113  CE         5.7770   32.1150  -18.4370 C.3   470  MET470      0.0692
@<TRIPOS>BOND
     1    65    64    2
     2    64    63    1
     3    81    80    2
     4    62    63    1
     5    80    79    1
     6    63    66    1
     7    77    75   am
     8    69    70    1
     9    66    67    1
    10    66    68    1
    11    79    78    1
    12    79    82    1
    13    75    76    2
    14    75    74    1
    15    57    58    2
    16    57    56    1
    17    70    71    1
    18    70    73    1
    19    78    84    1
    20    82    83    1
    21    74    73    1
    22    71    72    2
    23    56    59    1
    24    56    55    1
    25    50    49    2
    26    59    60    1
    27    84    83    1
    28    85    86    1
    29    49    55   am
    30    49    48    1
    31    45    44    1
    32    55    61    1
    33    87    88    2
    34    87    86    1
    35    46    44    1
    36    86    89    1
    37    60    61    1
    38    51    48    1
    39    51    52    1
    40    44    41    1
    41    48    47    1
    42    47    42   am
    43    54    52    1
    44    32    31   ar
    45    32    30   ar
    46    89    90    1
    47    89    91    1
    48    52    53    1
    49    31    29   ar
    50    30    28   ar
    51    15    16    1
    52    42    41    1
    53    42    43    2
    54    16    17    1
    55    41    40    1
    56    90    92    1
    57    29    26   ar
    58    28    26   ar
    59    28    27   ar
    60    26    24   ar
    61    17    18    2
    62    13    11   ar
    63    13    14   ar
    64    11     8   ar
    65     4     3    2
    66    27    25   ar
    67    14    12   ar
    68     5     2    1
    69     5     6    1
    70    24    25   ar
    71    24    23    1
    72     8     6   ar
    73     8    10   ar
    74     3     2    1
    75     2     1    1
    76     6     7   ar
    77    12    10   ar
    78    23    20    1
    79    10     9   ar
    80     7     9   ar
    81    19    20    1
    82   113   112    1
    83    20    21    1
    84   105   102    1
    85    38    37    1
    86    21    22    2
    87   112   111    1
    88    39    37    1
    89   102   101    1
    90   102   103    1
    91   111   110    1
    92    93    94    1
    93    37    34    1
    94    99    98    1
    95    94    97    1
    96    94    95    1
    97    97    98    1
    98   104   103    2
    99    36    35    2
   100   110   107    1
   101    98   100    1
   102    34    35    1
   103    34    33    1
   104    95    96    2
   105   107   106    1
   106   107   108    1
   107   108   109    2
