@<TRIPOS>MOLECULE
tmp/3q2dA00.pdb
 120 108 0 0 0
SMALL
GASTEIGER

@<TRIPOS>ATOM
      1  N        -12.0050   12.0350   16.9280 N.3    15  HIS15      -0.1241
      2  CA       -11.5050   11.5760   18.2210 C.3    15  HIS15       0.1621
      3  C        -11.4290   12.8040   19.1010 C.2    15  HIS15       0.2264
      4  O        -10.4410   13.5470   19.0670 O.2    15  HIS15      -0.2867
      5  CB       -10.1520   10.9460   18.0620 C.3    15  HIS15       0.0745
      6  CG       -10.2120    9.6160   17.4030 C.ar   15  HIS15       0.0817
      7  ND1       -9.1870    8.7080   17.4600 N.ar   15  HIS15      -0.2268
      8  CD2      -11.1890    9.0360   16.6690 C.ar   15  HIS15       0.1154
      9  CE1       -9.5220    7.6180   16.7910 C.ar   15  HIS15       0.1986
     10  NE2      -10.7170    7.8120   16.2630 N.ar   15  HIS15      -0.2212
     11  N        -10.6510   10.9790   23.1870 N.3    43  PHE43      -0.1241
     12  CA        -9.2410   10.7740   23.3700 C.3    43  PHE43       0.1605
     13  C         -8.8040   11.3580   24.7060 C.2    43  PHE43       0.2264
     14  O         -8.8070   12.5790   24.8890 O.2    43  PHE43      -0.2867
     15  CB        -8.4720   11.4240   22.2270 C.3    43  PHE43       0.0534
     16  CG        -7.0120   11.3080   22.3660 C.ar   43  PHE43      -0.0203
     17  CD1       -6.2600   12.4240   22.7570 C.ar   43  PHE43      -0.0042
     18  CD2       -6.3600   10.0850   22.1180 C.ar   43  PHE43      -0.0042
     19  CE1       -4.8380   12.3540   22.9020 C.ar   43  PHE43      -0.0003
     20  CE2       -4.9690    9.9850   22.2330 C.ar   43  PHE43      -0.0003
     21  CZ        -4.1820   11.1230   22.6380 C.ar   43  PHE43      -0.0000
     22  N        -15.7580    5.0120   21.1280 N.3    65  ARG65      -0.1245
     23  CA       -14.5350    4.3820   21.4740 C.3    65  ARG65       0.1563
     24  C        -13.7310    5.2660   22.3660 C.2    65  ARG65       0.2260
     25  O        -13.9260    6.5310   22.4270 O.2    65  ARG65      -0.2867
     26  CB       -13.7640    4.0340   20.1730 C.3    65  ARG65       0.0307
     27  CG       -14.2690    2.7260   19.5030 C.3    65  ARG65       0.0489
     28  CD       -13.7360    2.5280   18.0350 C.3    65  ARG65       0.2205
     29  NE       -12.4630    3.2680   17.7710 N.pl3  65  ARG65      -0.0865
     30  CZ       -11.2250    2.7660   17.8040 C.cat  65  ARG65       0.5346
     31  NH1      -11.0070    1.4720   18.0890 N.pl3  65  ARG65       0.1354
     32  NH2      -10.1850    3.5830   17.5550 N.pl3  65  ARG65       0.1354
     33  N         -9.8230    6.2900   23.1400 N.3    67  CYS67      -0.1235
     34  CA        -8.4720    6.2180   22.6250 C.3    67  CYS67       0.1677
     35  C         -7.5750    6.8890   23.6490 C.2    67  CYS67       0.2270
     36  O         -8.0200    7.8380   24.2670 O.2    67  CYS67      -0.2867
     37  CB        -8.3600    6.9570   21.3030 C.3    67  CYS67       0.0956
     38  SG        -9.3440    6.3260   19.9670 S.3    67  CYS67      -0.0801
     39  N          4.1130    9.5470   26.0460 N.3    72  PHE72      -0.1241
     40  CA         3.4270   10.7660   25.5650 C.3    72  PHE72       0.1605
     41  C          3.6420   11.8240   26.6180 C.2    72  PHE72       0.2264
     42  O          3.4910   11.5140   27.7700 O.2    72  PHE72      -0.2867
     43  CB         1.8910   10.4710   25.4270 C.3    72  PHE72       0.0534
     44  CG         1.0440   11.6680   24.9660 C.ar   72  PHE72      -0.0203
     45  CD1        0.7220   12.7110   25.8570 C.ar   72  PHE72      -0.0042
     46  CD2        0.5650   11.7270   23.6500 C.ar   72  PHE72      -0.0042
     47  CE1       -0.0590   13.8510   25.4380 C.ar   72  PHE72      -0.0003
     48  CE2       -0.2110   12.7840   23.1990 C.ar   72  PHE72      -0.0003
     49  CZ        -0.5370   13.8870   24.1040 C.ar   72  PHE72      -0.0000
     50  N         -7.9620    1.9620   21.7240 N.3    96  SER96      -0.1217
     51  CA        -6.7450    2.2770   20.9410 C.3    96  SER96       0.1889
     52  C         -5.6700    2.9390   21.8190 C.2    96  SER96       0.2288
     53  O         -5.9940    3.6500   22.7280 O.2    96  SER96      -0.2866
     54  CB        -7.1260    3.1450   19.7280 C.3    96  SER96       0.2089
     55  OG        -5.9700    3.6520   19.1280 O.3    96  SER96      -0.2183
     56  N         -2.3340    5.3090   21.3240 N.3    98  ALA98      -0.1245
     57  CA        -1.4520    6.0800   20.4900 C.3    98  ALA98       0.1562
     58  C         -0.1100    6.2560   21.1990 C.2    98  ALA98       0.2260
     59  O          0.0020    7.0460   22.1790 O.2    98  ALA98      -0.2867
     60  CB        -2.0420    7.3950   20.2090 C.3    98  ALA98       0.0290
     61  N         -1.8310    3.0500   17.3580 N.3   133  ALA133     -0.1245
     62  CA        -1.6000    4.2020   16.5220 C.3   133  ALA133      0.1562
     63  C         -0.1800    4.7230   16.8580 C.2   133  ALA133      0.2260
     64  O          0.3160    4.5690   18.0040 O.2   133  ALA133     -0.2867
     65  CB        -2.6770    5.2970   16.8340 C.3   133  ALA133      0.0290
     66  N          2.2120    8.2190   16.7720 N.3   135  ILE135     -0.1245
     67  CA         2.3620    9.6650   16.5880 C.3   135  ILE135      0.1561
     68  C          3.8660    9.9210   16.3310 C.2   135  ILE135      0.2260
     69  O          4.7400    9.5460   17.1110 O.2   135  ILE135     -0.2867
     70  CB         2.0010   10.4800   17.8810 C.3   135  ILE135      0.0252
     71  CG1        0.5410   10.3380   18.3060 C.3   135  ILE135      0.0019
     72  CG2        2.3010   11.9700   17.6900 C.3   135  ILE135      0.0019
     73  CD1        0.3870   10.5870   19.8560 C.3   135  ILE135      0.0001
     74  N         -2.3680    2.7150   12.7140 N.3   161  ASN161     -0.1240
     75  CA        -2.6470    4.0920   12.3140 C.3   161  ASN161      0.1653
     76  C         -1.4270    4.9570   12.4640 C.2   161  ASN161      0.2266
     77  O         -0.6780    4.7490   13.3970 O.2   161  ASN161     -0.2867
     78  CB        -3.7040    4.6940   13.2070 C.3   161  ASN161      0.1155
     79  CG        -5.1070    4.2250   12.8190 C.2   161  ASN161      0.2627
     80  OD1       -5.4300    4.2340   11.6630 O.2   161  ASN161     -0.2716
     81  ND2       -5.9150    3.7570   13.7890 N.am  161  ASN161     -0.0877
     82  N         -0.1650    9.1150   12.8840 N.3   163  VAL163     -0.1245
     83  CA        -0.7870   10.3170   13.3920 C.3   163  VAL163      0.1561
     84  C          0.2170   11.4310   13.2950 C.2   163  VAL163      0.2260
     85  O          1.4110   11.2350   13.5990 O.2   163  VAL163     -0.2867
     86  CB        -1.2190   10.0540   14.8410 C.3   163  VAL163      0.0252
     87  CG1       -2.1260   11.1010   15.3420 C.3   163  VAL163      0.0019
     88  CG2       -1.9380    8.7530   14.8930 C.3   163  VAL163      0.0019
     89  N          0.6470   14.2380   15.1140 N.3   165  SER165     -0.1202
     90  CA         1.0740   15.0850   16.1850 C.3   165  SER165      0.2020
     91  C          0.5480   14.7210   17.5830 C.2   165  SER165      0.2619
     92  O         -0.4200   14.0230   17.7280 O.2   165  SER165     -0.2717
     93  CB         0.6980   16.5530   15.8480 C.3   165  SER165      0.2103
     94  OG         1.0860   16.9000   14.4680 O.3   165  SER165     -0.2182
     95  N          1.1940   15.2560   18.6200 N.am  166  THR166     -0.1952
     96  CA         0.7640   15.0560   19.9620 C.3   166  THR166      0.1897
     97  C         -0.2590   16.0860   20.3080 C.2   166  THR166      0.2313
     98  O         -1.0850   15.8370   21.1800 O.2   166  THR166     -0.2863
     99  CB         1.8970   15.2480   20.9600 C.3   166  THR166      0.1794
    100  OG1        2.3970   16.5850   20.8410 O.3   166  THR166     -0.2208
    101  CG2        3.0160   14.2350   20.7170 C.3   166  THR166      0.0378
    102  N         -4.4020   10.0280   10.8300 N.3   197  ILE197     -0.1245
    103  CA        -4.9910   10.9410   11.7940 C.3   197  ILE197      0.1561
    104  C         -4.2300   12.2370   11.9270 C.2   197  ILE197      0.2260
    105  O         -3.1710   12.2880   12.5820 O.2   197  ILE197     -0.2867
    106  CB        -5.0350   10.2660   13.2240 C.3   197  ILE197      0.0252
    107  CG1       -5.7990    8.9130   13.1750 C.3   197  ILE197      0.0019
    108  CG2       -5.6900   11.2530   14.1520 C.3   197  ILE197      0.0019
    109  CD1       -5.8570    8.0750   14.5050 C.3   197  ILE197      0.0001
    110  N         -3.5970   15.5870   13.7370 N.3   199  VAL199     -0.1245
    111  CA        -3.8680   16.2170   15.0510 C.3   199  VAL199      0.1561
    112  C         -3.3640   17.6610   14.9120 C.2   199  VAL199      0.2260
    113  O         -2.2490   17.9130   14.4360 O.2   199  VAL199     -0.2867
    114  CB        -3.1970   15.4590   16.2220 C.3   199  VAL199      0.0252
    115  CG1       -3.3300   16.2530   17.6140 C.3   199  VAL199      0.0019
    116  CG2       -3.7360   14.0800   16.3620 C.3   199  VAL199      0.0019
    117  N         -8.1240   14.1390   15.1310 N.3   232  GLY232     -0.1225
    118  CA        -7.7710   14.2340   16.5460 C.3   232  GLY232      0.1811
    119  C         -7.9910   15.6710   16.9140 C.2   232  GLY232      0.2280
    120  O         -7.1540   16.5020   16.6660 O.2   232  GLY232     -0.2866
@<TRIPOS>BOND
     1   102   103    1
     2    80    79    2
     3   103   104    1
     4   103   106    1
     5   104   105    2
     6    75    76    1
     7    75    74    1
     8    75    78    1
     9    76    77    2
    10    79    78    1
    11    79    81   am
    12    82    83    1
    13   107   106    1
    14   107   109    1
    15   106   108    1
    16    84    83    1
    17    84    85    2
    18    83    86    1
    19   110   111    1
    20   113   112    2
    21    94    93    1
    22    86    88    1
    23    86    87    1
    24   112   111    1
    25   111   114    1
    26    89    90    1
    27   117   118    1
    28    93    90    1
    29    90    91    1
    30   114   116    1
    31   114   115    1
    32    10     8   ar
    33    10     9   ar
    34    68    67    1
    35    68    69    2
    36    62    65    1
    37    62    63    1
    38    62    61    1
    39   118   119    1
    40    67    66    1
    41    67    70    1
    42   120   119    2
    43     8     6   ar
    44     9     7   ar
    45    63    64    2
    46     1     2    1
    47     6     7   ar
    48     6     5    1
    49    32    30    1
    50    91    92    2
    51    91    95   am
    52    72    70    1
    53    29    30    2
    54    29    28    1
    55    30    31    1
    56    70    71    1
    57    28    27    1
    58     5     2    1
    59     2     3    1
    60    71    73    1
    61    95    96    1
    62     4     3    2
    63    55    54    1
    64    27    26    1
    65    54    51    1
    66    96    97    1
    67    96    99    1
    68    38    37    1
    69    26    23    1
    70    60    57    1
    71    97    98    2
    72    57    58    1
    73    57    56    1
    74   101    99    1
    75   100    99    1
    76    51    50    1
    77    51    52    1
    78    22    23    1
    79    58    59    2
    80    37    34    1
    81    23    24    1
    82    52    53    2
    83    18    20   ar
    84    18    16   ar
    85    15    16    1
    86    15    12    1
    87    20    21   ar
    88    16    17   ar
    89    24    25    2
    90    34    33    1
    91    34    35    1
    92    21    19   ar
    93    17    19   ar
    94    11    12    1
    95    48    46   ar
    96    48    49   ar
    97    12    13    1
    98    35    36    2
    99    46    44   ar
   100    49    47   ar
   101    13    14    2
   102    44    43    1
   103    44    45   ar
   104    43    40    1
   105    47    45   ar
   106    40    39    1
   107    40    41    1
   108    41    42    2
