@<TRIPOS>MOLECULE
tmp/3q2fA00.pdb
 129 126 0 0 0
SMALL
GASTEIGER

@<TRIPOS>ATOM
      1  N         11.4870   29.7010   31.7920 N.3    32  TRP32      -0.1228
      2  CA        10.4770   30.4910   31.0710 C.3    32  TRP32       0.1722
      3  C         10.9760   31.8240   30.4960 C.2    32  TRP32       0.2437
      4  O         10.4640   32.2410   29.4590 O.2    32  TRP32      -0.2733
      5  CB         9.1820   30.7110   31.9170 C.3    32  TRP32       0.0563
      6  CG         9.4630   31.4160   33.2240 C.ar   32  TRP32       0.0003
      7  CD1        9.7350   30.8190   34.4330 C.ar   32  TRP32       0.0946
      8  CD2        9.5370   32.8260   33.4460 C.ar   32  TRP32       0.0152
      9  NE1        9.9860   31.7760   35.3850 N.ar   32  TRP32      -0.2442
     10  CE2        9.8650   33.0160   34.8130 C.ar   32  TRP32       0.0810
     11  CE3        9.3570   33.9610   32.6230 C.ar   32  TRP32       0.0012
     12  CZ2       10.0320   34.2890   35.3770 C.ar   32  TRP32       0.0191
     13  CZ3        9.5200   35.2380   33.1940 C.ar   32  TRP32       0.0001
     14  CH2        9.8450   35.3840   34.5570 C.ar   32  TRP32       0.0015
     15  N         11.9670   32.4950   31.1380 N.am   33  PRO33      -0.2718
     16  CA        12.3870   33.7340   30.4930 C.3    33  PRO33       0.1535
     17  C         13.2190   33.5250   29.2480 C.2    33  PRO33       0.2598
     18  O         13.3350   34.4680   28.4580 O.2    33  PRO33      -0.2715
     19  CB        13.2570   34.4330   31.5580 C.3    33  PRO33       0.0310
     20  CG        12.9360   33.7410   32.8430 C.3    33  PRO33       0.0237
     21  CD        12.6500   32.3240   32.4330 C.3    33  PRO33       0.0939
     22  N         13.7650   32.3080   29.0920 N.am   34  PHE34      -0.1974
     23  CA        14.8180   31.9740   28.1290 C.3    34  PHE34       0.1639
     24  C         14.4040   31.0780   26.9810 C.2    34  PHE34       0.2290
     25  O         15.2490   30.6930   26.1500 O.2    34  PHE34      -0.2864
     26  CB        16.0050   31.3260   28.8670 C.3    34  PHE34       0.0560
     27  CG        16.4070   32.0830   30.0820 C.ar   34  PHE34      -0.0200
     28  CD1       16.9600   33.3540   29.9610 C.ar   34  PHE34      -0.0042
     29  CD2       16.1540   31.5860   31.3540 C.ar   34  PHE34      -0.0042
     30  CE1       17.2600   34.0950   31.0970 C.ar   34  PHE34      -0.0003
     31  CE2       16.4830   32.3330   32.4920 C.ar   34  PHE34      -0.0003
     32  CZ        17.0270   33.5710   32.3560 C.ar   34  PHE34      -0.0000
     33  N         12.2780   31.5970   24.4020 N.3    36  LEU36      -0.1245
     34  CA        12.1140   32.2530   23.1150 C.3    36  LEU36       0.1561
     35  C         12.9670   33.5280   23.0350 C.2    36  LEU36       0.2260
     36  O         13.4390   34.0510   24.0590 O.2    36  LEU36      -0.2867
     37  CB        10.6360   32.5050   22.8420 C.3    36  LEU36       0.0270
     38  CG         9.7230   31.2840   22.6780 C.3    36  LEU36       0.0019
     39  CD1        8.2380   31.7800   22.5970 C.3    36  LEU36       0.0001
     40  CD2       10.1020   30.4550   21.4230 C.3    36  LEU36       0.0001
     41  N         14.0570   37.2760   23.1470 N.3    38  VAL38      -0.1231
     42  CA        13.4680   38.4950   23.7320 C.3    38  VAL38       0.1692
     43  C         12.8540   39.2920   22.6000 C.2    38  VAL38       0.2592
     44  O         13.4440   39.3970   21.5020 O.2    38  VAL38      -0.2718
     45  CB        14.5010   39.3350   24.5150 C.3    38  VAL38       0.0266
     46  CG1       13.8840   40.6710   25.0290 C.3    38  VAL38       0.0020
     47  CG2       15.0640   38.5010   25.6740 C.3    38  VAL38       0.0020
     48  N         11.6470   39.8050   22.8250 N.am   39  ASN39      -0.1974
     49  CA        10.9610   40.5280   21.7790 C.3    39  ASN39       0.1688
     50  C         11.6010   41.9160   21.6690 C.2    39  ASN39       0.2292
     51  O         11.3960   42.7990   22.5130 O.2    39  ASN39      -0.2864
     52  CB         9.4600   40.6030   22.0500 C.3    39  ASN39       0.1181
     53  CG         8.6960   41.1970   20.8720 C.2    39  ASN39       0.2629
     54  OD1        9.2070   42.0660   20.1790 O.2    39  ASN39      -0.2716
     55  ND2        7.4820   40.7210   20.6410 N.am   39  ASN39      -0.0877
     56  N         10.4780   45.2730   24.0490 N.3    43  VAL43      -0.1231
     57  CA        11.2520   45.4330   25.2860 C.3    43  VAL43       0.1678
     58  C         12.2490   46.5560   25.1130 C.2    43  VAL43       0.2434
     59  O         13.2560   46.3880   24.4210 O.2    43  VAL43      -0.2733
     60  CB        11.9680   44.1520   25.7140 C.3    43  VAL43       0.0265
     61  CG1       12.5990   44.3650   27.1030 C.3    43  VAL43       0.0020
     62  CG2       10.9640   42.9480   25.7160 C.3    43  VAL43       0.0020
     63  N         11.9650   47.7220   25.7280 N.am   44  PRO44      -0.2729
     64  CA        12.8460   48.8740   25.5770 C.3    44  PRO44       0.1401
     65  C         14.2940   48.5400   25.9120 C.2    44  PRO44       0.2269
     66  O         14.5510   47.7400   26.8100 O.2    44  PRO44      -0.2865
     67  CB        12.2940   49.8800   26.6080 C.3    44  PRO44       0.0296
     68  CG        10.9030   49.5090   26.8200 C.3    44  PRO44       0.0237
     69  CD        10.7680   48.0470   26.5370 C.3    44  PRO44       0.0939
     70  N         16.6160   46.7060   24.9130 N.3    46  TYR46      -0.1241
     71  CA        17.2290   45.4100   24.6740 C.3    46  TYR46       0.1605
     72  C         18.0100   45.3600   23.3670 C.2    46  TYR46       0.2264
     73  O         19.1570   44.8860   23.3460 O.2    46  TYR46      -0.2867
     74  CB        16.1840   44.2670   24.7110 C.3    46  TYR46       0.0534
     75  CG        16.8390   42.9930   25.1710 C.ar   46  TYR46      -0.0201
     76  CD1       16.9660   42.7030   26.5390 C.ar   46  TYR46      -0.0009
     77  CD2       17.3540   42.0910   24.2580 C.ar   46  TYR46      -0.0009
     78  CE1       17.5900   41.4910   26.9750 C.ar   46  TYR46       0.0417
     79  CE2       17.9670   40.8910   24.6760 C.ar   46  TYR46       0.0417
     80  CZ        18.0930   40.6120   26.0270 C.ar   46  TYR46       0.1957
     81  OH        18.7160   39.4490   26.4190 O.3    46  TYR46      -0.2866
     82  N         20.4520   35.8270   22.6950 N.3    54  MET54      -0.1245
     83  CA        20.4260   34.4110   22.5680 C.3    54  MET54       0.1570
     84  C         19.3910   33.8380   23.5140 C.2    54  MET54       0.2261
     85  O         19.0840   34.4520   24.5470 O.2    54  MET54      -0.2867
     86  CB        21.8260   33.8450   22.8370 C.3    54  MET54       0.0387
     87  CG        21.9290   32.3440   22.6130 C.3    54  MET54       0.0595
     88  SD        21.5140   31.8380   20.9250 S.3    54  MET54      -0.1393
     89  CE        22.5890   33.0030   19.9980 C.3    54  MET54       0.0692
     90  N         23.2130   33.4390   26.9840 N.3    81  VAL81      -0.1245
     91  CA        21.8510   33.6030   27.4890 C.3    81  VAL81       0.1561
     92  C         21.9160   34.2670   28.8820 C.2    81  VAL81       0.2260
     93  O         21.2870   35.3010   29.1370 O.2    81  VAL81      -0.2867
     94  CB        21.0660   32.2890   27.5080 C.3    81  VAL81       0.0252
     95  CG1       19.6810   32.4940   28.1840 C.3    81  VAL81       0.0019
     96  CG2       20.8700   31.7480   26.0500 C.3    81  VAL81       0.0019
     97  N         21.1990   38.0790   30.3930 N.3    85  CYS85      -0.1235
     98  CA        20.2020   38.2280   31.4380 C.3    85  CYS85       0.1677
     99  C         20.7320   39.1260   32.5550 C.2    85  CYS85       0.2270
    100  O         20.0160   39.9910   33.0230 O.2    85  CYS85      -0.2867
    101  CB        19.8420   36.8560   31.9900 C.3    85  CYS85       0.0956
    102  SG        18.5380   36.8380   33.1940 S.3    85  CYS85      -0.0801
    103  N         20.9800   42.8910   31.7040 N.3    88  PHE88      -0.1227
    104  CA        19.7240   43.5830   31.5150 C.3    88  PHE88       0.1736
    105  C         18.7980   43.5750   32.7260 C.2    88  PHE88       0.2595
    106  O         17.9900   44.4680   32.8730 O.2    88  PHE88      -0.2718
    107  CB        18.9860   42.9890   30.3120 C.3    88  PHE88       0.0547
    108  CG        17.9480   43.9140   29.7380 C.ar   88  PHE88      -0.0202
    109  CD1       18.3120   44.9510   28.9010 C.ar   88  PHE88      -0.0042
    110  CD2       16.6090   43.7570   30.0540 C.ar   88  PHE88      -0.0042
    111  CE1       17.3470   45.8170   28.3620 C.ar   88  PHE88      -0.0003
    112  CE2       15.6510   44.6070   29.5360 C.ar   88  PHE88      -0.0003
    113  CZ        16.0300   45.6470   28.6850 C.ar   88  PHE88      -0.0000
    114  N         18.9090   42.5630   33.5810 N.am   89  ASN89      -0.1974
    115  CA        17.9430   42.3520   34.6470 C.3    89  ASN89       0.1688
    116  C         18.6220   42.4710   35.9990 C.2    89  ASN89       0.2292
    117  O         19.8040   42.1310   36.1570 O.2    89  ASN89      -0.2864
    118  CB        17.2940   40.9830   34.5250 C.3    89  ASN89       0.1181
    119  CG        16.5100   40.8070   33.2330 C.2    89  ASN89       0.2629
    120  OD1       15.3480   41.2320   33.1260 O.2    89  ASN89      -0.2716
    121  ND2       17.1420   40.1790   32.2380 N.am   89  ASN89      -0.0877
    122  N         13.3700   37.4750   36.6700 N.3    95  ILE95      -0.1245
    123  CA        14.1360   36.9870   35.5350 C.3    95  ILE95       0.1561
    124  C         15.6290   36.9100   35.8950 C.2    95  ILE95       0.2260
    125  O         16.3150   35.9660   35.5250 O.2    95  ILE95      -0.2867
    126  CB        13.9530   37.9030   34.2960 C.3    95  ILE95       0.0252
    127  CG1       12.5130   37.7900   33.7900 C.3    95  ILE95       0.0019
    128  CG2       14.9540   37.5250   33.1940 C.3    95  ILE95       0.0019
    129  CD1       12.0990   38.8830   32.7600 C.3    95  ILE95       0.0001
@<TRIPOS>BOND
     1    89    88    1
     2    54    53    2
     3    55    53   am
     4    53    52    1
     5    88    87    1
     6    40    38    1
     7    44    43    2
     8    50    49    1
     9    50    51    2
    10    49    52    1
    11    49    48    1
    12    83    82    1
    13    83    86    1
    14    83    84    1
    15    39    38    1
    16    43    48   am
    17    43    42    1
    18    87    86    1
    19    38    37    1
    20    37    34    1
    21    35    34    1
    22    35    36    2
    23    34    33    1
    24    41    42    1
    25    73    72    2
    26    72    71    1
    27    84    85    2
    28    42    45    1
    29    56    57    1
    30    77    79   ar
    31    77    75   ar
    32    59    58    2
    33    45    46    1
    34    45    47    1
    35    71    74    1
    36    71    70    1
    37    79    80   ar
    38    74    75    1
    39    58    57    1
    40    58    63   am
    41    75    76   ar
    42    57    60    1
    43    64    63    1
    44    64    65    1
    45    64    67    1
    46    60    62    1
    47    60    61    1
    48    63    69    1
    49    65    66    2
    50    80    81    1
    51    80    78   ar
    52    96    94    1
    53    25    24    2
    54    69    68    1
    55    76    78   ar
    56    67    68    1
    57    24    23    1
    58    90    91    1
    59    91    94    1
    60    91    92    1
    61    94    95    1
    62    23    26    1
    63    23    22    1
    64   111   113   ar
    65   111   109   ar
    66    18    17    2
    67   113   112   ar
    68    26    27    1
    69    92    93    2
    70   109   108   ar
    71    22    17   am
    72    17    16    1
    73     4     3    2
    74   112   110   ar
    75   108   110   ar
    76   108   107    1
    77    28    27   ar
    78    28    30   ar
    79    27    29   ar
    80   107   104    1
    81    97    98    1
    82    16    15    1
    83    16    19    1
    84     3     2    1
    85     3    15   am
    86     2     1    1
    87     2     5    1
    88    30    32   ar
    89    15    21    1
    90    29    31   ar
    91    98   101    1
    92    98    99    1
    93   104   103    1
    94   104   105    1
    95    19    20    1
    96     5     6    1
    97   101   102    1
    98   121   119   am
    99    32    31   ar
   100    21    20    1
   101    99   100    2
   102    11    13   ar
   103    11     8   ar
   104   105   106    2
   105   105   114   am
   106   129   127    1
   107   120   119    2
   108    13    14   ar
   109   128   126    1
   110     6     8   ar
   111     6     7   ar
   112   119   118    1
   113     8    10   ar
   114   114   115    1
   115   127   126    1
   116   126   123    1
   117     7     9   ar
   118   118   115    1
   119    14    12   ar
   120   115   116    1
   121    10    12   ar
   122    10     9   ar
   123   125   124    2
   124   123   124    1
   125   123   122    1
   126   116   117    2
