@<TRIPOS>MOLECULE
tmp/3q2gA00.pdb
 213 209 0 0 0
SMALL
GASTEIGER

@<TRIPOS>ATOM
      1  N          5.6370   -4.0270   10.2930 N.3   113  ASP113     -0.1225
      2  CA         5.8040   -5.0650   11.3180 C.3   113  ASP113      0.1805
      3  C          7.1560   -5.7870   11.2050 C.2   113  ASP113      0.2598
      4  O          7.5760   -6.4770   12.1420 O.2   113  ASP113     -0.2718
      5  CB         4.6660   -6.0980   11.2340 C.3   113  ASP113      0.1424
      6  CG         3.3330   -5.5640   11.7650 C.2   113  ASP113      0.3668
      7  OD1        3.3060   -4.4590   12.3490 O.co2 113  ASP113     -0.2456
      8  OD2        2.3120   -6.2730   11.6010 O.co2 113  ASP113     -0.2456
      9  N          7.8190   -5.6240   10.0580 N.am  114  THR114     -0.1939
     10  CA         9.1440   -6.1980    9.8060 C.3   114  THR114      0.2028
     11  C         10.1280   -5.9530   10.9560 C.2   114  THR114      0.2642
     12  O         10.2570   -4.8370   11.4420 O.2   114  THR114     -0.2714
     13  CB         9.7570   -5.6400    8.4860 C.3   114  THR114      0.1808
     14  OG1        8.7350   -5.5400    7.4840 O.3   114  THR114     -0.2208
     15  CG2       10.8890   -6.5420    7.9810 C.3   114  THR114      0.0379
     16  N         10.8010   -7.0170   11.3730 N.am  115  LEU115     -0.1963
     17  CA        11.7930   -6.9880   12.4440 C.3   115  LEU115      0.1728
     18  C         13.2010   -7.2820   11.9360 C.2   115  LEU115      0.2617
     19  O         14.1760   -6.8850   12.5570 O.2   115  LEU115     -0.2715
     20  CB        11.4440   -8.0330   13.5060 C.3   115  LEU115      0.0311
     21  CG        10.1530   -7.7890   14.2810 C.3   115  LEU115      0.0022
     22  CD1        9.8470   -8.9820   15.1490 C.3   115  LEU115      0.0001
     23  CD2       10.2600   -6.5210   15.1090 C.3   115  LEU115      0.0001
     24  N         13.3030   -7.9910   10.8140 N.am  116  GLY116     -0.1940
     25  CA        14.5840   -8.4770   10.3490 C.3   116  GLY116      0.2014
     26  C         14.5060   -9.0980    8.9770 C.2   116  GLY116      0.2639
     27  O         13.4280   -9.3760    8.4680 O.2   116  GLY116     -0.2714
     28  N         15.6640   -9.3410    8.3870 N.am  117  MET117     -0.1963
     29  CA        15.7230   -9.7280    6.9960 C.3   117  MET117      0.1736
     30  C         17.0400  -10.4320    6.6790 C.2   117  MET117      0.2616
     31  O         18.0950   -9.9690    7.0660 O.2   117  MET117     -0.2715
     32  CB        15.5620   -8.4650    6.1360 C.3   117  MET117      0.0427
     33  CG        15.3730   -8.7130    4.6430 C.3   117  MET117      0.0599
     34  SD        13.6950   -9.0320    4.0740 S.3   117  MET117     -0.1393
     35  CE        12.7440   -7.8980    5.0790 C.3   117  MET117      0.0692
     36  N         16.9340  -11.5520    5.9700 N.am  118  ALA118     -0.1977
     37  CA        18.0640  -12.3080    5.4600 C.3   118  ALA118      0.1597
     38  C         17.6120  -13.1240    4.2470 C.2   118  ALA118      0.2287
     39  O         16.4440  -13.5110    4.1710 O.2   118  ALA118     -0.2864
     40  CB        18.5890  -13.2500    6.5270 C.3   118  ALA118      0.0319
     41  N         18.0680  -16.7850    2.0680 N.3   120  VAL120     -0.1245
     42  CA        18.0720  -18.1540    2.5550 C.3   120  VAL120      0.1561
     43  C         19.2240  -18.9040    1.9250 C.2   120  VAL120      0.2260
     44  O         19.4260  -18.8100    0.7200 O.2   120  VAL120     -0.2867
     45  CB        16.7300  -18.8450    2.2750 C.3   120  VAL120      0.0252
     46  CG1       16.7220  -20.2440    2.8240 C.3   120  VAL120      0.0019
     47  CG2       15.6120  -18.0540    2.9360 C.3   120  VAL120      0.0019
     48  N         14.5750   -3.3430   18.4120 N.3   136  ASP136     -0.1239
     49  CA        13.3800   -2.9370   19.1500 C.3   136  ASP136      0.1674
     50  C         13.4650   -3.3730   20.6150 C.2   136  ASP136      0.2266
     51  O         12.4820   -3.3190   21.3390 O.2   136  ASP136     -0.2867
     52  CB        12.0990   -3.4670   18.4640 C.3   136  ASP136      0.1410
     53  CG        12.0120   -4.9970   18.4000 C.2   136  ASP136      0.3668
     54  OD1       13.0360   -5.7010   18.5540 O.co2 136  ASP136     -0.2456
     55  OD2       10.8760   -5.4960   18.1850 O.co2 136  ASP136     -0.2456
     56  N         14.6040   -8.3750   22.7760 N.3   139  GLN139     -0.1245
     57  CA        13.9800   -9.3690   21.8930 C.3   139  GLN139      0.1566
     58  C         14.6230   -9.5070   20.5170 C.2   139  GLN139      0.2260
     59  O         14.4400  -10.5290   19.8530 O.2   139  GLN139     -0.2867
     60  CB        12.4830   -9.1030   21.7150 C.3   139  GLN139      0.0367
     61  CG        12.1070   -7.7280   21.2460 C.3   139  GLN139      0.0905
     62  CD        11.5640   -6.9000   22.3750 C.2   139  GLN139      0.2608
     63  OE1       12.2610   -6.6480   23.3690 O.2   139  GLN139     -0.2717
     64  NE2       10.2930   -6.4930   22.2540 N.am  139  GLN139     -0.0878
     65  N         16.4300  -12.5900   19.4810 N.3   142  PHE142     -0.1227
     66  CA        15.7180  -13.6980   18.8840 C.3   142  PHE142      0.1736
     67  C         15.5120  -13.4310   17.4040 C.2   142  PHE142      0.2596
     68  O         15.5860  -14.3750   16.6130 O.2   142  PHE142     -0.2718
     69  CB        14.3880  -13.9550   19.6050 C.3   142  PHE142      0.0547
     70  CG        14.5490  -14.3790   21.0490 C.ar  142  PHE142     -0.0202
     71  CD1       14.7510  -13.4390   22.0460 C.ar  142  PHE142     -0.0042
     72  CD2       14.4790  -15.7170   21.4060 C.ar  142  PHE142     -0.0042
     73  CE1       14.9020  -13.8140   23.3710 C.ar  142  PHE142     -0.0003
     74  CE2       14.6260  -16.1040   22.7250 C.ar  142  PHE142     -0.0003
     75  CZ        14.8510  -15.1350   23.7140 C.ar  142  PHE142     -0.0000
     76  N         15.2460  -12.1650   17.0230 N.am  143  THR143     -0.1953
     77  CA        15.3020  -11.7850   15.5940 C.3   143  THR143      0.1897
     78  C         16.6600  -12.2150   14.9710 C.2   143  THR143      0.2313
     79  O         16.7340  -12.7060   13.8360 O.2   143  THR143     -0.2863
     80  CB        15.1100  -10.2610   15.3020 C.3   143  THR143      0.1794
     81  OG1       14.0530   -9.6870   16.0930 O.3   143  THR143     -0.2208
     82  CG2       14.7650  -10.0690   13.8320 C.3   143  THR143      0.0378
     83  N         16.7780  -15.9260   14.3970 N.3   146  HIS146     -0.1226
     84  CA        15.8270  -16.2350   13.3450 C.3   146  HIS146      0.1752
     85  C         16.4630  -15.9930   11.9820 C.2   146  HIS146      0.2595
     86  O         16.4930  -16.8770   11.1110 O.2   146  HIS146     -0.2718
     87  CB        14.5430  -15.4050   13.5370 C.3   146  HIS146      0.0759
     88  CG        13.4610  -15.7030   12.5390 C.ar  146  HIS146      0.0818
     89  ND1       12.5890  -16.7610   12.6750 N.ar  146  HIS146     -0.2268
     90  CD2       13.1030  -15.0620   11.3970 C.ar  146  HIS146      0.1154
     91  CE1       11.7560  -16.7740   11.6480 C.ar  146  HIS146      0.1986
     92  NE2       12.0550  -15.7630   10.8510 N.ar  146  HIS146     -0.2212
     93  N         16.9810  -14.7970   11.8160 N.am  147  GLU147     -0.1979
     94  CA        17.6420  -14.4100   10.5910 C.3   147  GLU147      0.1602
     95  C         18.7940  -15.3410   10.2560 C.2   147  GLU147      0.2287
     96  O         18.9670  -15.6810    9.0920 O.2   147  GLU147     -0.2864
     97  CB        18.1290  -12.9500   10.6720 C.3   147  GLU147      0.0415
     98  CG        16.9940  -11.9140   10.7600 C.3   147  GLU147      0.1163
     99  CD        15.8210  -12.2430    9.8580 C.2   147  GLU147      0.3649
    100  OE1       16.0140  -12.8940    8.7920 O.co2 147  GLU147     -0.2457
    101  OE2       14.6860  -11.8820   10.2350 O.co2 147  GLU147     -0.2457
    102  N         17.5020  -18.5470    8.6620 N.3   150  HIS150     -0.1241
    103  CA        17.3420  -18.3050    7.2280 C.3   150  HIS150      0.1621
    104  C         18.7060  -18.3840    6.5570 C.2   150  HIS150      0.2264
    105  O         18.8800  -19.0990    5.5730 O.2   150  HIS150     -0.2867
    106  CB        16.7070  -16.9340    6.9330 C.3   150  HIS150      0.0745
    107  CG        15.2350  -16.8460    7.2350 C.ar  150  HIS150      0.0817
    108  ND1       14.3590  -17.8990    7.0580 N.ar  150  HIS150     -0.2268
    109  CD2       14.4810  -15.8030    7.6520 C.ar  150  HIS150      0.1154
    110  CE1       13.1400  -17.5210    7.4000 C.ar  150  HIS150      0.1986
    111  NE2       13.1850  -16.2470    7.7530 N.ar  150  HIS150     -0.2212
    112  N         17.1620  -22.3000    6.7390 N.3   154  MET154     -0.1231
    113  CA        15.9110  -22.6740    7.4210 C.3   154  MET154      0.1687
    114  C         14.7180  -21.8960    6.8480 C.2   154  MET154      0.2434
    115  O         14.7510  -20.6680    6.7940 O.2   154  MET154     -0.2733
    116  CB        16.0010  -22.4260    8.9230 C.3   154  MET154      0.0400
    117  CG        16.8750  -23.4050    9.7090 C.3   154  MET154      0.0596
    118  SD        17.1110  -22.8030   11.3980 S.3   154  MET154     -0.1393
    119  CE        18.3230  -23.9660   11.9920 C.3   154  MET154      0.0692
    120  N         13.6640  -22.6140    6.3970 N.am  155  PRO155     -0.2718
    121  CA        12.4460  -21.9280    5.9850 C.3   155  PRO155      0.1535
    122  C         11.5660  -21.7580    7.2080 C.2   155  PRO155      0.2598
    123  O         11.8220  -22.4000    8.2460 O.2   155  PRO155     -0.2715
    124  CB        11.8190  -22.9070    4.9980 C.3   155  PRO155      0.0310
    125  CG        12.1770  -24.2230    5.5370 C.3   155  PRO155      0.0237
    126  CD        13.5230  -24.0730    6.2260 C.3   155  PRO155      0.0939
    127  N         10.5650  -20.8800    7.1070 N.am  156  HIS156     -0.1974
    128  CA         9.6010  -20.7170    8.1890 C.3   156  HIS156      0.1656
    129  C          8.9250  -22.0340    8.4540 C.2   156  HIS156      0.2291
    130  O          8.7590  -22.8160    7.5380 O.2   156  HIS156     -0.2864
    131  CB         8.5310  -19.6820    7.8440 C.3   156  HIS156      0.0771
    132  CG         9.0080  -18.2770    7.9310 C.ar  156  HIS156      0.0820
    133  ND1        8.4650  -17.2690    7.1730 N.ar  156  HIS156     -0.2267
    134  CD2        9.9820  -17.7090    8.6810 C.ar  156  HIS156      0.1154
    135  CE1        9.0840  -16.1380    7.4480 C.ar  156  HIS156      0.1986
    136  NE2       10.0150  -16.3780    8.3560 N.ar  156  HIS156     -0.2212
    137  N          8.3360  -22.4240   17.7180 N.3   168  HIS168     -0.1226
    138  CA         9.8130  -22.5280   17.5990 C.3   168  HIS168      0.1752
    139  C         10.4050  -21.2860   16.9560 C.2   168  HIS168      0.2595
    140  O          9.6680  -20.3880   16.6020 O.2   168  HIS168     -0.2718
    141  CB        10.1840  -23.7730   16.7880 C.3   168  HIS168      0.0759
    142  CG         9.6340  -25.0410   17.3560 C.ar  168  HIS168      0.0818
    143  ND1       10.1920  -25.6670   18.4510 N.ar  168  HIS168     -0.2268
    144  CD2        8.5570  -25.7800   17.0060 C.ar  168  HIS168      0.1154
    145  CE1        9.4960  -26.7530   18.7320 C.ar  168  HIS168      0.1986
    146  NE2        8.4960  -26.8420   17.8740 N.ar  168  HIS168     -0.2212
    147  N         11.7360  -21.2340   16.8190 N.am  169  MET169     -0.1979
    148  CA        12.4270  -20.0130   16.3620 C.3   169  MET169      0.1605
    149  C         12.0630  -19.6010   14.9460 C.2   169  MET169      0.2287
    150  O         12.1060  -18.4260   14.6220 O.2   169  MET169     -0.2864
    151  CB        13.9440  -20.1850   16.4080 C.3   169  MET169      0.0413
    152  CG        14.5630  -20.1490   17.7920 C.3   169  MET169      0.0598
    153  SD        14.3230  -18.5880   18.6530 S.3   169  MET169     -0.1393
    154  CE        14.6340  -17.3520   17.3850 C.3   169  MET169      0.0692
    155  N          9.2360  -19.6380   13.3450 N.3   171  ALA171     -0.1231
    156  CA         7.8210  -19.2860   13.1600 C.3   171  ALA171      0.1694
    157  C          7.6900  -18.0300   12.3010 C.2   171  ALA171      0.2593
    158  O          8.4700  -17.0970   12.4490 O.2   171  ALA171     -0.2718
    159  CB         7.1600  -19.0510   14.5140 C.3   171  ALA171      0.0304
    160  N          6.6880  -18.0030   11.4290 N.am  172  SER172     -0.1938
    161  CA         6.4200  -16.8500   10.5680 C.3   172  SER172      0.2055
    162  C          5.7830  -15.6750   11.3150 C.2   172  SER172      0.2643
    163  O          5.7360  -14.5620   10.7950 O.2   172  SER172     -0.2714
    164  CB         5.4870  -17.2580    9.4210 C.3   172  SER172      0.2130
    165  OG         4.2070  -17.6420    9.9080 O.3   172  SER172     -0.2179
    166  N          5.2530  -15.9310   12.5060 N.am  173  MET173     -0.1962
    167  CA         4.6300  -14.8920   13.3220 C.3   173  MET173      0.1736
    168  C          5.0100  -15.1060   14.7730 C.2   173  MET173      0.2616
    169  O          5.2380  -16.2450   15.2140 O.2   173  MET173     -0.2715
    170  CB         3.1070  -14.9230   13.1740 C.3   173  MET173      0.0427
    171  CG         2.5460  -14.1130   11.9750 C.3   173  MET173      0.0599
    172  SD         2.5630  -12.2910   12.1730 S.3   173  MET173     -0.1393
    173  CE         4.0800  -11.8430   11.3130 C.3   173  MET173      0.0692
    174  N          5.0630  -14.0070   15.5180 N.am  174  LEU174     -0.1963
    175  CA         5.4850  -14.0450   16.9160 C.3   174  LEU174      0.1728
    176  C          4.4520  -14.7030   17.8260 C.2   174  LEU174      0.2616
    177  O          3.2700  -14.3450   17.8030 O.2   174  LEU174     -0.2715
    178  CB         5.7670  -12.6250   17.4260 C.3   174  LEU174      0.0311
    179  CG         6.9040  -11.8460   16.7570 C.3   174  LEU174      0.0022
    180  CD1        6.8680  -10.3850   17.1870 C.3   174  LEU174      0.0001
    181  CD2        8.2390  -12.4700   17.1000 C.3   174  LEU174      0.0001
    182  N          4.8990  -15.6710   18.6190 N.am  175  SER175     -0.1950
    183  CA         4.0960  -16.1680   19.7400 C.3   175  SER175      0.1924
    184  C          5.0140  -16.8660   20.7600 C.2   175  SER175      0.2314
    185  O          6.2370  -16.7080   20.7180 O.2   175  SER175     -0.2863
    186  CB         2.9270  -17.0580   19.2490 C.3   175  SER175      0.2116
    187  OG         2.9940  -18.4070   19.7020 O.3   175  SER175     -0.2180
    188  N          7.4490  -18.9760   22.6880 N.3   177  LEU177     -0.1245
    189  CA         8.5670  -19.8360   22.3160 C.3   177  LEU177      0.1561
    190  C          8.6070  -21.0180   23.2630 C.2   177  LEU177      0.2260
    191  O          8.5020  -20.8310   24.4790 O.2   177  LEU177     -0.2867
    192  CB         9.8890  -19.0560   22.4410 C.3   177  LEU177      0.0270
    193  CG        11.0320  -19.2430   21.4280 C.3   177  LEU177      0.0019
    194  CD1       12.3420  -18.7210   22.0400 C.3   177  LEU177      0.0001
    195  CD2       11.2020  -20.6760   20.9470 C.3   177  LEU177      0.0001
    196  N          6.2400   -8.9050   25.1300 N.3   257  PHE257     -0.1228
    197  CA         7.4160   -9.7300   25.3090 C.3   257  PHE257      0.1721
    198  C          7.7110   -9.8620   26.8170 C.2   257  PHE257      0.2437
    199  O          7.4300   -8.9290   27.5930 O.2   257  PHE257     -0.2733
    200  CB         8.5890   -9.1010   24.5490 C.3   257  PHE257      0.0547
    201  CG         9.3880  -10.0900   23.7540 C.ar  257  PHE257     -0.0202
    202  CD1        9.1090  -10.3020   22.4070 C.ar  257  PHE257     -0.0042
    203  CD2       10.4200  -10.8130   24.3560 C.ar  257  PHE257     -0.0042
    204  CE1        9.8550  -11.2220   21.6770 C.ar  257  PHE257     -0.0003
    205  CE2       11.1650  -11.7440   23.6440 C.ar  257  PHE257     -0.0003
    206  CZ        10.8960  -11.9490   22.3130 C.ar  257  PHE257     -0.0000
    207  N          8.2630  -11.0220   27.2440 N.am  258  PRO258     -0.2729
    208  CA         8.6450  -11.1740   28.6570 C.3   258  PRO258      0.1401
    209  C          9.7960  -10.2680   29.1290 C.2   258  PRO258      0.2269
    210  O         10.4730   -9.6240   28.3240 O.2   258  PRO258     -0.2865
    211  CB         9.0940  -12.6390   28.7530 C.3   258  PRO258      0.0296
    212  CG         8.6330  -13.2950   27.5380 C.3   258  PRO258      0.0237
    213  CD         8.5470  -12.2490   26.4800 C.3   258  PRO258      0.0939
@<TRIPOS>BOND
     1    44    43    2
     2    43    42    1
     3    41    42    1
     4    45    42    1
     5    45    46    1
     6    45    47    1
     7    34    33    1
     8    34    35    1
     9    39    38    2
    10    38    37    1
    11    33    32    1
    12   124   125    1
    13   124   121    1
    14    37    36    1
    15    37    40    1
    16   125   126    1
    17   105   104    2
    18    36    30   am
    19   121   120    1
    20   121   122    1
    21    32    29    1
    22   126   120    1
    23   120   114   am
    24   104   103    1
    25    30    29    1
    26    30    31    2
    27   112   113    1
    28   115   114    2
    29   114   113    1
    30   106   103    1
    31   106   107    1
    32    29    28    1
    33   108   107   ar
    34   108   110   ar
    35   127   122   am
    36   127   128    1
    37   133   135   ar
    38   133   132   ar
    39   122   123    2
    40   103   102    1
    41   107   109   ar
    42   110   111   ar
    43   113   116    1
    44   135   136   ar
    45    14    13    1
    46   130   129    2
    47   109   111   ar
    48   131   132    1
    49   131   128    1
    50   132   134   ar
    51    15    13    1
    52   128   129    1
    53   136   134   ar
    54    28    26   am
    55    27    26    2
    56    13    10    1
    57   100    99   ar
    58   116   117    1
    59    26    25    1
    60    96    95    2
    61   164   165    1
    62   164   161    1
    63   117   118    1
    64    10     9    1
    65    10    11    1
    66    99   101   ar
    67    99    98    1
    68     9     3   am
    69    95    94    1
    70     1     2    1
    71    25    24    1
    72   161   162    1
    73   161   160    1
    74    94    97    1
    75    94    93    1
    76    97    98    1
    77   163   162    2
    78    24    18   am
    79    92    90   ar
    80    92    91   ar
    81    11    16   am
    82    11    12    2
    83    86    85    2
    84     3     2    1
    85     3     4    2
    86     5     2    1
    87     5     6    1
    88   173   172    1
    89   162   166   am
    90    16    17    1
    91    90    88   ar
    92   118   119    1
    93   160   157   am
    94     8     6   ar
    95    91    89   ar
    96     6     7   ar
    97    93    85   am
    98    18    17    1
    99    18    19    2
   100   171   172    1
   101   171   170    1
   102    85    84    1
   103   157   158    2
   104   157   156    1
   105    17    20    1
   106   166   167    1
   107    88    89   ar
   108    88    87    1
   109   156   155    1
   110   156   159    1
   111   170   167    1
   112   167   168    1
   113    84    87    1
   114    84    83    1
   115    20    21    1
   116    82    80    1
   117    79    78    2
   118    21    23    1
   119    21    22    1
   120   150   149    2
   121   168   169    2
   122   168   174   am
   123   149   148    1
   124    78    77    1
   125    80    77    1
   126    80    81    1
   127   174   175    1
   128    77    76    1
   129   148   151    1
   130   148   147    1
   131   151   152    1
   132   140   139    2
   133    68    67    2
   134   179   181    1
   135   179   180    1
   136   179   178    1
   137   141   142    1
   138   141   138    1
   139   147   139   am
   140   175   178    1
   141   175   176    1
   142   139   138    1
   143   144   142   ar
   144   144   146   ar
   145    76    67   am
   146   142   143   ar
   147   154   153    1
   148    67    66    1
   149   138   137    1
   150   152   153    1
   151   177   176    2
   152   176   182   am
   153   146   145   ar
   154    55    53   ar
   155    53    52    1
   156    53    54   ar
   157    48    49    1
   158   143   145   ar
   159    52    49    1
   160   182   183    1
   161    66    65    1
   162    66    69    1
   163    49    50    1
   164   186   187    1
   165   186   183    1
   166    69    70    1
   167   183   184    1
   168    59    58    2
   169    58    57    1
   170    50    51    2
   171   185   184    2
   172   195   193    1
   173    70    72   ar
   174    70    71   ar
   175    61    60    1
   176    61    62    1
   177    72    74   ar
   178   193   194    1
   179   193   192    1
   180   204   206   ar
   181   204   202   ar
   182    60    57    1
   183    57    56    1
   184    71    73   ar
   185    64    62   am
   186   206   205   ar
   187   189   192    1
   188   189   188    1
   189   189   190    1
   190    62    63    2
   191   202   201   ar
   192    74    75   ar
   193   190   191    2
   194    73    75   ar
   195   205   203   ar
   196   201   203   ar
   197   201   200    1
   198   200   197    1
   199   196   197    1
   200   197   198    1
   201   213   207    1
   202   213   212    1
   203   198   207   am
   204   198   199    2
   205   207   208    1
   206   212   211    1
   207   210   209    2
   208   208   211    1
   209   208   209    1
