@<TRIPOS>MOLECULE
tmp/3q2hA00.pdb
 198 193 0 0 0
SMALL
GASTEIGER

@<TRIPOS>ATOM
      1  N          5.1670   -5.9710    8.0480 N.3   113  ASP113     -0.1225
      2  CA         5.2440   -6.8830    9.1780 C.3   113  ASP113      0.1805
      3  C          6.5160   -7.7550    9.1120 C.2   113  ASP113      0.2598
      4  O          6.8160   -8.4870   10.0500 O.2   113  ASP113     -0.2718
      5  CB         3.9720   -7.7280    9.2890 C.3   113  ASP113      0.1424
      6  CG         2.7750   -6.9350    9.8530 C.2   113  ASP113      0.3668
      7  OD1        2.9820   -5.8200   10.4120 O.co2 113  ASP113     -0.2456
      8  OD2        1.6230   -7.4390    9.7430 O.co2 113  ASP113     -0.2456
      9  N          7.2850   -7.6310    8.0360 N.am  114  THR114     -0.1939
     10  CA         8.6020   -8.2550    7.9650 C.3   114  THR114      0.2028
     11  C          9.4790   -7.8650    9.1630 C.2   114  THR114      0.2642
     12  O          9.5540   -6.6870    9.5260 O.2   114  THR114     -0.2714
     13  CB         9.3260   -7.8730    6.6620 C.3   114  THR114      0.1808
     14  OG1        8.4620   -8.1230    5.5520 O.3   114  THR114     -0.2208
     15  CG2       10.5970   -8.6570    6.4820 C.3   114  THR114      0.0379
     16  N         10.1200   -8.8690    9.7680 N.am  115  LEU115     -0.1963
     17  CA        11.0100   -8.7000   10.9200 C.3   115  LEU115      0.1728
     18  C         12.4510   -9.0400   10.5740 C.2   115  LEU115      0.2617
     19  O         13.3510   -8.6480   11.2670 O.2   115  LEU115     -0.2715
     20  CB        10.5510   -9.5940   12.0780 C.3   115  LEU115      0.0311
     21  CG         9.1200   -9.3660   12.5930 C.3   115  LEU115      0.0022
     22  CD1        8.8060  -10.3230   13.7310 C.3   115  LEU115      0.0001
     23  CD2        8.8860   -7.9040   13.0300 C.3   115  LEU115      0.0001
     24  N         12.6800   -9.7690    9.5050 N.am  116  GLY116     -0.1940
     25  CA        14.0280  -10.0980    9.1040 C.3   116  GLY116      0.2014
     26  C         13.9890  -10.8120    7.7710 C.2   116  GLY116      0.2639
     27  O         12.9220  -10.9880    7.1980 O.2   116  GLY116     -0.2714
     28  N         15.1430  -11.2380    7.2730 N.am  117  MET117     -0.1963
     29  CA        15.2490  -11.7020    5.8860 C.3   117  MET117      0.1736
     30  C         16.5010  -12.5860    5.7320 C.2   117  MET117      0.2616
     31  O         17.5600  -12.2970    6.2910 O.2   117  MET117     -0.2715
     32  CB        15.2990  -10.4410    4.9810 C.3   117  MET117      0.0427
     33  CG        14.6760  -10.4660    3.5890 C.3   117  MET117      0.0599
     34  SD        12.9740  -11.0330    3.2610 S.3   117  MET117     -0.1393
     35  CE        13.4110  -12.8160    3.1290 C.3   117  MET117      0.0692
     36  N         16.3560  -13.7140    5.0350 N.am  118  ALA118     -0.1977
     37  CA        17.5110  -14.4440    4.5490 C.3   118  ALA118      0.1597
     38  C         17.0910  -15.4950    3.5220 C.2   118  ALA118      0.2287
     39  O         15.9370  -15.9320    3.5470 O.2   118  ALA118     -0.2864
     40  CB        18.2310  -15.0970    5.6970 C.3   118  ALA118      0.0319
     41  N         17.7060  -19.4150    1.8240 N.3   120  VAL120     -0.1245
     42  CA        17.8060  -20.7170    2.4840 C.3   120  VAL120      0.1561
     43  C         19.0070  -21.4740    1.9300 C.2   120  VAL120      0.2260
     44  O         19.2440  -21.4460    0.7400 O.2   120  VAL120     -0.2867
     45  CB        16.4810  -21.5300    2.3170 C.3   120  VAL120      0.0252
     46  CG1       16.5180  -22.8070    3.1320 C.3   120  VAL120      0.0019
     47  CG2       15.2640  -20.6810    2.7250 C.3   120  VAL120      0.0019
     48  N         13.5290   -4.1450   16.7410 N.3   136  ASP136     -0.1239
     49  CA        12.3320   -3.6310   17.3920 C.3   136  ASP136      0.1674
     50  C         12.3950   -4.0210   18.8540 C.2   136  ASP136      0.2266
     51  O         11.3660   -4.1370   19.5140 O.2   136  ASP136     -0.2867
     52  CB        11.0750   -4.2680   16.7520 C.3   136  ASP136      0.1410
     53  CG        11.1950   -5.8030   16.5990 C.2   136  ASP136      0.3668
     54  OD1       12.2260   -6.3730   17.0590 O.co2 136  ASP136     -0.2456
     55  OD2       10.2740   -6.4470   16.0120 O.co2 136  ASP136     -0.2456
     56  N         13.5380   -8.9750   21.4480 N.3   139  GLN139     -0.1245
     57  CA        13.0090  -10.1210   20.6820 C.3   139  GLN139      0.1566
     58  C         13.6960  -10.3260   19.3170 C.2   139  GLN139      0.2260
     59  O         13.5170  -11.3880   18.6870 O.2   139  GLN139     -0.2867
     60  CB        11.5240   -9.9440   20.4640 C.3   139  GLN139      0.0367
     61  CG        11.1640   -8.7560   19.5340 C.3   139  GLN139      0.0905
     62  CD        10.8360   -7.4850   20.2640 C.2   139  GLN139      0.2608
     63  OE1       11.3120   -7.2410   21.3840 O.2   139  GLN139     -0.2717
     64  NE2        9.9840   -6.6660   19.6460 N.am  139  GLN139     -0.0878
     65  N         15.5220  -13.5490   18.5780 N.3   142  PHE142     -0.1227
     66  CA        14.8130  -14.7280   18.0590 C.3   142  PHE142      0.1736
     67  C         14.6280  -14.6100   16.5560 C.2   142  PHE142      0.2596
     68  O         14.6230  -15.5980   15.8160 O.2   142  PHE142     -0.2718
     69  CB        13.4360  -14.8320   18.7280 C.3   142  PHE142      0.0547
     70  CG        13.5010  -15.2010   20.1640 C.ar  142  PHE142     -0.0202
     71  CD1       13.8660  -14.2630   21.1150 C.ar  142  PHE142     -0.0042
     72  CD2       13.2120  -16.4940   20.5770 C.ar  142  PHE142     -0.0042
     73  CE1       13.9400  -14.6120   22.4650 C.ar  142  PHE142     -0.0003
     74  CE2       13.2940  -16.8410   21.9100 C.ar  142  PHE142     -0.0003
     75  CZ        13.6570  -15.9020   22.8560 C.ar  142  PHE142     -0.0000
     76  N         14.4340  -13.3900   16.0980 N.am  143  THR143     -0.1953
     77  CA        14.5280  -13.1270   14.6650 C.3   143  THR143      0.1897
     78  C         15.8970  -13.5280   14.1480 C.2   143  THR143      0.2313
     79  O         15.9810  -14.1890   13.1220 O.2   143  THR143     -0.2863
     80  CB        14.2470  -11.6540   14.3180 C.3   143  THR143      0.1794
     81  OG1       12.9970  -11.2930   14.9000 O.3   143  THR143     -0.2208
     82  CG2       14.1640  -11.4630   12.8020 C.3   143  THR143      0.0378
     83  N         16.0270  -17.2880   13.8230 N.3   146  HIS146     -0.1226
     84  CA        15.1030  -17.7540   12.7600 C.3   146  HIS146      0.1752
     85  C         15.7790  -17.6080   11.4040 C.2   146  HIS146      0.2595
     86  O         15.9250  -18.5780   10.6490 O.2   146  HIS146     -0.2718
     87  CB        13.8080  -16.9360   12.7910 C.3   146  HIS146      0.0759
     88  CG        12.8080  -17.2760   11.7230 C.ar  146  HIS146      0.0818
     89  ND1       11.7350  -18.1110   11.9460 N.ar  146  HIS146     -0.2268
     90  CD2       12.6620  -16.8130   10.4520 C.ar  146  HIS146      0.1154
     91  CE1       10.9980  -18.1800   10.8440 C.ar  146  HIS146      0.1986
     92  NE2       11.5440  -17.4060    9.9180 N.ar  146  HIS146     -0.2212
     93  N         16.2490  -16.4000   11.1350 N.am  147  GLU147     -0.1979
     94  CA        16.9350  -16.1200    9.8620 C.3   147  GLU147      0.1602
     95  C         18.1880  -16.9760    9.7720 C.2   147  GLU147      0.2287
     96  O         18.4610  -17.5400    8.7250 O.2   147  GLU147     -0.2864
     97  CB        17.2900  -14.6480    9.6940 C.3   147  GLU147      0.0415
     98  CG        16.1170  -13.6030    9.8840 C.3   147  GLU147      0.1163
     99  CD        14.8280  -13.9030    9.1050 C.2   147  GLU147      0.3649
    100  OE1       14.9010  -14.5060    8.0120 O.co2 147  GLU147     -0.2457
    101  OE2       13.7290  -13.4570    9.5820 O.co2 147  GLU147     -0.2457
    102  N         17.1840  -20.0550    8.4490 N.3   150  HIS150     -0.1241
    103  CA        17.0850  -20.1680    6.9940 C.3   150  HIS150      0.1621
    104  C         18.4440  -20.5150    6.4280 C.2   150  HIS150      0.2264
    105  O         18.5810  -21.5070    5.7080 O.2   150  HIS150     -0.2867
    106  CB        16.4390  -18.9640    6.3260 C.3   150  HIS150      0.0745
    107  CG        14.9640  -18.9050    6.5470 C.ar  150  HIS150      0.0817
    108  ND1       14.1570  -20.0150    6.4520 N.ar  150  HIS150     -0.2268
    109  CD2       14.1540  -17.8850    6.9110 C.ar  150  HIS150      0.1154
    110  CE1       12.9120  -19.6870    6.7400 C.ar  150  HIS150      0.1986
    111  NE2       12.8800  -18.3990    7.0250 N.ar  150  HIS150     -0.2212
    112  N         13.4990  -24.8150    6.4140 N.3   155  PRO155     -0.2102
    113  CA        12.3210  -24.1520    5.9160 C.3   155  PRO155      0.1504
    114  C         11.4240  -23.8410    7.0960 C.2   155  PRO155      0.2575
    115  O         11.6790  -24.3080    8.2220 O.2   155  PRO155     -0.2718
    116  CB        11.6690  -25.2330    5.0350 C.3   155  PRO155      0.0282
    117  CG        12.0390  -26.4930    5.6790 C.3   155  PRO155      0.0208
    118  CD        13.3420  -26.2870    6.3680 C.3   155  PRO155      0.0893
    119  N         10.3730  -23.0770    6.8250 N.am  156  HIS156     -0.1976
    120  CA         9.3130  -22.8690    7.7810 C.3   156  HIS156      0.1656
    121  C          8.5950  -24.1600    8.0720 C.2   156  HIS156      0.2291
    122  O          8.4250  -25.0050    7.1980 O.2   156  HIS156     -0.2864
    123  CB         8.3050  -21.8820    7.2480 C.3   156  HIS156      0.0771
    124  CG         8.7980  -20.4740    7.2330 C.ar  156  HIS156      0.0820
    125  ND1        8.3140  -19.5380    6.3530 N.ar  156  HIS156     -0.2267
    126  CD2        9.7240  -19.8410    7.9880 C.ar  156  HIS156      0.1154
    127  CE1        8.9150  -18.3840    6.5640 C.ar  156  HIS156      0.1986
    128  NE2        9.7760  -18.5400    7.5540 N.ar  156  HIS156     -0.2212
    129  N          7.1810  -23.3410   17.0870 N.3   169  HIS169     -0.1226
    130  CA         8.6200  -23.4920   17.1540 C.3   169  HIS169      0.1752
    131  C          9.3060  -22.3220   16.4880 C.2   169  HIS169      0.2595
    132  O          8.6480  -21.4350   15.9490 O.2   169  HIS169     -0.2718
    133  CB         9.0230  -24.8100   16.4970 C.3   169  HIS169      0.0759
    134  CG         8.5250  -26.0140   17.2310 C.ar  169  HIS169      0.0818
    135  ND1        8.9950  -26.3700   18.4770 N.ar  169  HIS169     -0.2268
    136  CD2        7.5830  -26.9280   16.9050 C.ar  169  HIS169      0.1154
    137  CE1        8.3670  -27.4570   18.8820 C.ar  169  HIS169      0.1986
    138  NE2        7.5060  -27.8170   17.9470 N.ar  169  HIS169     -0.2212
    139  N         10.6320  -22.3380   16.5400 N.am  170  MET170     -0.1979
    140  CA        11.4580  -21.3020   15.9520 C.3   170  MET170      0.1605
    141  C         11.1410  -20.9830   14.5020 C.2   170  MET170      0.2287
    142  O         11.2350  -19.8160   14.1010 O.2   170  MET170     -0.2864
    143  CB        12.9440  -21.6780   16.0450 C.3   170  MET170      0.0413
    144  CG        13.6340  -21.3740   17.3870 C.3   170  MET170      0.0598
    145  SD        13.5010  -19.6590   17.9770 S.3   170  MET170     -0.1393
    146  CE        14.0400  -18.7040   16.5560 C.3   170  MET170      0.0692
    147  N          8.3240  -21.2640   12.6820 N.3   172  ALA172     -0.1231
    148  CA         6.9620  -20.8550   12.3290 C.3   172  ALA172      0.1694
    149  C          6.9690  -19.8280   11.2030 C.2   172  ALA172      0.2593
    150  O          7.8600  -18.9960   11.1260 O.2   172  ALA172     -0.2718
    151  CB         6.2540  -20.2830   13.5630 C.3   172  ALA172      0.0304
    152  N          5.9570  -19.8770   10.3420 N.am  173  SER173     -0.1938
    153  CA         5.9050  -18.9940    9.1600 C.3   173  SER173      0.2055
    154  C          5.4840  -17.5610    9.5210 C.2   173  SER173      0.2643
    155  O          5.6310  -16.6270    8.7390 O.2   173  SER173     -0.2714
    156  CB         4.9510  -19.5670    8.1030 C.3   173  SER173      0.2130
    157  OG         3.6580  -19.8310    8.6290 O.3   173  SER173     -0.2179
    158  N          4.9280  -17.4220   10.7100 N.am  174  MET174     -0.1962
    159  CA         4.4910  -16.1540   11.2050 C.3   174  MET174      0.1736
    160  C          4.7810  -16.1330   12.6840 C.2   174  MET174      0.2616
    161  O          5.0840  -17.1670   13.2850 O.2   174  MET174     -0.2715
    162  CB         3.0020  -15.9660   10.9180 C.3   174  MET174      0.0427
    163  CG         2.7300  -15.1480    9.6590 C.3   174  MET174      0.0599
    164  SD         0.9960  -15.2610    9.1360 S.3   174  MET174     -0.1393
    165  CE         0.6900  -13.5470    8.6200 C.3   174  MET174      0.0692
    166  N          4.7250  -14.9360   13.2560 N.am  175  LEU175     -0.1963
    167  CA         5.0680  -14.7530   14.6460 C.3   175  LEU175      0.1728
    168  C          3.9400  -15.3490   15.4490 C.2   175  LEU175      0.2616
    169  O          2.7620  -15.0430   15.2200 O.2   175  LEU175     -0.2715
    170  CB         5.2360  -13.2730   14.9800 C.3   175  LEU175      0.0311
    171  CG         5.5220  -12.8890   16.4320 C.3   175  LEU175      0.0022
    172  CD1        6.8580  -13.4780   16.8820 C.3   175  LEU175      0.0001
    173  CD2        5.5060  -11.3710   16.5580 C.3   175  LEU175      0.0001
    174  N          4.3170  -16.2100   16.3830 N.am  176  SER176     -0.1950
    175  CA         3.3830  -16.9130   17.2220 C.3   176  SER176      0.1924
    176  C          4.0970  -17.2490   18.5140 C.2   176  SER176      0.2314
    177  O          5.2210  -16.8290   18.7210 O.2   176  SER176     -0.2863
    178  CB         2.8500  -18.1620   16.4970 C.3   176  SER176      0.2116
    179  OG         3.7850  -18.6830   15.5680 O.3   176  SER176     -0.2180
    180  N          6.2990  -19.0270   20.8520 N.3   178  LEU178     -0.1245
    181  CA         7.3560  -20.0330   20.8630 C.3   178  LEU178      0.1561
    182  C          7.1570  -20.9810   22.0430 C.2   178  LEU178      0.2260
    183  O          6.6540  -20.5850   23.0910 O.2   178  LEU178     -0.2867
    184  CB         8.7230  -19.3850   20.9680 C.3   178  LEU178      0.0270
    185  CG         9.9490  -20.2970   20.8790 C.3   178  LEU178      0.0019
    186  CD1       10.0890  -20.8960   19.4840 C.3   178  LEU178      0.0001
    187  CD2       11.2160  -19.5040   21.2700 C.3   178  LEU178      0.0001
    188  N          5.1710   -9.3850   24.0040 N.3   259  PHE259     -0.1241
    189  CA         6.3260  -10.1650   24.4070 C.3   259  PHE259      0.1605
    190  C          6.5430  -10.0690   25.8990 C.2   259  PHE259      0.2264
    191  O          6.2870   -9.0270   26.4980 O.2   259  PHE259     -0.2867
    192  CB         7.5800   -9.6430   23.7280 C.3   259  PHE259      0.0534
    193  CG         7.5840   -9.8480   22.2660 C.ar  259  PHE259     -0.0203
    194  CD1        7.1870   -8.8320   21.4110 C.ar  259  PHE259     -0.0042
    195  CD2        7.9620  -11.0650   21.7350 C.ar  259  PHE259     -0.0042
    196  CE1        7.1660   -9.0310   20.0430 C.ar  259  PHE259     -0.0003
    197  CE2        7.9530  -11.2560   20.3910 C.ar  259  PHE259     -0.0003
    198  CZ         7.5410  -10.2310   19.5400 C.ar  259  PHE259     -0.0000
@<TRIPOS>BOND
     1    44    43    2
     2    41    42    1
     3    43    42    1
     4    45    42    1
     5    45    47    1
     6    45    46    1
     7    35    34    1
     8    34    33    1
     9    38    39    2
    10    38    37    1
    11    33    32    1
    12    37    36    1
    13    37    40    1
    14    32    29    1
    15    36    30   am
    16   116   117    1
    17   116   113    1
    18    14    13    1
    19   117   118    1
    20   105   104    2
    21    30    29    1
    22    30    31    2
    23    29    28    1
    24   113   112    1
    25   113   114    1
    26   106   107    1
    27   106   103    1
    28   125   127   ar
    29   125   124   ar
    30   118   112    1
    31   104   103    1
    32   108   107   ar
    33   108   110   ar
    34    15    13    1
    35   107   109   ar
    36   127   128   ar
    37    13    10    1
    38   110   111   ar
    39   119   114   am
    40   119   120    1
    41   109   111   ar
    42   103   102    1
    43   114   115    2
    44    27    26    2
    45   122   121    2
    46   124   123    1
    47   124   126   ar
    48   123   120    1
    49    28    26   am
    50   128   126   ar
    51    26    25    1
    52   120   121    1
    53    10     9    1
    54    10    11    1
    55   100    99   ar
    56     9     3   am
    57     1     2    1
    58   156   157    1
    59   156   153    1
    60   165   164    1
    61    96    95    2
    62   155   154    2
    63    25    24    1
    64    99   101   ar
    65    99    98    1
    66     3     2    1
    67     3     4    2
    68   164   163    1
    69   153   154    1
    70   153   152    1
    71    11    12    2
    72    11    16   am
    73     2     5    1
    74     5     6    1
    75    24    18   am
    76   154   158   am
    77   163   162    1
    78    97    94    1
    79    97    98    1
    80     8     6   ar
    81    16    17    1
    82    95    94    1
    83     6     7   ar
    84    94    93    1
    85    92    90   ar
    86    92    91   ar
    87   152   149   am
    88    90    88   ar
    89    18    17    1
    90    18    19    2
    91    86    85    2
    92   158   159    1
    93    91    89   ar
    94   162   159    1
    95    17    20    1
    96   150   149    2
    97    93    85   am
    98   149   148    1
    99   159   160    1
   100    85    84    1
   101    88    89   ar
   102    88    87    1
   103    20    21    1
   104   148   147    1
   105   148   151    1
   106    21    23    1
   107    21    22    1
   108   160   166   am
   109   160   161    2
   110    84    87    1
   111    84    83    1
   112    82    80    1
   113    79    78    2
   114   166   167    1
   115   142   141    2
   116    78    77    1
   117    80    77    1
   118    80    81    1
   119   141   140    1
   120   167   170    1
   121   167   168    1
   122    77    76    1
   123   170   171    1
   124   169   168    2
   125   168   174   am
   126   179   178    1
   127    68    67    2
   128   132   131    2
   129   140   143    1
   130   140   139    1
   131    55    53   ar
   132   143   144    1
   133    76    67   am
   134   174   175    1
   135   171   173    1
   136   171   172    1
   137   131   139   am
   138   131   130    1
   139   133   130    1
   140   133   134    1
   141   178   175    1
   142    67    66    1
   143   146   145    1
   144    53    52    1
   145    53    54   ar
   146    48    49    1
   147    52    49    1
   148   136   134   ar
   149   136   138   ar
   150   129   130    1
   151   175   176    1
   152   134   135   ar
   153   144   145    1
   154    49    50    1
   155   138   137   ar
   156    66    65    1
   157    66    69    1
   158   135   137   ar
   159   176   177    2
   160    59    58    2
   161    69    70    1
   162    50    51    2
   163    58    57    1
   164   186   185    1
   165    61    62    1
   166    61    60    1
   167   198   196   ar
   168   198   197   ar
   169    64    62   am
   170   196   194   ar
   171    70    72   ar
   172    70    71   ar
   173    62    63    2
   174   197   195   ar
   175    60    57    1
   176    72    74   ar
   177    57    56    1
   178   180   181    1
   179   181   184    1
   180   181   182    1
   181   185   184    1
   182   185   187    1
   183    71    73   ar
   184   194   193   ar
   185   195   193   ar
   186    74    75   ar
   187   182   183    2
   188   193   192    1
   189    73    75   ar
   190   192   189    1
   191   188   189    1
   192   189   190    1
   193   190   191    2
