@<TRIPOS>MOLECULE
tmp/3q2iA01.pdb
 190 187 0 0 0
SMALL
GASTEIGER

@<TRIPOS>ATOM
      1  N         12.9370   32.1440   29.3070 N.3    21  ARG21      -0.1231
      2  CA        12.4900   33.2290   28.4830 C.3    21  ARG21       0.1694
      3  C         11.0170   33.5790   28.6290 C.2    21  ARG21       0.2591
      4  O         10.6990   34.7560   28.9220 O.2    21  ARG21      -0.2718
      5  CB        12.9260   32.9940   27.0150 C.3    21  ARG21       0.0321
      6  CG        12.8450   34.1940   26.0820 C.3    21  ARG21       0.0489
      7  CD        13.3440   33.8190   24.6730 C.3    21  ARG21       0.2205
      8  NE        14.6540   33.1780   24.7450 N.pl3  21  ARG21      -0.0865
      9  CZ        15.1960   32.4010   23.8060 C.cat  21  ARG21       0.5346
     10  NH1       14.5470   32.0920   22.6710 N.pl3  21  ARG21       0.1354
     11  NH2       16.4190   31.9260   24.0230 N.pl3  21  ARG21       0.1354
     12  N         10.0770   32.6370   28.4070 N.am   22  ILE22      -0.1980
     13  CA         8.6770   33.1070   28.4300 C.3    22  ILE22       0.1595
     14  C          8.2050   33.2600   29.8820 C.2    22  ILE22       0.2287
     15  O          7.1770   33.8920   30.1050 O.2    22  ILE22      -0.2864
     16  CB         7.5610   32.2340   27.7350 C.3    22  ILE22       0.0276
     17  CG1        7.8510   30.7540   27.7720 C.3    22  ILE22       0.0022
     18  CG2        6.7710   32.9880   26.6240 C.3    22  ILE22       0.0022
     19  CD1        8.1660   30.2440   29.1200 C.3    22  ILE22       0.0001
     20  N          2.3650   26.2710   25.5380 N.3   104  LYS104     -0.1245
     21  CA         2.2330   25.5380   24.2680 C.3   104  LYS104      0.1561
     22  C          3.6180   25.1100   23.8310 C.2   104  LYS104      0.2260
     23  O          4.6450   25.6790   24.2100 O.2   104  LYS104     -0.2867
     24  CB         1.5890   26.4420   23.2200 C.3   104  LYS104      0.0271
     25  CG         2.4490   27.6650   22.8470 C.3   104  LYS104      0.0035
     26  CD         3.6460   27.3040   21.9630 C.3   104  LYS104      0.0206
     27  CE         4.0230   28.4170   20.9950 C.3   104  LYS104      0.1093
     28  NZ         5.2700   28.1190   20.1540 N.3   104  LYS104     -0.1314
     29  N         -2.3650   32.3260   23.7150 N.3   132  GLN132     -0.1231
     30  CA        -2.6230   33.7340   24.0390 C.3   132  GLN132      0.1698
     31  C         -2.9190   34.5800   22.8070 C.2   132  GLN132      0.2592
     32  O         -3.4430   35.6950   22.9200 O.2   132  GLN132     -0.2718
     33  CB        -1.4960   34.2580   24.9350 C.3   132  GLN132      0.0381
     34  CG        -0.2550   34.7760   24.2240 C.3   132  GLN132      0.0905
     35  CD         0.6220   33.6800   23.6990 C.2   132  GLN132      0.2608
     36  OE1        0.3420   32.5000   23.8980 O.2   132  GLN132     -0.2717
     37  NE2        1.7250   34.0650   23.0710 N.am  132  GLN132     -0.0878
     38  N         -2.6190   34.0810   21.6140 N.am  133  ASN133     -0.1974
     39  CA        -2.8620   34.8540   20.3810 C.3   133  ASN133      0.1688
     40  C         -4.3130   34.9640   19.9230 C.2   133  ASN133      0.2292
     41  O         -4.6650   35.8200   19.1140 O.2   133  ASN133     -0.2864
     42  CB        -2.0290   34.2440   19.2280 C.3   133  ASN133      0.1181
     43  CG        -0.9930   35.1850   18.6420 C.2   133  ASN133      0.2629
     44  OD1       -0.4400   36.0510   19.3320 O.2   133  ASN133     -0.2716
     45  ND2       -0.6420   34.9510   17.3580 N.am  133  ASN133     -0.0877
     46  N          9.3070   33.4600    8.4160 N.3   163  TRP163     -0.1227
     47  CA        10.0160   34.0740    9.5250 C.3   163  TRP163      0.1737
     48  C         11.4970   33.7220    9.4930 C.2   163  TRP163      0.2596
     49  O         12.0030   33.0180    8.5970 O.2   163  TRP163     -0.2718
     50  CB         9.3860   33.5850   10.8380 C.3   163  TRP163      0.0564
     51  CG         8.0780   34.2610   11.2080 C.ar  163  TRP163      0.0003
     52  CD1        7.3720   35.2550   10.5480 C.ar  163  TRP163      0.0946
     53  CD2        7.3500   33.9800   12.3990 C.ar  163  TRP163      0.0152
     54  NE1        6.2390   35.5770   11.2630 N.ar  163  TRP163     -0.2442
     55  CE2        6.1940   34.7870   12.3890 C.ar  163  TRP163      0.0810
     56  CE3        7.5290   33.0580   13.4450 C.ar  163  TRP163      0.0012
     57  CZ2        5.2460   34.7360   13.4230 C.ar  163  TRP163      0.0191
     58  CZ3        6.5920   33.0130   14.4790 C.ar  163  TRP163      0.0001
     59  CH2        5.4510   33.8550   14.4560 C.ar  163  TRP163      0.0015
     60  N         12.2290   34.1890   10.5060 N.am  164  THR164     -0.1939
     61  CA        13.6600   34.0040   10.4820 C.3   164  THR164      0.2028
     62  C         14.1910   33.5750   11.8210 C.2   164  THR164      0.2642
     63  O         13.9440   34.2770   12.8020 O.2   164  THR164     -0.2714
     64  CB        14.3720   35.3410   10.1410 C.3   164  THR164      0.1808
     65  OG1       13.8210   35.8710    8.9390 O.3   164  THR164     -0.2208
     66  CG2       15.8600   35.1000   10.0330 C.3   164  THR164      0.0379
     67  N         14.9090   32.4530   11.8920 N.am  165  ARG165     -0.1963
     68  CA        15.5270   31.9700   13.1270 C.3   165  ARG165      0.1714
     69  C         16.9240   31.5210   12.7440 C.2   165  ARG165      0.2458
     70  O         17.1040   30.6220   11.9220 O.2   165  ARG165     -0.2730
     71  CB        14.8080   30.7600   13.7490 C.3   165  ARG165      0.0347
     72  CG        13.3860   31.0230   14.1630 C.3   165  ARG165      0.0492
     73  CD        13.3140   32.0820   15.2520 C.3   165  ARG165      0.2205
     74  NE        11.9620   32.2810   15.7640 N.pl3 165  ARG165     -0.0865
     75  CZ        11.1150   33.1750   15.2860 C.cat 165  ARG165      0.5346
     76  NH1        9.9170   33.2910   15.8590 N.pl3 165  ARG165      0.1354
     77  NH2       11.4280   33.9480   14.2480 N.pl3 165  ARG165      0.1354
     78  N         17.9600   32.1950   13.2850 N.am  166  PRO166     -0.2727
     79  CA        19.3190   31.8500   12.9020 C.3   166  PRO166      0.1402
     80  C         19.7950   30.6660   13.7440 C.2   166  PRO166      0.2269
     81  O         19.1240   30.3090   14.7160 O.2   166  PRO166     -0.2865
     82  CB        20.1110   33.1300   13.2860 C.3   166  PRO166      0.0296
     83  CG        19.3270   33.6390   14.4990 C.3   166  PRO166      0.0237
     84  CD        17.8840   33.4140   14.1070 C.3   166  PRO166      0.0939
     85  N         21.9150   30.5230   16.0260 N.3   168  GLU168     -0.1231
     86  CA        22.1750   30.8470   17.4340 C.3   168  GLU168      0.1699
     87  C         20.8880   30.7410   18.2680 C.2   168  GLU168      0.2592
     88  O         20.9380   30.4250   19.4580 O.2   168  GLU168     -0.2718
     89  CB        22.7880   32.2550   17.5810 C.3   168  GLU168      0.0402
     90  CG        21.9270   33.3800   17.0350 C.3   168  GLU168      0.1161
     91  CD        22.2560   34.7530   17.6160 C.2   168  GLU168      0.3649
     92  OE1       21.5080   35.7180   17.3140 O.co2 168  GLU168     -0.2457
     93  OE2       23.2570   34.8680   18.3600 O.co2 168  GLU168     -0.2457
     94  N         19.7230   30.9010   17.6270 N.am  169  TYR169     -0.1976
     95  CA        18.4380   30.6760   18.3120 C.3   169  TYR169      0.1639
     96  C         18.3150   29.2380   18.8210 C.2   169  TYR169      0.2290
     97  O         17.9390   28.9830   19.9740 O.2   169  TYR169     -0.2864
     98  CB        17.3030   31.0450   17.3310 C.3   169  TYR169      0.0560
     99  CG        15.9560   30.4970   17.7420 C.ar  169  TYR169     -0.0198
    100  CD1       15.1360   31.1830   18.6270 C.ar  169  TYR169     -0.0009
    101  CD2       15.5310   29.2380   17.3140 C.ar  169  TYR169     -0.0009
    102  CE1       13.9200   30.6770   19.0500 C.ar  169  TYR169      0.0417
    103  CE2       14.3320   28.7190   17.7380 C.ar  169  TYR169      0.0417
    104  CZ        13.5240   29.4340   18.5760 C.ar  169  TYR169      0.1957
    105  OH        12.3330   28.9100   18.9840 O.3   169  TYR169     -0.2866
    106  N         16.3650   22.7070   22.3630 N.3   176  ARG176     -0.1245
    107  CA        15.7540   23.3760   21.2150 C.3   176  ARG176      0.1563
    108  C         16.1880   22.6280   19.9520 C.2   176  ARG176      0.2260
    109  O         17.3260   22.1770   19.8470 O.2   176  ARG176     -0.2867
    110  CB        16.2350   24.8300   21.1210 C.3   176  ARG176      0.0307
    111  CG        15.6210   25.7210   22.2520 C.3   176  ARG176      0.0489
    112  CD        16.2120   27.1150   22.0790 C.3   176  ARG176      0.2205
    113  NE        15.7820   28.0020   23.1800 N.pl3 176  ARG176     -0.0865
    114  CZ        14.5550   28.4880   23.3270 C.cat 176  ARG176      0.5346
    115  NH1       14.3010   29.3130   24.3690 N.pl3 176  ARG176      0.1354
    116  NH2       13.5620   28.1510   22.5060 N.pl3 176  ARG176      0.1354
    117  N          6.7170   24.2830   17.0200 N.3   188  ASN188     -0.1225
    118  CA         7.1740   25.4170   17.8540 C.3   188  ASN188      0.1785
    119  C          6.7730   26.7300   17.1780 C.2   188  ASN188      0.2597
    120  O          5.7320   27.3010   17.5090 O.2   188  ASN188     -0.2718
    121  CB         8.6800   25.3790   18.1160 C.3   188  ASN188      0.1169
    122  CG         9.1160   26.5980   18.9450 C.2   188  ASN188      0.2627
    123  OD1        8.4730   27.6270   18.8590 O.2   188  ASN188     -0.2716
    124  ND2       10.0990   26.4490   19.8100 N.am  188  ASN188     -0.0877
    125  N          7.5080   27.1590   16.1590 N.am  189  GLN189     -0.1979
    126  CA         7.4460   28.5910   15.8010 C.3   189  GLN189      0.1601
    127  C          6.1040   29.0600   15.2910 C.2   189  GLN189      0.2287
    128  O          5.5520   30.0880   15.7230 O.2   189  GLN189     -0.2864
    129  CB         8.5980   28.9940   14.8690 C.3   189  GLN189      0.0394
    130  CG         9.9630   28.9290   15.5630 C.3   189  GLN189      0.0908
    131  CD        10.5640   27.5330   15.5400 C.2   189  GLN189      0.2608
    132  OE1       10.3090   26.7150   14.6380 O.2   189  GLN189     -0.2717
    133  NE2       11.3590   27.2300   16.5370 N.am  189  GLN189     -0.0878
    134  N          3.1320   27.4770   15.7320 N.3   191  SER191     -0.1202
    135  CA         2.0360   26.7510   16.3340 C.3   191  SER191      0.2020
    136  C          0.7710   27.5880   16.5320 C.2   191  SER191      0.2619
    137  O         -0.3110   27.0330   16.4860 O.2   191  SER191     -0.2717
    138  CB         2.4380   26.0310   17.6260 C.3   191  SER191      0.2103
    139  OG         2.9190   27.0180   18.5040 O.3   191  SER191     -0.2182
    140  N          0.9130   28.8880   16.7310 N.am  192  HIS192     -0.1961
    141  CA        -0.2740   29.7460   16.8990 C.3   192  HIS192      0.1787
    142  C         -1.0350   29.9290   15.5890 C.2   192  HIS192      0.2620
    143  O         -2.1520   30.4350   15.5780 O.2   192  HIS192     -0.2715
    144  CB         0.1050   31.1250   17.4990 C.3   192  HIS192      0.0785
    145  CG         0.6420   31.0830   18.9020 C.ar  192  HIS192      0.0821
    146  ND1       -0.1250   30.7110   19.9820 N.ar  192  HIS192     -0.2267
    147  CD2        1.8240   31.4970   19.4180 C.ar  192  HIS192      0.1154
    148  CE1        0.5910   30.7960   21.0920 C.ar  192  HIS192      0.1986
    149  NE2        1.7800   31.2770   20.7770 N.ar  192  HIS192     -0.2212
    150  N         -0.3840   29.6000   14.4660 N.am  193  TYR193     -0.1974
    151  CA        -1.0190   29.6520   13.1580 C.3   193  TYR193      0.1639
    152  C         -1.6220   28.2930   12.8080 C.2   193  TYR193      0.2290
    153  O         -2.7120   28.2410   12.2430 O.2   193  TYR193     -0.2864
    154  CB        -0.0160   30.1100   12.0870 C.3   193  TYR193      0.0560
    155  CG         0.4680   31.5310   12.3030 C.ar  193  TYR193     -0.0198
    156  CD1        0.0060   32.5910   11.5220 C.ar  193  TYR193     -0.0009
    157  CD2        1.4270   31.7970   13.2670 C.ar  193  TYR193     -0.0009
    158  CE1        0.4530   33.8820   11.7470 C.ar  193  TYR193      0.0417
    159  CE2        1.8700   33.1120   13.5100 C.ar  193  TYR193      0.0417
    160  CZ         1.3580   34.1330   12.7390 C.ar  193  TYR193      0.1957
    161  OH         1.7660   35.4490   13.0090 O.3   193  TYR193     -0.2866
    162  N         15.8610   38.7240    5.0620 N.3   246  PRO246     -0.2102
    163  CA        16.8790   38.5410    6.0810 C.3   246  PRO246      0.1504
    164  C         16.2880   38.6440    7.4800 C.2   246  PRO246      0.2576
    165  O         17.0290   38.5080    8.4620 O.2   246  PRO246     -0.2718
    166  CB        17.7550   39.7870    5.8830 C.3   246  PRO246      0.0282
    167  CG        16.7490   40.8140    5.5560 C.3   246  PRO246      0.0208
    168  CD        15.6000   40.1530    4.8080 C.3   246  PRO246      0.0893
    169  N         14.9780   38.8590    7.5650 N.am  247  LYS247     -0.1966
    170  CA        14.2490   38.8990    8.8390 C.3   247  LYS247      0.1728
    171  C         12.7820   38.5070    8.6180 C.2   247  LYS247      0.2616
    172  O         12.3850   38.2640    7.4810 O.2   247  LYS247     -0.2715
    173  CB        14.3290   40.3230    9.4400 C.3   247  LYS247      0.0311
    174  CG        13.6230   41.3670    8.6110 C.3   247  LYS247      0.0038
    175  CD        13.8630   42.7690    9.1990 C.3   247  LYS247      0.0206
    176  CE        13.4140   43.7880    8.1870 C.3   247  LYS247      0.1093
    177  NZ        11.9530   43.8980    8.3520 N.3   247  LYS247     -0.1314
    178  N         11.9830   38.4730    9.6780 N.am  248  ASN248     -0.1972
    179  CA        10.5780   38.0760    9.5660 C.3   248  ASN248      0.1688
    180  C          9.8760   38.8860    8.4920 C.2   248  ASN248      0.2292
    181  O          9.9640   40.1340    8.4510 O.2   248  ASN248     -0.2864
    182  CB         9.8050   38.2430   10.8780 C.3   248  ASN248      0.1181
    183  CG        10.0880   37.1650   11.9100 C.2   248  ASN248      0.2629
    184  OD1       10.9920   36.3310   11.7640 O.2   248  ASN248     -0.2716
    185  ND2        9.2780   37.1600   12.9760 N.am  248  ASN248     -0.0877
    186  N          2.7920   39.3860   11.5150 N.3   268  ALA268     -0.1245
    187  CA         2.1610   38.6130   12.5870 C.3   268  ALA268      0.1562
    188  C          0.6280   38.6980   12.6420 C.2   268  ALA268      0.2260
    189  O          0.0280   39.0550   13.6660 O.2   268  ALA268     -0.2867
    190  CB         2.8030   38.9710   13.9280 C.3   268  ALA268      0.0290
@<TRIPOS>BOND
     1   168   162    1
     2   168   167    1
     3   162   163    1
     4   167   166    1
     5   166   163    1
     6   163   164    1
     7   164   169   am
     8   164   165    2
     9   172   171    2
    10   169   170    1
    11   176   177    1
    12   176   175    1
    13    46    47    1
    14   181   180    2
    15   180   179    1
    16    49    48    2
    17   174   175    1
    18   174   173    1
    19   171   170    1
    20   171   178   am
    21   170   173    1
    22    65    64    1
    23    48    47    1
    24    48    60   am
    25    47    50    1
    26   179   178    1
    27   179   182    1
    28    66    64    1
    29    64    61    1
    30    61    60    1
    31    61    62    1
    32    52    51   ar
    33    52    54   ar
    34    50    51    1
    35   182   183    1
    36    51    53   ar
    37    54    55   ar
    38   186   187    1
    39   156   158   ar
    40   156   155   ar
    41   158   160   ar
    42   184   183    2
    43    62    67   am
    44    62    63    2
    45    67    68    1
    46   183   185   am
    47    70    69    2
    48   154   155    1
    49   154   151    1
    50   153   152    2
    51   155   157   ar
    52    55    53   ar
    53    55    57   ar
    54    53    56   ar
    55   187   188    1
    56   187   190    1
    57   188   189    2
    58   160   161    1
    59   160   159   ar
    60    69    68    1
    61    69    78   am
    62   152   151    1
    63    79    78    1
    64    79    82    1
    65    79    80    1
    66    68    71    1
    67   151   150    1
    68   157   159   ar
    69    78    84    1
    70    82    83    1
    71    57    59   ar
    72    56    58   ar
    73    80    81    2
    74    71    72    1
    75    84    83    1
    76    72    73    1
    77    77    75    1
    78    59    58   ar
    79   150   142   am
    80   132   131    2
    81   129   130    1
    82   129   126    1
    83    73    74    1
    84    75    74    2
    85    75    76    1
    86   127   128    2
    87   127   126    1
    88   131   130    1
    89   131   133   am
    90   143   142    2
    91   142   141    1
    92   134   135    1
    93   126   125    1
    94    85    86    1
    95   125   119   am
    96   135   136    1
    97   135   138    1
    98   137   136    2
    99   136   140   am
   100   140   141    1
   101   141   144    1
   102   117   118    1
   103    90    89    1
   104    90    91    1
   105   119   120    2
   106   119   118    1
   107   101   103   ar
   108   101    99   ar
   109    92    91   ar
   110    98    99    1
   111    98    95    1
   112    45    43   am
   113    86    89    1
   114    86    87    1
   115   144   145    1
   116    91    93   ar
   117   138   139    1
   118    94    87   am
   119    94    95    1
   120   103   104   ar
   121    99   100   ar
   122   118   121    1
   123   121   122    1
   124    87    88    2
   125    95    96    1
   126   104   105    1
   127   104   102   ar
   128   100   102   ar
   129    43    42    1
   130    43    44    2
   131    96    97    2
   132   123   122    2
   133   145   147   ar
   134   145   146   ar
   135   122   124   am
   136    41    40    2
   137    42    39    1
   138   147   149   ar
   139   109   108    2
   140    40    39    1
   141   108   107    1
   142   146   148   ar
   143    28    27    1
   144    39    38    1
   145   149   148   ar
   146    27    26    1
   147   110   107    1
   148   110   111    1
   149   107   106    1
   150    38    31   am
   151    26    25    1
   152   112   111    1
   153   112   113    1
   154   116   114    1
   155    10     9    1
   156    31    32    2
   157    31    30    1
   158    25    24    1
   159    37    35   am
   160   113   114    2
   161    24    21    1
   162   114   115    1
   163    35    36    2
   164    35    34    1
   165    29    30    1
   166     9    11    1
   167     9     8    2
   168    22    23    2
   169    22    21    1
   170    30    33    1
   171    34    33    1
   172    21    20    1
   173     7     8    1
   174     7     6    1
   175     6     5    1
   176    18    16    1
   177     5     2    1
   178    16    17    1
   179    16    13    1
   180    17    19    1
   181    12    13    1
   182    12     3   am
   183    13    14    1
   184     2     3    1
   185     2     1    1
   186     3     4    2
   187    14    15    2
