@<TRIPOS>MOLECULE
tmp/3q2jA00.pdb
 138 128 0 0 0
SMALL
GASTEIGER

@<TRIPOS>ATOM
      1  N         23.5790    7.8980   60.7650 N.3    19  ASP19      -0.1239
      2  CA        24.8090    7.1680   61.0590 C.3    19  ASP19       0.1674
      3  C         24.8410    5.8280   60.3100 C.2    19  ASP19       0.2266
      4  O         23.8220    5.3570   59.8030 O.2    19  ASP19      -0.2867
      5  CB        24.9230    6.9230   62.5630 C.3    19  ASP19       0.1410
      6  CG        26.3140    6.4770   62.9860 C.2    19  ASP19       0.3668
      7  OD1       26.6790    5.3020   62.7240 O.co2  19  ASP19      -0.2456
      8  OD2       27.0270    7.3030   63.6050 O.co2  19  ASP19      -0.2456
      9  N         25.3390    1.1570   65.6250 N.3    23  MET23      -0.1245
     10  CA        24.7300    0.7440   66.8940 C.3    23  MET23       0.1570
     11  C         23.4600   -0.1070   66.7150 C.2    23  MET23       0.2261
     12  O         22.6300   -0.2130   67.6260 O.2    23  MET23      -0.2867
     13  CB        24.4710    1.9620   67.7930 C.3    23  MET23       0.0387
     14  CG        25.7530    2.6120   68.3070 C.3    23  MET23       0.0595
     15  SD        25.5420    4.1530   69.2440 S.3    23  MET23      -0.1393
     16  CE        27.2110    4.3640   69.8830 C.3    23  MET23       0.0692
     17  N         20.7510    5.4410   64.8660 N.3    28  VAL28      -0.1245
     18  CA        21.4690    6.6240   65.3270 C.3    28  VAL28       0.1561
     19  C         21.5210    7.6990   64.2370 C.2    28  VAL28       0.2260
     20  O         21.8650    7.4250   63.0970 O.2    28  VAL28      -0.2867
     21  CB        22.9110    6.2660   65.7630 C.3    28  VAL28       0.0252
     22  CG1       23.6830    7.5280   66.1530 C.3    28  VAL28       0.0019
     23  CG2       22.8880    5.2740   66.9190 C.3    28  VAL28       0.0019
     24  N         23.2040   13.9180   68.9310 N.3    39  TYR39      -0.1241
     25  CA        22.8940   12.5780   68.4540 C.3    39  TYR39       0.1605
     26  C         21.5260   12.1300   68.9400 C.2    39  TYR39       0.2264
     27  O         21.1880   12.2580   70.1190 O.2    39  TYR39      -0.2867
     28  CB        23.9850   11.5920   68.8610 C.3    39  TYR39       0.0534
     29  CG        25.2990   11.9090   68.1980 C.ar   39  TYR39      -0.0201
     30  CD1       26.1490   12.8740   68.7290 C.ar   39  TYR39      -0.0009
     31  CD2       25.6830   11.2640   67.0260 C.ar   39  TYR39      -0.0009
     32  CE1       27.3540   13.1800   68.1180 C.ar   39  TYR39       0.0417
     33  CE2       26.8880   11.5610   66.4040 C.ar   39  TYR39       0.0417
     34  CZ        27.7150   12.5190   66.9550 C.ar   39  TYR39       0.1957
     35  OH        28.9090   12.8160   66.3510 O.3    39  TYR39      -0.2866
     36  N         19.2150    8.8060   69.1740 N.3    41  LYS41      -0.1245
     37  CA        19.3560    7.3530   69.1960 C.3    41  LYS41       0.1561
     38  C         17.9910    6.7480   69.5220 C.2    41  LYS41       0.2260
     39  O         17.3430    7.1520   70.4830 O.2    41  LYS41      -0.2867
     40  CB        20.3960    6.9460   70.2360 C.3    41  LYS41       0.0271
     41  CG        20.7270    5.4670   70.2370 C.3    41  LYS41       0.0035
     42  CD        21.9750    5.2110   71.0610 C.3    41  LYS41       0.0206
     43  CE        22.2130    3.7230   71.2240 C.3    41  LYS41       0.1093
     44  NZ        23.4930    3.4780   71.9120 N.3    41  LYS41      -0.1314
     45  N         19.6370    3.1150   78.5610 N.3    57  GLU57      -0.1245
     46  CA        20.8100    3.9440   78.3950 C.3    57  GLU57       0.1567
     47  C         20.6130    5.3560   78.9800 C.2    57  GLU57       0.2260
     48  O         21.5300    5.9110   79.5850 O.2    57  GLU57      -0.2867
     49  CB        21.1780    4.0220   76.9180 C.3    57  GLU57       0.0388
     50  CG        22.4640    4.7750   76.6660 C.3    57  GLU57       0.1160
     51  CD        22.9500    4.6210   75.2350 C.2    57  GLU57       0.3649
     52  OE1       22.1830    4.1210   74.3940 O.co2  57  GLU57      -0.2457
     53  OE2       24.0980    4.9940   74.9540 O.co2  57  GLU57      -0.2457
     54  N         27.7710   11.8860   77.7410 N.3    71  PRO71      -0.2116
     55  CA        26.9880   12.9490   77.1180 C.3    71  PRO71       0.1372
     56  C         25.7870   13.3210   77.9770 C.2    71  PRO71       0.2244
     57  O         25.3250   12.5410   78.8310 O.2    71  PRO71      -0.2868
     58  CB        26.5470   12.3410   75.7830 C.3    71  PRO71       0.0268
     59  CG        26.7960   10.8970   75.8820 C.3    71  PRO71       0.0207
     60  CD        27.8560   10.6780   76.9050 C.3    71  PRO71       0.0892
     61  N         20.8330   13.3960   72.7170 N.3    87  MET87      -0.1230
     62  CA        21.9290   13.6710   73.6410 C.3    87  MET87       0.1702
     63  C         23.0150   14.5490   73.0210 C.2    87  MET87       0.2593
     64  O         23.1250   14.6540   71.8000 O.2    87  MET87      -0.2718
     65  CB        22.5420   12.3540   74.1460 C.3    87  MET87       0.0401
     66  CG        23.5590   11.7100   73.2070 C.3    87  MET87       0.0596
     67  SD        23.9470    9.9710   73.5870 S.3    87  MET87      -0.1393
     68  CE        22.6610    9.1620   72.6420 C.3    87  MET87       0.0692
     69  N         23.8310   15.1600   73.8640 N.am   88  SER88      -0.1938
     70  CA        24.9380   15.9640   73.3650 C.3    88  SER88       0.2055
     71  C         26.0360   15.0470   72.8180 C.2    88  SER88       0.2643
     72  O         25.9990   13.8310   73.0150 O.2    88  SER88      -0.2714
     73  CB        25.4940   16.8600   74.4740 C.3    88  SER88       0.2130
     74  OG        26.0170   16.0940   75.5440 O.3    88  SER88      -0.2179
     75  N         27.0030   15.6340   72.1200 N.am   89  GLU89      -0.1963
     76  CA        28.1440   14.8920   71.6140 C.3    89  GLU89       0.1733
     77  C         29.1650   14.7170   72.7360 C.2    89  GLU89       0.2616
     78  O         29.3960   15.6320   73.5200 O.2    89  GLU89      -0.2715
     79  CB        28.7700   15.6400   70.4360 C.3    89  GLU89       0.0429
     80  CG        29.8550   14.8680   69.7030 C.3    89  GLU89       0.1163
     81  CD        30.3220   15.5970   68.4490 C.2    89  GLU89       0.3649
     82  OE1       30.7280   16.7700   68.5630 O.co2  89  GLU89      -0.2457
     83  OE2       30.2740   15.0050   67.3480 O.co2  89  GLU89      -0.2457
     84  N         29.7630   13.5360   72.8300 N.am   90  ALA90      -0.1977
     85  CA        30.8240   13.3040   73.8050 C.3    90  ALA90       0.1597
     86  C         31.9640   14.3200   73.6230 C.2    90  ALA90       0.2287
     87  O         32.1880   14.7990   72.5200 O.2    90  ALA90      -0.2864
     88  CB        31.3610   11.8900   73.6460 C.3    90  ALA90       0.0319
     89  N         37.2980   10.2010   69.7050 N.3    94  LEU94      -0.1245
     90  CA        37.0150    8.7740   69.7430 C.3    94  LEU94       0.1561
     91  C         38.3070    7.9610   69.7220 C.2    94  LEU94       0.2260
     92  O         39.1740    8.1890   68.8840 O.2    94  LEU94      -0.2867
     93  CB        36.1500    8.3940   68.5400 C.3    94  LEU94       0.0270
     94  CG        35.5280    7.0000   68.4770 C.3    94  LEU94       0.0019
     95  CD1       34.5730    6.7780   69.6460 C.3    94  LEU94       0.0001
     96  CD2       34.8000    6.8300   67.1510 C.3    94  LEU94       0.0001
     97  N         39.7970    6.4880   66.5710 N.3    97  GLU97      -0.1245
     98  CA        40.3830    7.5350   65.7330 C.3    97  GLU97       0.1567
     99  C         41.7180    8.0420   66.2730 C.2    97  GLU97       0.2260
    100  O         42.6710    8.2200   65.5120 O.2    97  GLU97      -0.2867
    101  CB        39.4160    8.7110   65.5720 C.3    97  GLU97       0.0388
    102  CG        38.2080    8.3910   64.7130 C.3    97  GLU97       0.1160
    103  CD        37.1530    9.4730   64.7660 C.2    97  GLU97       0.3649
    104  OE1       37.4570   10.5810   65.2640 O.co2  97  GLU97      -0.2457
    105  OE2       36.0190    9.2100   64.3120 O.co2  97  GLU97      -0.2457
    106  N         35.5010    1.9980   70.3290 N.3   191  SER191     -0.1217
    107  CA        34.5060    2.7540   69.5730 C.3   191  SER191      0.1889
    108  C         33.5150    3.4540   70.5020 C.2   191  SER191      0.2288
    109  O         32.5690    4.1000   70.0540 O.2   191  SER191     -0.2866
    110  CB        33.7460    1.8310   68.6360 C.3   191  SER191      0.2089
    111  OG        32.8330    1.0320   69.3840 O.3   191  SER191     -0.2183
    112  N         36.1970    7.8800   74.7780 N.3   194  PHE194     -0.1241
    113  CA        36.7200    9.1400   74.2490 C.3   194  PHE194      0.1605
    114  C         37.8990    9.6160   75.0820 C.2   194  PHE194      0.2264
    115  O         37.8680    9.5380   76.3090 O.2   194  PHE194     -0.2867
    116  CB        35.6260   10.2120   74.2440 C.3   194  PHE194      0.0534
    117  CG        34.6390   10.0420   73.1410 C.ar  194  PHE194     -0.0203
    118  CD1       33.6480    9.0790   73.2270 C.ar  194  PHE194     -0.0042
    119  CD2       34.7060   10.8400   72.0040 C.ar  194  PHE194     -0.0042
    120  CE1       32.7320    8.9080   72.1910 C.ar  194  PHE194     -0.0003
    121  CE2       33.7930   10.6740   70.9690 C.ar  194  PHE194     -0.0003
    122  CZ        32.8130    9.7030   71.0630 C.ar  194  PHE194     -0.0000
    123  N         30.2450    6.4450   75.6070 N.3   204  ILE204     -0.1231
    124  CA        28.9040    6.3890   75.0220 C.3   204  ILE204      0.1692
    125  C         28.4790    4.9320   74.9660 C.2   204  ILE204      0.2592
    126  O         29.2030    4.0800   75.4580 O.2   204  ILE204     -0.2718
    127  CB        28.8620    7.0000   73.6240 C.3   204  ILE204      0.0266
    128  CG1       29.8630    6.3010   72.7040 C.3   204  ILE204      0.0019
    129  CG2       29.1420    8.5100   73.7030 C.3   204  ILE204      0.0020
    130  CD1       29.7150    6.6720   71.2320 C.3   204  ILE204      0.0001
    131  N         27.3150    4.6430   74.3850 N.am  205  ASP205     -0.1974
    132  CA        26.8740    3.2590   74.2260 C.3   205  ASP205      0.1709
    133  C         26.7180    2.6000   75.6020 C.2   205  ASP205      0.2293
    134  O         27.3860    1.6180   75.9000 O.2   205  ASP205     -0.2864
    135  CB        27.9090    2.5130   73.3810 C.3   205  ASP205      0.1436
    136  CG        27.3940    1.1910   72.8180 C.2   205  ASP205      0.3671
    137  OD1       26.1590    0.9770   72.7280 O.co2 205  ASP205     -0.2456
    138  OD2       28.2540    0.3720   72.4340 O.co2 205  ASP205     -0.2456
@<TRIPOS>BOND
     1     4     3    2
     2     3     2    1
     3     1     2    1
     4     2     5    1
     5     5     6    1
     6     7     6   ar
     7     6     8   ar
     8    20    19    2
     9    19    18    1
    10   105   103   ar
    11   102   103    1
    12   102   101    1
    13   103   104   ar
    14    17    18    1
    15    18    21    1
    16   100    99    2
    17   101    98    1
    18     9    10    1
    19    98    99    1
    20    98    97    1
    21    21    22    1
    22    21    23    1
    23    35    34    1
    24    33    34   ar
    25    33    31   ar
    26    11    10    1
    27    11    12    2
    28    10    13    1
    29    34    32   ar
    30    31    29   ar
    31    96    94    1
    32    83    81   ar
    33    13    14    1
    34    32    30   ar
    35    29    30   ar
    36    29    28    1
    37    14    15    1
    38    81    82   ar
    39    81    80    1
    40    25    28    1
    41    25    24    1
    42    25    26    1
    43    94    93    1
    44    94    95    1
    45    93    90    1
    46   110   111    1
    47   110   107    1
    48    92    91    2
    49    26    27    2
    50    36    37    1
    51    37    38    1
    52    37    40    1
    53    15    16    1
    54    38    39    2
    55   107   106    1
    56   107   108    1
    57    80    79    1
    58    89    90    1
    59    91    90    1
    60   109   108    2
    61    40    41    1
    62    41    42    1
    63    79    76    1
    64   121   122   ar
    65   121   119   ar
    66    42    43    1
    67   122   120   ar
    68    43    44    1
    69   130   128    1
    70    76    75    1
    71    76    77    1
    72    64    63    2
    73   119   117   ar
    74    75    71   am
    75   120   118   ar
    76   138   136   ar
    77    87    86    2
    78    68    67    1
    79   128   127    1
    80    61    62    1
    81   137   136   ar
    82    77    84   am
    83    77    78    2
    84   136   135    1
    85    71    72    2
    86    71    70    1
    87    84    85    1
    88    63    62    1
    89    63    69   am
    90   117   118   ar
    91   117   116    1
    92    66    67    1
    93    66    65    1
    94    70    69    1
    95    70    73    1
    96   135   132    1
    97    86    85    1
    98   127   129    1
    99   127   124    1
   100    62    65    1
   101    88    85    1
   102   132   131    1
   103   132   133    1
   104   116   113    1
   105   113   112    1
   106   113   114    1
   107   131   125   am
   108    52    51   ar
   109    73    74    1
   110    53    51   ar
   111   125   124    1
   112   125   126    2
   113   124   123    1
   114   114   115    2
   115    51    50    1
   116   133   134    2
   117    58    59    1
   118    58    55    1
   119    59    60    1
   120    50    49    1
   121    60    54    1
   122    49    46    1
   123    55    54    1
   124    55    56    1
   125    56    57    2
   126    46    45    1
   127    46    47    1
   128    47    48    2
