@<TRIPOS>MOLECULE
tmp/3q2kC01.pdb
 186 184 0 0 0
SMALL
GASTEIGER

@<TRIPOS>ATOM
      1  N         54.4070   31.4070    2.8330 N.3    17  ARG17      -0.1231
      2  CA        55.0270   31.8710    4.0630 C.3    17  ARG17       0.1694
      3  C         56.2270   31.1200    4.6310 C.2    17  ARG17       0.2591
      4  O         57.1490   31.7990    5.0710 O.2    17  ARG17      -0.2718
      5  CB        53.9340   32.0530    5.1160 C.3    17  ARG17       0.0321
      6  CG        54.4660   32.7000    6.3750 C.3    17  ARG17       0.0489
      7  CD        53.3470   33.4050    7.1250 C.3    17  ARG17       0.2205
      8  NE        53.9700   34.1760    8.1970 N.pl3  17  ARG17      -0.0865
      9  CZ        54.4950   33.6320    9.2910 C.cat  17  ARG17       0.5346
     10  NH1       54.4140   32.3200    9.4830 N.pl3  17  ARG17       0.1354
     11  NH2       55.0680   34.3920   10.2130 N.pl3  17  ARG17       0.1354
     12  N         56.2710   29.7870    4.6560 N.am   18  ILE18      -0.1980
     13  CA        57.4400   29.1130    5.2570 C.3    18  ILE18       0.1595
     14  C         58.5320   28.8590    4.2170 C.2    18  ILE18       0.2287
     15  O         59.6120   28.3710    4.5500 O.2    18  ILE18      -0.2864
     16  CB        57.0950   27.7590    5.9420 C.3    18  ILE18       0.0276
     17  CG1       58.2160   27.2070    6.8300 C.3    18  ILE18       0.0022
     18  CG2       56.7310   26.6810    4.9340 C.3    18  ILE18       0.0022
     19  CD1       58.5220   28.1150    8.0150 C.3    18  ILE18       0.0001
     20  N         55.4880   19.4800    8.0220 N.3   100  LYS100     -0.1245
     21  CA        54.5270   18.9630    8.9930 C.3   100  LYS100      0.1561
     22  C         53.1630   19.6030    8.7580 C.2   100  LYS100      0.2260
     23  O         53.0760   20.6890    8.1910 O.2   100  LYS100     -0.2867
     24  CB        55.0210   19.0620   10.4420 C.3   100  LYS100      0.0271
     25  CG        55.4060   20.4490   10.9430 C.3   100  LYS100      0.0035
     26  CD        54.3850   21.4990   10.5260 C.3   100  LYS100      0.0206
     27  CE        53.3550   21.8880   11.5810 C.3   100  LYS100      0.1093
     28  NZ        52.5950   23.0740   11.0700 N.3   100  LYS100     -0.1314
     29  N         61.4250   20.1170   13.1040 N.3   128  GLN128     -0.1231
     30  CA        62.6900   20.7520   13.4510 C.3   128  GLN128      0.1698
     31  C         62.9530   20.7890   14.9450 C.2   128  GLN128      0.2592
     32  O         64.1200   20.7780   15.3360 O.2   128  GLN128     -0.2718
     33  CB        62.9470   22.1010   12.7660 C.3   128  GLN128      0.0381
     34  CG        62.0960   23.2710   13.2590 C.3   128  GLN128      0.0905
     35  CD        60.7810   23.3510   12.5150 C.2   128  GLN128      0.2608
     36  OE1       60.2490   22.3350   12.0580 O.2   128  GLN128     -0.2717
     37  NE2       60.2790   24.5680   12.3390 N.am  128  GLN128     -0.0878
     38  N         61.9100   20.8000   15.7690 N.am  129  ASN129     -0.1974
     39  CA        62.1620   21.0390   17.1860 C.3   129  ASN129      0.1688
     40  C         62.9430   19.8630   17.7480 C.2   129  ASN129      0.2292
     41  O         63.5610   19.9650   18.8060 O.2   129  ASN129     -0.2864
     42  CB        60.8680   21.1760   18.0000 C.3   129  ASN129      0.1181
     43  CG        60.1610   22.5010   17.7710 C.2   129  ASN129      0.2629
     44  OD1       60.5230   23.2980   16.9050 O.2   129  ASN129     -0.2716
     45  ND2       59.0850   22.7130   18.5120 N.am  129  ASN129     -0.0877
     46  N         49.1660   29.6250   22.6640 N.3   159  TRP159     -0.1227
     47  CA        49.7330   30.4860   21.6400 C.3   159  TRP159      0.1737
     48  C         48.6240   31.4280   21.1910 C.2   159  TRP159      0.2596
     49  O         47.5350   31.3630   21.7630 O.2   159  TRP159     -0.2718
     50  CB        50.2910   29.6310   20.4960 C.3   159  TRP159      0.0564
     51  CG        51.6740   29.0780   20.7210 C.ar  159  TRP159      0.0003
     52  CD1       52.4150   29.1500   21.8660 C.ar  159  TRP159      0.0946
     53  CD2       52.4570   28.3170   19.7900 C.ar  159  TRP159      0.0152
     54  NE1       53.6380   28.5280   21.6980 N.ar  159  TRP159     -0.2442
     55  CE2       53.6680   27.9920   20.4350 C.ar  159  TRP159      0.0810
     56  CE3       52.2560   27.9000   18.4700 C.ar  159  TRP159      0.0012
     57  CZ2       54.6770   27.2690   19.8010 C.ar  159  TRP159      0.0191
     58  CZ3       53.2770   27.1940   17.8330 C.ar  159  TRP159      0.0001
     59  CH2       54.4570   26.8730   18.5100 C.ar  159  TRP159      0.0015
     60  N         48.9250   32.2920   20.2230 N.am  160  THR160     -0.1939
     61  CA        48.0200   33.3250   19.7110 C.3   160  THR160      0.2028
     62  C         47.8350   33.3540   18.1950 C.2   160  THR160      0.2642
     63  O         48.7630   33.5210   17.4000 O.2   160  THR160     -0.2714
     64  CB        48.4140   34.7310   20.1990 C.3   160  THR160      0.1808
     65  OG1       48.6500   34.6800   21.6120 O.3   160  THR160     -0.2208
     66  CG2       47.3240   35.7570   19.8680 C.3   160  THR160      0.0379
     67  N         46.5940   33.1760   17.7630 N.am  161  ARG161     -0.1963
     68  CA        46.3810   33.2620   16.3280 C.3   161  ARG161      0.1714
     69  C         45.0620   34.0220   16.1880 C.2   161  ARG161      0.2458
     70  O         44.0070   33.5100   16.5580 O.2   161  ARG161     -0.2730
     71  CB        46.3440   31.8990   15.6240 C.3   161  ARG161      0.0347
     72  CG        47.5880   31.0470   15.8010 C.3   161  ARG161      0.0492
     73  CD        48.6470   31.5500   14.8460 C.3   161  ARG161      0.2205
     74  NE        49.7380   30.6100   14.6460 N.pl3 161  ARG161     -0.0865
     75  CZ        50.8040   30.5650   15.4320 C.cat 161  ARG161      0.5346
     76  NH1       51.8120   29.7340   15.1950 N.pl3 161  ARG161      0.1354
     77  NH2       50.7890   31.3750   16.4740 N.pl3 161  ARG161      0.1354
     78  N         45.1280   35.2600   15.6720 N.am  162  PRO162     -0.2727
     79  CA        43.9680   36.1260   15.5080 C.3   162  PRO162      0.1402
     80  C         43.1820   35.7760   14.2490 C.2   162  PRO162      0.2269
     81  O         43.6350   35.0040   13.4040 O.2   162  PRO162     -0.2865
     82  CB        44.6000   37.5100   15.3980 C.3   162  PRO162      0.0296
     83  CG        45.9550   37.2690   14.8260 C.3   162  PRO162      0.0237
     84  CD        46.3380   35.8390   15.0630 C.3   162  PRO162      0.0939
     85  N         44.9410   36.0160   10.8660 N.3   165  TYR165     -0.1241
     86  CA        45.7810   34.8850   10.4790 C.3   165  TYR165      0.1605
     87  C         45.0860   33.8610    9.5950 C.2   165  TYR165      0.2264
     88  O         45.6200   33.3970    8.5840 O.2   165  TYR165     -0.2867
     89  CB        46.2960   34.1560   11.7240 C.3   165  TYR165      0.0534
     90  CG        46.9340   32.8020   11.4740 C.ar  165  TYR165     -0.0201
     91  CD1       48.2310   32.6930   10.9740 C.ar  165  TYR165     -0.0009
     92  CD2       46.3000   31.6130   11.8200 C.ar  165  TYR165     -0.0009
     93  CE1       48.8410   31.4580   10.7730 C.ar  165  TYR165      0.0417
     94  CE2       46.9190   30.3740   11.6160 C.ar  165  TYR165      0.0417
     95  CZ        48.1980   30.2800   11.0950 C.ar  165  TYR165      0.1957
     96  OH        48.8250   29.0650   10.8650 O.3   165  TYR165     -0.2866
     97  N         43.2580   27.5500    5.5920 N.3   172  ARG172     -0.1245
     98  CA        43.7140   27.5320    6.9810 C.3   172  ARG172      0.1563
     99  C         42.5080   27.2190    7.8610 C.2   172  ARG172      0.2260
    100  O         41.4390   27.7310    7.5520 O.2   172  ARG172     -0.2867
    101  CB        44.2980   28.9040    7.3300 C.3   172  ARG172      0.0307
    102  CG        45.7680   29.0440    6.9560 C.3   172  ARG172      0.0489
    103  CD        46.2770   30.3950    7.4450 C.3   172  ARG172      0.2205
    104  NE        47.5320   30.8320    6.8420 N.pl3 172  ARG172     -0.0865
    105  CZ        48.6840   30.1930    7.0180 C.cat 172  ARG172      0.5346
    106  NH1       49.7910   30.6570    6.4590 N.pl3 172  ARG172      0.1354
    107  NH2       48.7370   29.0900    7.7550 N.pl3 172  ARG172      0.1354
    108  N         47.8570   21.5820   13.1560 N.3   184  ASN184     -0.1225
    109  CA        48.7780   22.5600   12.5940 C.3   184  ASN184      0.1785
    110  C         49.8350   22.9700   13.6200 C.2   184  ASN184      0.2597
    111  O         50.9410   22.4320   13.5910 O.2   184  ASN184     -0.2718
    112  CB        48.0350   23.7460   11.9700 C.3   184  ASN184      0.1169
    113  CG        48.9760   24.6660   11.2520 C.2   184  ASN184      0.2627
    114  OD1       50.0790   24.8400   11.7640 O.2   184  ASN184     -0.2716
    115  ND2       48.5920   25.1870   10.0880 N.am  184  ASN184     -0.0877
    116  N         49.5010   23.8180   14.5880 N.am  185  GLN185     -0.1979
    117  CA        50.5280   24.4220   15.4440 C.3   185  GLN185      0.1601
    118  C         51.1390   23.5370   16.5200 C.2   185  GLN185      0.2287
    119  O         52.3310   23.6640   16.7970 O.2   185  GLN185     -0.2864
    120  CB        50.0290   25.6900   16.1530 C.3   185  GLN185      0.0394
    121  CG        49.8280   26.8640   15.2240 C.3   185  GLN185      0.0908
    122  CD        48.4610   26.8530   14.5700 C.2   185  GLN185      0.2608
    123  OE1       47.5930   26.0610   14.9330 O.2   185  GLN185     -0.2717
    124  NE2       48.2460   27.7700   13.6360 N.am  185  GLN185     -0.0878
    125  N         54.1320   19.7270   16.4730 N.3   188  HIS188     -0.1226
    126  CA        55.4940   19.6380   16.9950 C.3   188  HIS188      0.1752
    127  C         55.4420   19.1760   18.4400 C.2   188  HIS188      0.2596
    128  O         56.4170   18.6270   18.9580 O.2   188  HIS188     -0.2718
    129  CB        56.2150   20.9940   16.9960 C.3   188  HIS188      0.0759
    130  CG        56.1430   21.7250   15.6900 C.ar  188  HIS188      0.0818
    131  ND1       57.0520   21.5170   14.6750 N.ar  188  HIS188     -0.2268
    132  CD2       55.2510   22.6290   15.2140 C.ar  188  HIS188      0.1154
    133  CE1       56.7430   22.2860   13.6450 C.ar  188  HIS188      0.1986
    134  NE2       55.6600   22.9800   13.9500 N.ar  188  HIS188     -0.2212
    135  N         54.3420   19.5020   19.1120 N.am  189  TYR189     -0.1976
    136  CA        54.2530   19.1950   20.5330 C.3   189  TYR189      0.1639
    137  C         53.6040   17.8360   20.7510 C.2   189  TYR189      0.2290
    138  O         54.0280   17.0840   21.6210 O.2   189  TYR189     -0.2864
    139  CB        53.5410   20.3100   21.3000 C.3   189  TYR189      0.0560
    140  CG        54.4040   21.5410   21.2140 C.ar  189  TYR189     -0.0198
    141  CD1       55.2360   21.9010   22.2630 C.ar  189  TYR189     -0.0009
    142  CD2       54.4420   22.2890   20.0440 C.ar  189  TYR189     -0.0009
    143  CE1       56.0570   23.0010   22.1440 C.ar  189  TYR189      0.0417
    144  CE2       55.2820   23.3780   19.9130 C.ar  189  TYR189      0.0417
    145  CZ        56.1000   23.7150   20.9680 C.ar  189  TYR189      0.1957
    146  OH        56.9110   24.8260   20.8690 O.3   189  TYR189     -0.2866
    147  N         47.6640   38.2440   25.2690 N.3   242  PRO242     -0.2102
    148  CA        47.4240   38.9400   24.0060 C.3   242  PRO242      0.1504
    149  C         48.4020   38.4630   22.9450 C.2   242  PRO242      0.2576
    150  O         48.3480   38.9490   21.8200 O.2   242  PRO242     -0.2718
    151  CB        47.8770   40.3620   24.3370 C.3   242  PRO242      0.0282
    152  CG        49.0220   40.1480   25.2910 C.3   242  PRO242      0.0208
    153  CD        48.8780   38.7760   25.9110 C.3   242  PRO242      0.0893
    154  N         49.2920   37.5450   23.3110 N.am  243  GLN243     -0.1966
    155  CA        50.2310   36.9280   22.3750 C.3   243  GLN243      0.1733
    156  C         50.8120   35.6330   22.9620 C.2   243  GLN243      0.2616
    157  O         50.6100   35.3330   24.1370 O.2   243  GLN243     -0.2715
    158  CB        51.3960   37.9030   22.1790 C.3   243  GLN243      0.0408
    159  CG        52.1990   37.8900   23.4630 C.3   243  GLN243      0.0908
    160  CD        53.1690   39.0450   23.5890 C.2   243  GLN243      0.2608
    161  OE1       54.1900   38.9230   24.2610 O.2   243  GLN243     -0.2717
    162  NE2       52.8560   40.1700   22.9590 N.am  243  GLN243     -0.0878
    163  N         51.5920   34.8560   22.2150 N.am  244  ASN244     -0.1972
    164  CA        52.1030   33.5910   22.7420 C.3   244  ASN244      0.1688
    165  C         52.5740   33.6420   24.1940 C.2   244  ASN244      0.2292
    166  O         53.3430   34.5290   24.5460 O.2   244  ASN244     -0.2864
    167  CB        53.2290   33.0660   21.8480 C.3   244  ASN244      0.1181
    168  CG        52.7010   32.6150   20.5070 C.2   244  ASN244      0.2629
    169  OD1       51.5150   32.7950   20.2150 O.2   244  ASN244     -0.2716
    170  ND2       53.5800   32.0580   19.6820 N.am  244  ASN244     -0.0877
    171  N         65.2920   30.1030   17.4690 N.3   294  TYR294     -0.1227
    172  CA        63.8490   30.3130   17.5110 C.3   294  TYR294      0.1736
    173  C         63.3260   30.9370   16.2160 C.2   294  TYR294      0.2596
    174  O         63.7240   32.0320   15.8140 O.2   294  TYR294     -0.2718
    175  CB        63.4870   31.1860   18.7160 C.3   294  TYR294      0.0548
    176  CG        61.9990   31.4450   18.7820 C.ar  294  TYR294     -0.0200
    177  CD1       61.1690   30.6730   19.5840 C.ar  294  TYR294     -0.0009
    178  CD2       61.4130   32.4310   17.9970 C.ar  294  TYR294     -0.0009
    179  CE1       59.8030   30.8970   19.6170 C.ar  294  TYR294      0.0417
    180  CE2       60.0500   32.6620   18.0230 C.ar  294  TYR294      0.0417
    181  CZ        59.2500   31.8910   18.8390 C.ar  294  TYR294      0.1957
    182  OH        57.8920   32.1150   18.8650 O.3   294  TYR294     -0.2866
    183  N         62.4240   30.2300   15.5420 N.am  295  GLY295     -0.1957
    184  CA        61.8770   30.7220   14.2820 C.3   295  GLY295      0.1869
    185  C         62.6590   30.3590   13.0370 C.2   295  GLY295      0.2309
    186  O         62.1130   30.4250   11.9360 O.2   295  GLY295     -0.2863
@<TRIPOS>BOND
     1     1     2    1
     2     2     3    1
     3     2     5    1
     4    14    15    2
     5    14    13    1
     6     3    12   am
     7     3     4    2
     8    12    13    1
     9    18    16    1
    10     5     6    1
    11    13    16    1
    12    97    98    1
    13    16    17    1
    14     6     7    1
    15   106   105    1
    16    17    19    1
    17   104   105    2
    18   104   103    1
    19   102   101    1
    20   102   103    1
    21    98   101    1
    22    98    99    1
    23   105   107    1
    24     7     8    1
    25   100    99    2
    26    20    21    1
    27    23    22    2
    28     8     9    2
    29    88    87    2
    30    22    21    1
    31    21    24    1
    32     9    10    1
    33     9    11    1
    34    87    86    1
    35   115   113   am
    36    24    25    1
    37    86    85    1
    38    86    89    1
    39    26    25    1
    40    26    27    1
    41    93    91   ar
    42    93    95   ar
    43    96    95    1
    44    91    90   ar
    45    28    27    1
    46    95    94   ar
    47   113   114    2
    48   113   112    1
    49    90    89    1
    50    90    92   ar
    51    94    92   ar
    52   186   185    2
    53   112   109    1
    54    36    35    2
    55    37    35   am
    56    35    34    1
    57   109   108    1
    58   109   110    1
    59    33    34    1
    60    33    30    1
    61   185   184    1
    62    29    30    1
    63    81    80    2
    64    30    31    1
    65   111   110    2
    66   110   116   am
    67   124   122   am
    68   133   134   ar
    69   133   131   ar
    70   134   132   ar
    71    80    79    1
    72   184   183    1
    73   122   123    2
    74   122   121    1
    75   116   117    1
    76    74    73    1
    77    74    75    2
    78   131   130   ar
    79    83    84    1
    80    83    82    1
    81    73    72    1
    82    31    32    2
    83    31    38   am
    84    84    78    1
    85    76    75    1
    86   132   130   ar
    87   121   120    1
    88    82    79    1
    89    75    77    1
    90   117   120    1
    91   117   118    1
    92    79    78    1
    93   183   173   am
    94    71    72    1
    95    71    68    1
    96    78    69   am
    97   130   129    1
    98    38    39    1
    99   174   173    2
   100    69    68    1
   101    69    70    2
   102   173   172    1
   103    68    67    1
   104   125   126    1
   105   118   119    2
   106    44    43    2
   107   126   129    1
   108   126   127    1
   109    39    40    1
   110    39    42    1
   111    63    62    2
   112   171   172    1
   113   172   175    1
   114    40    41    2
   115    67    62   am
   116    43    42    1
   117    43    45   am
   118    58    56   ar
   119    58    59   ar
   120   178   180   ar
   121   178   176   ar
   122   180   181   ar
   123    62    61    1
   124   127   128    2
   125   127   135   am
   126    56    53   ar
   127    59    57   ar
   128   175   176    1
   129   176   177   ar
   130   181   182    1
   131   181   179   ar
   132   135   136    1
   133   177   179   ar
   134   170   168   am
   135    61    64    1
   136    61    60    1
   137    53    55   ar
   138    53    51   ar
   139    57    55   ar
   140    66    64    1
   141   144   142   ar
   142   144   145   ar
   143   142   140   ar
   144    64    65    1
   145   169   168    2
   146    60    48   am
   147    55    54   ar
   148    50    51    1
   149    50    47    1
   150   168   167    1
   151   136   137    1
   152   136   139    1
   153    51    52   ar
   154   137   138    2
   155   146   145    1
   156   145   143   ar
   157    48    47    1
   158    48    49    2
   159   140   139    1
   160   140   141   ar
   161    47    46    1
   162    54    52   ar
   163   150   149    2
   164   167   164    1
   165   143   141   ar
   166   158   155    1
   167   158   159    1
   168   163   164    1
   169   163   156   am
   170   155   156    1
   171   155   154    1
   172   164   165    1
   173   149   154   am
   174   149   148    1
   175   162   160   am
   176   156   157    2
   177   159   160    1
   178   160   161    2
   179   148   151    1
   180   148   147    1
   181   165   166    2
   182   151   152    1
   183   147   153    1
   184   152   153    1
