@<TRIPOS>MOLECULE
tmp/3q2mA00.pdb
 137 135 0 0 0
SMALL
GASTEIGER

@<TRIPOS>ATOM
      1  N         -1.5870   32.3910   43.4770 N.3    27  ILE27      -0.1245
      2  CA        -0.2690   31.9170   43.0590 C.3    27  ILE27       0.1561
      3  C          0.6520   33.1040   42.7860 C.2    27  ILE27       0.2260
      4  O          0.2590   34.0680   42.1170 O.2    27  ILE27      -0.2867
      5  CB        -0.3730   31.0640   41.7860 C.3    27  ILE27       0.0252
      6  CG1       -1.2580   29.8500   42.0570 C.3    27  ILE27       0.0019
      7  CG2        1.0060   30.6210   41.3460 C.3    27  ILE27       0.0019
      8  CD1       -1.8010   29.1950   40.8130 C.3    27  ILE27       0.0001
      9  N          3.3980   33.4590   37.5810 N.3    30  GLY30      -0.1210
     10  CA         3.0390   32.6270   36.4430 C.3    30  GLY30       0.1956
     11  C          3.5800   33.2890   35.1850 C.2    30  GLY30       0.2611
     12  O          4.7360   33.0820   34.8060 O.2    30  GLY30      -0.2717
     13  N          2.7340   34.0970   34.5460 N.am   31  ALA31      -0.1979
     14  CA         3.0820   34.8430   33.3340 C.3    31  ALA31       0.1597
     15  C          2.5510   36.2740   33.5080 C.2    31  ALA31       0.2287
     16  O          1.4170   36.5830   33.1140 O.2    31  ALA31      -0.2864
     17  CB         2.4530   34.1890   32.1030 C.3    31  ALA31       0.0319
     18  N         -8.1290   27.2380   36.7730 N.3    48  PHE48      -0.1241
     19  CA        -7.0280   28.1880   36.7890 C.3    48  PHE48       0.1605
     20  C         -7.6700   29.5110   36.4520 C.2    48  PHE48       0.2264
     21  O         -8.1790   29.7090   35.3490 O.2    48  PHE48      -0.2867
     22  CB        -5.9800   27.8200   35.7520 C.3    48  PHE48       0.0534
     23  CG        -4.8100   28.7680   35.6950 C.ar   48  PHE48      -0.0203
     24  CD1       -4.7550   29.7750   34.7280 C.ar   48  PHE48      -0.0042
     25  CD2       -3.7320   28.6180   36.5620 C.ar   48  PHE48      -0.0042
     26  CE1       -3.6440   30.6090   34.6170 C.ar   48  PHE48      -0.0003
     27  CE2       -2.6110   29.4520   36.4570 C.ar   48  PHE48      -0.0003
     28  CZ        -2.5700   30.4480   35.4810 C.ar   48  PHE48      -0.0000
     29  N         -7.5380   33.6420   36.0750 N.3    50  LYS50      -0.1245
     30  CA        -6.5970   34.6900   35.7360 C.3    50  LYS50       0.1561
     31  C         -7.3190   36.0410   35.7550 C.2    50  LYS50       0.2260
     32  O         -8.4290   36.1640   35.2280 O.2    50  LYS50      -0.2867
     33  CB        -6.0190   34.3770   34.3490 C.3    50  LYS50       0.0271
     34  CG        -4.9030   35.2760   33.8680 C.3    50  LYS50       0.0035
     35  CD        -4.5690   34.9850   32.4030 C.3    50  LYS50       0.0206
     36  CE        -4.1590   33.5230   32.1890 C.3    50  LYS50       0.1093
     37  NZ        -3.7470   33.2270   30.7740 N.3    50  LYS50      -0.1314
     38  N         -5.2090   25.0740   25.7970 N.3    76  ILE76      -0.1245
     39  CA        -6.1160   25.1710   26.9260 C.3    76  ILE76       0.1561
     40  C         -7.2750   26.1280   26.6180 C.2    76  ILE76       0.2260
     41  O         -7.0870   27.3420   26.6040 O.2    76  ILE76      -0.2867
     42  CB        -5.3730   25.6750   28.1580 C.3    76  ILE76       0.0252
     43  CG1       -4.1640   24.7780   28.4220 C.3    76  ILE76       0.0019
     44  CG2       -6.3230   25.7220   29.3480 C.3    76  ILE76       0.0019
     45  CD1       -3.3050   25.2250   29.5740 C.3    76  ILE76       0.0001
     46  N         -9.7650   28.9520   33.3890 N.3    98  TYR98      -0.1228
     47  CA        -9.3230   27.8400   32.5680 C.3    98  TYR98       0.1721
     48  C         -9.3830   26.6030   33.4220 C.2    98  TYR98       0.2437
     49  O         -9.3030   26.6830   34.6520 O.2    98  TYR98      -0.2733
     50  CB        -7.8660   28.0020   32.1410 C.3    98  TYR98       0.0547
     51  CG        -7.5730   29.1310   31.1930 C.ar   98  TYR98      -0.0200
     52  CD1       -7.5400   30.4540   31.6330 C.ar   98  TYR98      -0.0009
     53  CD2       -7.2920   28.8750   29.8480 C.ar   98  TYR98      -0.0009
     54  CE1       -7.2280   31.4990   30.7500 C.ar   98  TYR98       0.0417
     55  CE2       -6.9820   29.9070   28.9610 C.ar   98  TYR98       0.0417
     56  CZ        -6.9520   31.2120   29.4180 C.ar   98  TYR98       0.1957
     57  OH        -6.6510   32.2190   28.5360 O.3    98  TYR98      -0.2866
     58  N         -9.5490   25.4350   32.7890 N.am   99  PRO99      -0.2718
     59  CA        -9.5790   24.2440   33.6310 C.3    99  PRO99       0.1535
     60  C         -8.1270   24.0830   34.0890 C.2    99  PRO99       0.2599
     61  O         -7.1970   24.1740   33.2820 O.2    99  PRO99      -0.2715
     62  CB       -10.0520   23.1530   32.6710 C.3    99  PRO99       0.0310
     63  CG        -9.6040   23.6380   31.3370 C.3    99  PRO99       0.0237
     64  CD        -9.8830   25.1120   31.3940 C.3    99  PRO99       0.0939
     65  N         -7.9360   23.8940   35.3870 N.am  100  PHE100     -0.1960
     66  CA        -6.6010   23.7510   35.9500 C.3   100  PHE100      0.1771
     67  C         -5.8120   22.5440   35.4300 C.2   100  PHE100      0.2619
     68  O         -6.3460   21.4400   35.2910 O.2   100  PHE100     -0.2715
     69  CB        -6.6850   23.6640   37.4730 C.3   100  PHE100      0.0574
     70  CG        -5.3710   23.8660   38.1500 C.ar  100  PHE100     -0.0200
     71  CD1       -4.9640   25.1370   38.5320 C.ar  100  PHE100     -0.0042
     72  CD2       -4.5020   22.7930   38.3470 C.ar  100  PHE100     -0.0042
     73  CE1       -3.7060   25.3410   39.1000 C.ar  100  PHE100     -0.0003
     74  CE2       -3.2430   22.9840   38.9110 C.ar  100  PHE100     -0.0003
     75  CZ        -2.8460   24.2600   39.2870 C.ar  100  PHE100     -0.0000
     76  N         -4.5290   22.7610   35.1620 N.am  101  ILE101     -0.1963
     77  CA        -3.6540   21.7060   34.6700 C.3   101  ILE101      0.1727
     78  C         -2.3820   21.5970   35.5080 C.2   101  ILE101      0.2616
     79  O         -1.6040   22.5460   35.5750 O.2   101  ILE101     -0.2715
     80  CB        -3.1980   21.9750   33.2120 C.3   101  ILE101      0.0290
     81  CG1       -4.4100   22.1400   32.2910 C.3   101  ILE101      0.0022
     82  CG2       -2.2580   20.8660   32.7510 C.3   101  ILE101      0.0023
     83  CD1       -5.3440   20.9770   32.2880 C.3   101  ILE101      0.0001
     84  N         -2.1800   20.4540   36.1570 N.am  102  HIS102     -0.1959
     85  CA        -0.9560   20.2260   36.9290 C.3   102  HIS102      0.1787
     86  C         -0.0780   19.6040   35.8750 C.2   102  HIS102      0.2620
     87  O         -0.4320   18.5600   35.3160 O.2   102  HIS102     -0.2715
     88  CB        -1.1510   19.1780   38.0160 C.3   102  HIS102      0.0785
     89  CG        -2.2680   19.4800   38.9530 C.ar  102  HIS102      0.0821
     90  ND1       -2.0610   20.0100   40.2070 N.ar  102  HIS102     -0.2267
     91  CD2       -3.6060   19.3290   38.8200 C.ar  102  HIS102      0.1154
     92  CE1       -3.2260   20.1690   40.8090 C.ar  102  HIS102      0.1986
     93  NE2       -4.1790   19.7640   39.9880 N.ar  102  HIS102     -0.2212
     94  N          1.0490   20.2280   35.5830 N.am  103  ALA103     -0.1964
     95  CA         1.9360   19.6820   34.5730 C.3   103  ALA103      0.1713
     96  C          3.1670   20.5320   34.5140 C.2   103  ALA103      0.2458
     97  O          3.1190   21.6730   34.0700 O.2   103  ALA103     -0.2730
     98  CB         1.2550   19.6660   33.2040 C.3   103  ALA103      0.0333
     99  N          4.2940   19.9830   34.9550 N.am  104  PRO104     -0.2716
    100  CA         5.5320   20.7540   34.9220 C.3   104  PRO104      0.1536
    101  C          5.6880   21.3410   33.5330 C.2   104  PRO104      0.2598
    102  O          5.3100   20.6970   32.5420 O.2   104  PRO104     -0.2715
    103  CB         6.5930   19.6960   35.1980 C.3   104  PRO104      0.0310
    104  CG         5.9930   18.4830   34.5340 C.3   104  PRO104      0.0237
    105  CD         4.5800   18.5450   35.0470 C.3   104  PRO104      0.0939
    106  N          6.2130   22.5580   33.4450 N.am  105  ASN105     -0.1973
    107  CA         6.4210   23.1280   32.1240 C.3   105  ASN105      0.1688
    108  C          7.6800   22.4940   31.5430 C.2   105  ASN105      0.2292
    109  O          8.2490   21.5650   32.1160 O.2   105  ASN105     -0.2864
    110  CB         6.5580   24.6440   32.1770 C.3   105  ASN105      0.1181
    111  CG         7.6700   25.0860   33.0680 C.2   105  ASN105      0.2629
    112  OD1        8.8090   24.6350   32.9350 O.2   105  ASN105     -0.2716
    113  ND2        7.3550   25.9800   33.9870 N.am  105  ASN105     -0.0877
    114  N          3.4440   22.7680   28.3450 N.3   217  LEU217     -0.1245
    115  CA         3.1500   22.0680   29.5810 C.3   217  LEU217      0.1561
    116  C          3.2240   20.6100   29.1820 C.2   217  LEU217      0.2260
    117  O          2.4530   20.1520   28.3390 O.2   217  LEU217     -0.2867
    118  CB         1.7550   22.4290   30.0980 C.3   217  LEU217      0.0270
    119  CG         1.5950   23.8810   30.5560 C.3   217  LEU217      0.0019
    120  CD1        0.3700   23.9990   31.4560 C.3   217  LEU217      0.0001
    121  CD2        2.8420   24.3200   31.3110 C.3   217  LEU217      0.0001
    122  N          0.7310   26.9250   25.9740 N.3   227  ILE227     -0.1231
    123  CA         0.1030   28.0630   26.6160 C.3   227  ILE227      0.1692
    124  C          0.6920   29.4230   26.2110 C.2   227  ILE227      0.2592
    125  O          1.6500   29.5180   25.4280 O.2   227  ILE227     -0.2718
    126  CB         0.2190   27.9270   28.1330 C.3   227  ILE227      0.0266
    127  CG1        1.6740   28.1090   28.5570 C.3   227  ILE227      0.0019
    128  CG2       -0.2520   26.5500   28.5640 C.3   227  ILE227      0.0020
    129  CD1        1.8820   27.9980   30.0370 C.3   227  ILE227      0.0001
    130  N          0.1050   30.4680   26.7850 N.am  228  ASP228     -0.1974
    131  CA         0.4960   31.8500   26.5540 C.3   228  ASP228      0.1709
    132  C          0.3140   32.3090   25.1330 C.2   228  ASP228      0.2293
    133  O          1.2300   32.2490   24.3170 O.2   228  ASP228     -0.2864
    134  CB         1.9420   32.1180   26.9640 C.3   228  ASP228      0.1436
    135  CG         2.2480   33.6140   27.0520 C.2   228  ASP228      0.3671
    136  OD1        2.1850   34.3030   26.0040 O.co2 228  ASP228     -0.2456
    137  OD2        2.5290   34.1020   28.1760 O.co2 228  ASP228     -0.2456
@<TRIPOS>BOND
     1   133   132    2
     2   132   131    1
     3   125   124    2
     4    38    39    1
     5   122   123    1
     6   136   135   ar
     7   124   123    1
     8   124   130   am
     9   131   130    1
    10   131   134    1
    11    41    40    2
    12   123   126    1
    13    40    39    1
    14    39    42    1
    15   134   135    1
    16   135   137   ar
    17   126   127    1
    18   126   128    1
    19    42    43    1
    20    42    44    1
    21   117   116    2
    22   114   115    1
    23    43    45    1
    24    57    56    1
    25   127   129    1
    26    55    56   ar
    27    55    53   ar
    28   116   115    1
    29    56    54   ar
    30   115   118    1
    31    53    51   ar
    32   118   119    1
    33   119   121    1
    34   119   120    1
    35    54    52   ar
    36    37    36    1
    37    51    52   ar
    38    51    50    1
    39    63    64    1
    40    63    62    1
    41    64    58    1
    42   108   109    2
    43   108   107    1
    44    17    14    1
    45   107   110    1
    46   107   106    1
    47    50    47    1
    48   110   111    1
    49    36    35    1
    50    83    81    1
    51    81    80    1
    52    35    34    1
    53   102   101    2
    54    47    46    1
    55    47    48    1
    56    62    59    1
    57    82    80    1
    58    58    48   am
    59    58    59    1
    60   112   111    2
    61   111   113   am
    62    16    15    2
    63    98    95    1
    64    80    77    1
    65    61    60    2
    66    14    15    1
    67    14    13    1
    68    48    49    2
    69   106   101   am
    70   101   100    1
    71    59    60    1
    72    34    33    1
    73    97    96    2
    74    60    65   am
    75    33    30    1
    76    96    95    1
    77    96    99   am
    78   104   105    1
    79   104   103    1
    80    13    11   am
    81    95    94    1
    82    26    24   ar
    83    26    28   ar
    84    77    76    1
    85    77    78    1
    86    24    23   ar
    87    12    11    2
    88   100    99    1
    89   100   103    1
    90    99   105    1
    91    76    67   am
    92    11    10    1
    93    32    31    2
    94    68    67    2
    95    87    86    2
    96    21    20    2
    97    65    66    1
    98    67    66    1
    99    28    27   ar
   100    78    79    2
   101    78    84   am
   102    94    86   am
   103    23    22    1
   104    23    25   ar
   105    30    31    1
   106    30    29    1
   107    22    19    1
   108    86    85    1
   109    66    69    1
   110    84    85    1
   111    10     9    1
   112    20    19    1
   113    27    25   ar
   114    18    19    1
   115    85    88    1
   116    69    70    1
   117    88    89    1
   118    70    72   ar
   119    70    71   ar
   120    72    74   ar
   121    71    73   ar
   122    91    89   ar
   123    91    93   ar
   124    74    75   ar
   125    89    90   ar
   126    73    75   ar
   127    93    92   ar
   128    90    92   ar
   129     8     6    1
   130     7     5    1
   131     5     6    1
   132     5     2    1
   133     4     3    2
   134     3     2    1
   135     2     1    1
