@<TRIPOS>MOLECULE
tmp/3q2qA00.pdb
 122 112 0 0 0
SMALL
GASTEIGER

@<TRIPOS>ATOM
      1  N         37.5660  -26.3720   -2.7800 N.3    43  ARG43      -0.1245
      2  CA        36.7870  -26.7450   -1.6270 C.3    43  ARG43       0.1563
      3  C         35.4040  -26.1540   -1.7330 C.2    43  ARG43       0.2260
      4  O         34.5180  -26.4860   -0.9640 O.2    43  ARG43      -0.2867
      5  CB        37.5000  -26.3190   -0.3440 C.3    43  ARG43       0.0307
      6  CG        37.5630  -27.3870    0.7180 C.3    43  ARG43       0.0489
      7  CD        38.5590  -28.4780    0.3720 C.3    43  ARG43       0.2205
      8  NE        38.5510  -29.5570    1.3560 N.pl3  43  ARG43      -0.0865
      9  CZ        38.0640  -29.4410    2.5890 C.cat  43  ARG43       0.5346
     10  NH1       37.5050  -28.3080    2.9790 N.pl3  43  ARG43       0.1354
     11  NH2       38.1100  -30.4640    3.4290 N.pl3  43  ARG43       0.1354
     12  N         41.1290  -16.4260    7.7040 N.3    50  ARG50      -0.1245
     13  CA        42.5650  -16.1280    7.8490 C.3    50  ARG50       0.1563
     14  C         43.0010  -14.8780    7.0670 C.2    50  ARG50       0.2260
     15  O         43.7000  -14.0060    7.6110 O.2    50  ARG50      -0.2867
     16  CB        43.4230  -17.3580    7.5150 C.3    50  ARG50       0.0307
     17  CG        43.2720  -18.4820    8.5470 C.3    50  ARG50       0.0489
     18  CD        43.7420  -19.8320    8.0070 C.3    50  ARG50       0.2205
     19  NE        43.4360  -20.8990    8.9590 N.pl3  50  ARG50      -0.0865
     20  CZ        42.2340  -21.4430    9.0810 C.cat  50  ARG50       0.5346
     21  NH1       41.2560  -21.0210    8.2970 N.pl3  50  ARG50       0.1354
     22  NH2       42.0170  -22.4210    9.9510 N.pl3  50  ARG50       0.1354
     23  N         46.7960  -22.5520    3.8710 N.3    80  HIS80      -0.1241
     24  CA        45.6490  -23.1960    4.4870 C.3    80  HIS80       0.1621
     25  C         45.0160  -24.2420    3.5690 C.2    80  HIS80       0.2264
     26  O         44.7280  -25.3660    4.0060 O.2    80  HIS80      -0.2867
     27  CB        44.6180  -22.1240    4.9200 C.3    80  HIS80       0.0745
     28  CG        43.2950  -22.6800    5.3480 C.ar   80  HIS80       0.0817
     29  ND1       43.1670  -23.5930    6.3760 N.ar   80  HIS80      -0.2268
     30  CD2       42.0400  -22.4450    4.8910 C.ar   80  HIS80       0.1154
     31  CE1       41.8910  -23.9000    6.5320 C.ar   80  HIS80       0.1986
     32  NE2       41.1860  -23.2190    5.6420 N.ar   80  HIS80      -0.2212
     33  N         47.2240  -27.4970    3.0280 N.3    83  THR83      -0.1203
     34  CA        47.1860  -28.4000    4.1890 C.3    83  THR83       0.1994
     35  C         45.8860  -29.1860    4.2840 C.2    83  THR83       0.2617
     36  O         45.8900  -30.3670    4.6270 O.2    83  THR83      -0.2717
     37  CB        47.4410  -27.6500    5.5240 C.3    83  THR83       0.1784
     38  OG1       46.3670  -26.7380    5.7980 O.3    83  THR83      -0.2211
     39  CG2       48.7420  -26.9120    5.4690 C.3    83  THR83       0.0376
     40  N         44.7740  -28.5410    3.9630 N.am   84  LEU84      -0.1979
     41  CA        43.5150  -29.2610    3.8310 C.3    84  LEU84       0.1596
     42  C         43.6210  -30.3930    2.8190 C.2    84  LEU84       0.2287
     43  O         43.1170  -31.4850    3.0540 O.2    84  LEU84      -0.2864
     44  CB        42.3660  -28.3210    3.4200 C.3    84  LEU84       0.0297
     45  CG        41.7760  -27.4310    4.5140 C.3    84  LEU84       0.0022
     46  CD1       40.6580  -26.5620    3.9310 C.3    84  LEU84       0.0001
     47  CD2       41.2570  -28.2420    5.7000 C.3    84  LEU84       0.0001
     48  N         45.7300  -32.9570    4.4840 N.3    87  ASP87      -0.1225
     49  CA        44.9650  -33.5020    5.5950 C.3    87  ASP87       0.1805
     50  C         43.8390  -34.4280    5.1260 C.2    87  ASP87       0.2597
     51  O         43.5990  -35.4660    5.7360 O.2    87  ASP87      -0.2718
     52  CB        44.3750  -32.3920    6.4510 C.3    87  ASP87       0.1424
     53  CG        43.5170  -32.9310    7.5680 C.2    87  ASP87       0.3668
     54  OD1       44.0790  -33.2540    8.6330 O.co2  87  ASP87      -0.2456
     55  OD2       42.2850  -33.0470    7.3710 O.co2  87  ASP87      -0.2456
     56  N         43.1450  -34.0450    4.0570 N.am   88  ASP88      -0.1974
     57  CA        42.0340  -34.8470    3.5400 C.3    88  ASP88       0.1709
     58  C         42.4920  -36.2250    3.0830 C.2    88  ASP88       0.2293
     59  O         41.8300  -37.2240    3.3590 O.2    88  ASP88      -0.2864
     60  CB        41.3020  -34.1280    2.4030 C.3    88  ASP88       0.1436
     61  CG        40.4850  -32.9390    2.8910 C.2    88  ASP88       0.3671
     62  OD1       40.4040  -32.7260    4.1230 O.co2  88  ASP88      -0.2456
     63  OD2       39.9240  -32.2110    2.0400 O.co2  88  ASP88      -0.2456
     64  N         42.8740  -38.2540    6.2270 N.3    91  ASP91      -0.1239
     65  CA        41.6180  -38.6080    6.8660 C.3    91  ASP91       0.1674
     66  C         41.1020  -39.9060    6.2510 C.2    91  ASP91       0.2266
     67  O         40.2520  -40.5840    6.8280 O.2    91  ASP91      -0.2867
     68  CB        40.5830  -37.4930    6.6970 C.3    91  ASP91       0.1410
     69  CG        40.7710  -36.3690    7.6950 C.2    91  ASP91       0.3668
     70  OD1       41.6920  -36.4620    8.5350 O.co2  91  ASP91      -0.2456
     71  OD2       39.9960  -35.3910    7.6390 O.co2  91  ASP91      -0.2456
     72  N         52.9310  -26.3340   11.4350 N.3   137  LEU137     -0.1245
     73  CA        51.6680  -26.8750   10.9590 C.3   137  LEU137      0.1561
     74  C         51.8290  -28.3430   10.6260 C.2   137  LEU137      0.2260
     75  O         50.9920  -29.1630   11.0000 O.2   137  LEU137     -0.2867
     76  CB        51.2410  -26.1060    9.7060 C.3   137  LEU137      0.0270
     77  CG        49.7950  -25.7140    9.4840 C.3   137  LEU137      0.0019
     78  CD1       49.7530  -24.7270    8.3100 C.3   137  LEU137      0.0001
     79  CD2       48.9970  -26.9740    9.1890 C.3   137  LEU137      0.0001
     80  N         50.1160  -31.8560   12.3750 N.3   141  GLN141     -0.1245
     81  CA        49.5110  -32.9800   11.6640 C.3   141  GLN141      0.1566
     82  C         50.2330  -34.2940   12.0150 C.2   141  GLN141      0.2260
     83  O         49.5900  -35.3050   12.2370 O.2   141  GLN141     -0.2867
     84  CB        49.5240  -32.7500   10.1450 C.3   141  GLN141      0.0367
     85  CG        48.6360  -31.5890    9.6640 C.3   141  GLN141      0.0905
     86  CD        48.9480  -31.1750    8.2260 C.2   141  GLN141      0.2608
     87  OE1       50.0390  -30.6820    7.9320 O.2   141  GLN141     -0.2717
     88  NE2       47.9910  -31.3680    7.3280 N.am  141  GLN141     -0.0878
     89  N         49.3360  -35.2950   15.6740 N.3   144  GLU144     -0.1245
     90  CA        48.0040  -35.8790   15.7390 C.3   144  GLU144      0.1567
     91  C         48.0120  -37.3160   15.2040 C.2   144  GLU144      0.2260
     92  O         47.3490  -38.1970   15.7490 O.2   144  GLU144     -0.2867
     93  CB        47.0280  -35.0380   14.9260 C.3   144  GLU144      0.0388
     94  CG        45.5810  -35.4760   15.0730 C.3   144  GLU144      0.1160
     95  CD        44.6640  -34.6330   14.2190 C.2   144  GLU144      0.3649
     96  OE1       45.0520  -34.3120   13.0730 O.co2 144  GLU144     -0.2457
     97  OE2       43.5660  -34.2810   14.6930 O.co2 144  GLU144     -0.2457
     98  N         48.5310  -27.2670   14.6420 N.3   164  LYS164     -0.1231
     99  CA        47.7080  -27.5040   13.4630 C.3   164  LYS164      0.1693
    100  C         46.8670  -26.3010   13.1060 C.2   164  LYS164      0.2592
    101  O         46.5540  -26.0940   11.9380 O.2   164  LYS164     -0.2718
    102  CB        46.7200  -28.6560   13.6930 C.3   164  LYS164      0.0285
    103  CG        47.1610  -30.0070   13.2100 C.3   164  LYS164      0.0035
    104  CD        45.9970  -30.9950   13.2540 C.3   164  LYS164      0.0206
    105  CE        45.1540  -30.9350   11.9860 C.3   164  LYS164      0.1093
    106  NZ        44.1530  -32.0480   11.9350 N.3   164  LYS164     -0.1314
    107  N         46.4610  -25.5380   14.1150 N.am  165  THR165     -0.1953
    108  CA        45.4870  -24.4610   13.9050 C.3   165  THR165      0.1897
    109  C         45.9900  -23.0780   14.2930 C.2   165  THR165      0.2313
    110  O         45.8640  -22.1230   13.5220 O.2   165  THR165     -0.2863
    111  CB        44.1900  -24.7650   14.6820 C.3   165  THR165      0.1794
    112  OG1       43.6280  -25.9850   14.1730 O.3   165  THR165     -0.2208
    113  CG2       43.1760  -23.6410   14.5300 C.3   165  THR165      0.0378
    114  N         38.9680  -23.5210   18.4010 N.3   202  GLN202     -0.1245
    115  CA        38.9410  -24.9910   18.3610 C.3   202  GLN202      0.1566
    116  C         38.3200  -25.5900   19.6280 C.2   202  GLN202      0.2260
    117  O         37.6020  -26.6050   19.5660 O.2   202  GLN202     -0.2867
    118  CB        40.3590  -25.5400   18.2250 C.3   202  GLN202      0.0367
    119  CG        40.3540  -27.0630   18.0780 C.3   202  GLN202      0.0905
    120  CD        39.6110  -27.4900   16.8210 C.2   202  GLN202      0.2608
    121  OE1       40.0400  -27.1810   15.7140 O.2   202  GLN202     -0.2717
    122  NE2       38.4800  -28.1740   16.9880 N.am  202  GLN202     -0.0878
@<TRIPOS>BOND
     1     1     2    1
     2     3     2    1
     3     3     4    2
     4     2     5    1
     5     5     6    1
     6     7     6    1
     7     7     8    1
     8     8     9    2
     9    63    61   ar
    10    60    61    1
    11    60    57    1
    12     9    10    1
    13     9    11    1
    14    42    43    2
    15    42    41    1
    16    61    62   ar
    17    33    34    1
    18    58    59    2
    19    58    57    1
    20    44    41    1
    21    44    45    1
    22    57    56    1
    23    25    26    2
    24    25    24    1
    25    41    40    1
    26    23    24    1
    27    46    45    1
    28    40    35   am
    29    56    50   am
    30    34    35    1
    31    34    37    1
    32    35    36    2
    33    48    49    1
    34    24    27    1
    35    45    47    1
    36    30    28   ar
    37    30    32   ar
    38    27    28    1
    39    50    49    1
    40    50    51    2
    41    28    29   ar
    42    39    37    1
    43    37    38    1
    44    49    52    1
    45    32    31   ar
    46    64    65    1
    47    66    67    2
    48    66    65    1
    49    29    31   ar
    50    52    53    1
    51    68    65    1
    52    68    69    1
    53    14    15    2
    54    14    13    1
    55    88    86   am
    56    55    53   ar
    57    16    13    1
    58    16    17    1
    59    53    54   ar
    60    71    69   ar
    61    69    70   ar
    62    12    13    1
    63    87    86    2
    64    18    17    1
    65    18    19    1
    66    86    85    1
    67    21    20    1
    68    78    77    1
    69    19    20    2
    70    20    22    1
    71    79    77    1
    72    77    76    1
    73    85    84    1
    74    76    73    1
    75    84    81    1
    76    74    73    1
    77    74    75    2
    78    73    72    1
    79    81    82    1
    80    81    80    1
    81   106   105    1
    82   101   100    2
    83   105   104    1
    84    82    83    2
    85    96    95   ar
    86   100    99    1
    87   100   107   am
    88   103   104    1
    89   103   102    1
    90    99   102    1
    91    99    98    1
    92   110   109    2
    93   108   107    1
    94   108   109    1
    95   108   111    1
    96   112   111    1
    97    95    97   ar
    98    95    94    1
    99   113   111    1
   100    93    94    1
   101    93    90    1
   102    91    90    1
   103    91    92    2
   104    89    90    1
   105   121   120    2
   106   120   122   am
   107   120   119    1
   108   119   118    1
   109   118   115    1
   110   115   114    1
   111   115   116    1
   112   117   116    2
