@<TRIPOS>MOLECULE
tmp/3q2wA02.pdb
 95 94 0 0 0
SMALL
GASTEIGER

@<TRIPOS>ATOM
      1  N          3.5990  138.7130  123.6960 N.3   488  THR488     -0.1203
      2  CA         4.7290  138.2570  124.5100 C.3   488  THR488      0.1994
      3  C          5.8160  137.5140  123.7310 C.2   488  THR488      0.2617
      4  O          6.9840  137.5430  124.1210 O.2   488  THR488     -0.2717
      5  CB         4.2650  137.3680  125.6970 C.3   488  THR488      0.1784
      6  OG1        3.6920  136.1540  125.2000 O.3   488  THR488     -0.2211
      7  CG2        3.2370  138.0940  126.5560 C.3   488  THR488      0.0376
      8  N          5.4380  136.8610  122.6350 N.am  489  ILE489     -0.1979
      9  CA         6.3580  135.9560  121.9410 C.3   489  ILE489      0.1595
     10  C          7.4310  136.6720  121.1240 C.2   489  ILE489      0.2287
     11  O          8.6050  136.3030  121.1880 O.2   489  ILE489     -0.2864
     12  CB         5.6290  134.8690  121.0970 C.3   489  ILE489      0.0276
     13  CG1        4.8480  135.4890  119.9380 C.3   489  ILE489      0.0022
     14  CG2        4.7300  134.0050  121.9910 C.3   489  ILE489      0.0022
     15  CD1        4.2790  134.4750  118.9840 C.3   489  ILE489      0.0001
     16  N          8.3210  139.5500  121.7650 N.3   491  ARG491     -0.1231
     17  CA         9.0340  140.2630  122.8230 C.3   491  ARG491      0.1694
     18  C         10.0660  139.3550  123.4930 C.2   491  ARG491      0.2592
     19  O         11.0690  139.8330  124.0240 O.2   491  ARG491     -0.2718
     20  CB         8.0380  140.8000  123.8510 C.3   491  ARG491      0.0321
     21  CG         8.6590  141.6130  124.9840 C.3   491  ARG491      0.0489
     22  CD         7.5970  142.0610  125.9780 C.3   491  ARG491      0.2205
     23  NE         6.9860  140.9250  126.6670 N.pl3 491  ARG491     -0.0865
     24  CZ         5.8260  140.9730  127.3170 C.cat 491  ARG491      0.5346
     25  NH1        5.1310  142.1020  127.3660 N.pl3 491  ARG491      0.1354
     26  NH2        5.3540  139.8860  127.9110 N.pl3 491  ARG491      0.1354
     27  N          9.8120  138.0490  123.4630 N.am  492  ASN492     -0.1960
     28  CA        10.7350  137.0610  124.0160 C.3   492  ASN492      0.1819
     29  C         11.7770  136.5460  123.0210 C.2   492  ASN492      0.2621
     30  O         12.8950  136.2170  123.4130 O.2   492  ASN492     -0.2715
     31  CB         9.9510  135.8850  124.6170 C.3   492  ASN492      0.1195
     32  CG         9.4020  136.1860  126.0080 C.2   492  ASN492      0.2630
     33  OD1       10.0520  136.8640  126.8070 O.2   492  ASN492     -0.2716
     34  ND2        8.1870  135.6940  126.2970 N.am  492  ASN492     -0.0877
     35  N         11.4120  136.4880  121.7400 N.am  493  TRP493     -0.1974
     36  CA        12.2510  135.8460  120.7210 C.3   493  TRP493      0.1640
     37  C         12.4780  136.7220  119.4880 C.2   493  TRP493      0.2290
     38  O         11.8790  137.7890  119.3590 O.2   493  TRP493     -0.2864
     39  CB        11.6340  134.5090  120.2940 C.3   493  TRP493      0.0576
     40  CG        11.2550  133.6090  121.4370 C.ar  493  TRP493      0.0006
     41  CD1       10.0750  133.6100  122.1230 C.ar  493  TRP493      0.0946
     42  CD2       12.0570  132.5760  122.0220 C.ar  493  TRP493      0.0152
     43  NE1       10.0930  132.6480  123.1040 N.ar  493  TRP493     -0.2442
     44  CE2       11.2970  131.9960  123.0620 C.ar  493  TRP493      0.0810
     45  CE3       13.3450  132.0840  121.7690 C.ar  493  TRP493      0.0012
     46  CZ2       11.7810  130.9480  123.8500 C.ar  493  TRP493      0.0191
     47  CZ3       13.8250  131.0420  122.5530 C.ar  493  TRP493      0.0001
     48  CH2       13.0430  130.4860  123.5810 C.ar  493  TRP493      0.0015
     49  N         15.5690  138.1840  125.6900 N.3   509  ILE509     -0.1245
     50  CA        15.5050  138.5340  127.1090 C.3   509  ILE509      0.1561
     51  C         16.8400  138.1740  127.7640 C.2   509  ILE509      0.2260
     52  O         17.6010  137.3560  127.2320 O.2   509  ILE509     -0.2867
     53  CB        14.3340  137.8340  127.8500 C.3   509  ILE509      0.0252
     54  CG1       14.5020  136.3040  127.8580 C.3   509  ILE509      0.0019
     55  CG2       12.9950  138.2670  127.2700 C.3   509  ILE509      0.0019
     56  CD1       13.8610  135.6080  129.0530 C.3   509  ILE509      0.0001
     57  N         17.1320  136.9500  131.0790 N.3   511  PHE511     -0.1241
     58  CA        16.8970  135.7540  131.8990 C.3   511  PHE511      0.1605
     59  C         17.0930  134.4440  131.1300 C.2   511  PHE511      0.2264
     60  O         16.9440  134.3910  129.9080 O.2   511  PHE511     -0.2867
     61  CB        15.5020  135.8030  132.5190 C.3   511  PHE511      0.0534
     62  CG        15.2690  136.9160  133.5550 C.ar  511  PHE511     -0.0203
     63  CD1       16.3410  137.4720  134.2210 C.ar  511  PHE511     -0.0042
     64  CD2       13.9590  137.3000  133.8340 C.ar  511  PHE511     -0.0042
     65  CE1       16.0730  138.4310  135.1770 C.ar  511  PHE511     -0.0003
     66  CE2       13.7080  138.2540  134.7910 C.ar  511  PHE511     -0.0003
     67  CZ        14.7860  138.8120  135.4590 C.ar  511  PHE511     -0.0000
     68  N          8.2770  125.8670  126.7620 N.3   516  TYR516     -0.1227
     69  CA         7.9320  127.1070  126.0710 C.3   516  TYR516      0.1736
     70  C          7.5180  126.7800  124.6370 C.2   516  TYR516      0.2595
     71  O          8.3620  126.4150  123.8150 O.2   516  TYR516     -0.2718
     72  CB         9.1310  128.0670  126.0460 C.3   516  TYR516      0.0548
     73  CG         9.5910  128.5950  127.3940 C.ar  516  TYR516     -0.0200
     74  CD1       10.4030  127.8250  128.2310 C.ar  516  TYR516     -0.0009
     75  CD2        9.2430  129.8780  127.8150 C.ar  516  TYR516     -0.0009
     76  CE1       10.8350  128.3120  129.4610 C.ar  516  TYR516      0.0417
     77  CE2        9.6720  130.3740  129.0430 C.ar  516  TYR516      0.0417
     78  CZ        10.4660  129.5870  129.8590 C.ar  516  TYR516      0.1957
     79  OH        10.8920  130.0740  131.0740 O.3   516  TYR516     -0.2866
     80  N          6.2280  126.8950  124.3330 N.am  517  GLU517     -0.1965
     81  CA         5.7650  126.6490  122.9650 C.3   517  GLU517      0.1733
     82  C          5.8240  127.9200  122.1100 C.2   517  GLU517      0.2616
     83  O          5.1540  128.9140  122.4040 O.2   517  GLU517     -0.2715
     84  CB         4.3810  125.9770  122.9340 C.3   517  GLU517      0.0429
     85  CG         3.2580  126.7200  123.6530 C.3   517  GLU517      0.1163
     86  CD         1.8790  126.2070  123.2680 C.2   517  GLU517      0.3649
     87  OE1        1.0120  127.0380  122.9250 O.co2 517  GLU517     -0.2457
     88  OE2        1.6610  124.9750  123.3000 O.co2 517  GLU517     -0.2457
     89  N          6.6480  127.8770  121.0650 N.am  518  VAL518     -0.1977
     90  CA         6.9170  129.0460  120.2270 C.3   518  VAL518      0.1596
     91  C          6.3360  128.8660  118.8230 C.2   518  VAL518      0.2287
     92  O          6.7900  128.0000  118.0740 O.2   518  VAL518     -0.2864
     93  CB         8.4360  129.3420  120.1280 C.3   518  VAL518      0.0276
     94  CG1        8.6920  130.5800  119.2770 C.3   518  VAL518      0.0022
     95  CG2        9.0450  129.5140  121.5110 C.3   518  VAL518      0.0022
@<TRIPOS>BOND
     1    92    91    2
     2    91    90    1
     3    15    13    1
     4    94    93    1
     5    38    37    2
     6    37    36    1
     7    13    12    1
     8    93    90    1
     9    93    95    1
    10    90    89    1
    11    39    36    1
    12    39    40    1
    13    36    35    1
    14    89    82   am
    15    12     9    1
    16    12    14    1
    17    10    11    2
    18    10     9    1
    19    40    42   ar
    20    40    41   ar
    21    35    29   am
    22    16    17    1
    23    45    42   ar
    24    45    47   ar
    25     9     8    1
    26    42    44   ar
    27    82    83    2
    28    82    81    1
    29    41    43   ar
    30    47    48   ar
    31     8     3   am
    32    17    18    1
    33    17    20    1
    34    87    86   ar
    35    84    81    1
    36    84    85    1
    37    81    80    1
    38    29    30    2
    39    29    28    1
    40    44    43   ar
    41    44    46   ar
    42    86    88   ar
    43    86    85    1
    44    27    18   am
    45    27    28    1
    46    18    19    2
    47    48    46   ar
    48     1     2    1
    49     3     4    2
    50     3     2    1
    51    71    70    2
    52    20    21    1
    53    28    31    1
    54    80    70   am
    55     2     5    1
    56    31    32    1
    57    70    69    1
    58    21    22    1
    59     6     5    1
    60    49    50    1
    61     5     7    1
    62    22    23    1
    63    32    34   am
    64    32    33    2
    65    72    69    1
    66    72    73    1
    67    69    68    1
    68    23    24    2
    69    50    51    1
    70    50    53    1
    71    52    51    2
    72    55    53    1
    73    24    25    1
    74    24    26    1
    75    73    75   ar
    76    73    74   ar
    77    75    77   ar
    78    53    54    1
    79    54    56    1
    80    74    76   ar
    81    77    78   ar
    82    76    78   ar
    83    78    79    1
    84    60    59    2
    85    57    58    1
    86    59    58    1
    87    58    61    1
    88    61    62    1
    89    62    64   ar
    90    62    63   ar
    91    64    66   ar
    92    63    65   ar
    93    66    67   ar
    94    65    67   ar
