@<TRIPOS>MOLECULE
tmp/3q2wA01.pdb
 89 88 0 0 0
SMALL
GASTEIGER

@<TRIPOS>ATOM
      1  N          1.4250  105.4360   98.1570 N.3   406  ASN406     -0.1225
      2  CA         0.5840  104.6770   97.2410 C.3   406  ASN406      0.1785
      3  C          0.9410  105.0340   95.7960 C.2   406  ASN406      0.2597
      4  O          0.5840  104.3190   94.8560 O.2   406  ASN406     -0.2718
      5  CB        -0.8920  104.9680   97.5220 C.3   406  ASN406      0.1169
      6  CG        -1.7790  103.7550   97.3170 C.2   406  ASN406      0.2627
      7  OD1       -1.7850  103.1440   96.2480 O.2   406  ASN406     -0.2716
      8  ND2       -2.5460  103.4060   98.3440 N.am  406  ASN406     -0.0877
      9  N          1.6470  106.1530   95.6380 N.am  407  VAL407     -0.1966
     10  CA         2.1690  106.5950   94.3470 C.3   407  VAL407      0.1727
     11  C          3.6760  106.8170   94.5040 C.2   407  VAL407      0.2616
     12  O          4.1600  107.9550   94.4680 O.2   407  VAL407     -0.2715
     13  CB         1.4780  107.9030   93.8570 C.3   407  VAL407      0.0290
     14  CG1        1.7910  108.1660   92.3910 C.3   407  VAL407      0.0023
     15  CG2       -0.0310  107.8440   94.0620 C.3   407  VAL407      0.0023
     16  N          4.4060  105.7150   94.6940 N.am  408  LYS408     -0.1963
     17  CA         5.8500  105.7490   94.9680 C.3   408  LYS408      0.1728
     18  C          6.6410  106.5460   93.9390 C.2   408  LYS408      0.2616
     19  O          7.3480  107.4930   94.2940 O.2   408  LYS408     -0.2715
     20  CB         6.4290  104.3330   95.1140 C.3   408  LYS408      0.0311
     21  CG         6.9940  104.0170   96.5000 C.3   408  LYS408      0.0038
     22  CD         5.9030  103.7940   97.5410 C.3   408  LYS408      0.0206
     23  CE         6.4710  103.7300   98.9550 C.3   408  LYS408      0.1093
     24  NZ         7.2910  102.5080   99.1960 N.3   408  LYS408     -0.1314
     25  N          6.5210  106.1650   92.6710 N.am  409  ASN409     -0.1958
     26  CA         7.1110  106.9500   91.5990 C.3   409  ASN409      0.1819
     27  C          6.1100  108.0230   91.1860 C.2   409  ASN409      0.2621
     28  O          4.9240  107.9260   91.5070 O.2   409  ASN409     -0.2715
     29  CB         7.5750  106.0530   90.4490 C.3   409  ASN409      0.1195
     30  CG         8.9440  106.4480   89.9150 C.2   409  ASN409      0.2630
     31  OD1        9.8710  105.6390   89.9040 O.2   409  ASN409     -0.2716
     32  ND2        9.0790  107.6960   89.4790 N.am  409  ASN409     -0.0877
     33  N          6.6040  109.0400   90.4850 N.am  410  ASN410     -0.1958
     34  CA         5.8280  110.2210   90.0830 C.3   410  ASN410      0.1819
     35  C          4.4620  109.9380   89.4420 C.2   410  ASN410      0.2621
     36  O          3.6030  110.8240   89.3990 O.2   410  ASN410     -0.2715
     37  CB         6.6670  111.0860   89.1370 C.3   410  ASN410      0.1195
     38  CG         7.2130  110.3000   87.9500 C.2   410  ASN410      0.2630
     39  OD1        7.2240  109.0660   87.9520 O.2   410  ASN410     -0.2716
     40  ND2        7.6730  111.0190   86.9300 N.am  410  ASN410     -0.0877
     41  N          4.2700  108.7190   88.9410 N.am  411  ILE411     -0.1963
     42  CA         3.0090  108.3380   88.2940 C.3   411  ILE411      0.1727
     43  C          2.3140  107.1550   88.9670 C.2   411  ILE411      0.2616
     44  O          2.9480  106.3680   89.6710 O.2   411  ILE411     -0.2715
     45  CB         3.1840  108.0640   86.7750 C.3   411  ILE411      0.0290
     46  CG1        4.1680  106.9190   86.5180 C.3   411  ILE411      0.0022
     47  CG2        3.6390  109.3200   86.0660 C.3   411  ILE411      0.0023
     48  CD1        4.2080  106.4660   85.0660 C.3   411  ILE411      0.0001
     49  N          1.0080  107.0460   88.7380 N.am  412  TYR412     -0.1960
     50  CA         0.1940  105.9910   89.3330 C.3   412  TYR412      0.1771
     51  C         -0.1750  104.9300   88.3020 C.2   412  TYR412      0.2619
     52  O         -0.6800  105.2480   87.2220 O.2   412  TYR412     -0.2715
     53  CB        -1.0650  106.5880   89.9660 C.3   412  TYR412      0.0574
     54  CG        -1.9170  105.6030   90.7400 C.ar  412  TYR412     -0.0198
     55  CD1       -1.4860  105.0830   91.9610 C.ar  412  TYR412     -0.0009
     56  CD2       -3.1640  105.2080   90.2600 C.ar  412  TYR412     -0.0009
     57  CE1       -2.2700  104.1830   92.6760 C.ar  412  TYR412      0.0417
     58  CE2       -3.9560  104.3110   90.9690 C.ar  412  TYR412      0.0417
     59  CZ        -3.5030  103.8040   92.1730 C.ar  412  TYR412      0.1957
     60  OH        -4.2850  102.9180   92.8740 O.3   412  TYR412     -0.2866
     61  N          0.0850  103.6720   88.6520 N.am  413  ASN413     -0.1972
     62  CA        -0.1730  102.5310   87.7750 C.3   413  ASN413      0.1688
     63  C         -1.4900  101.8300   88.1090 C.2   413  ASN413      0.2292
     64  O         -1.7820  101.5620   89.2770 O.2   413  ASN413     -0.2864
     65  CB         0.9910  101.5320   87.8420 C.3   413  ASN413      0.1181
     66  CG         2.2260  102.0080   87.0840 C.2   413  ASN413      0.2629
     67  OD1        2.5600  101.4590   86.0320 O.2   413  ASN413     -0.2716
     68  ND2        2.9020  103.0360   87.6110 N.am  413  ASN413     -0.0877
     69  N         -1.4890  104.6020   82.9900 N.3   433  GLN433     -0.1245
     70  CA        -0.4790  105.2970   83.7800 C.3   433  GLN433      0.1566
     71  C         -0.6790  106.8040   83.6570 C.2   433  GLN433      0.2260
     72  O         -0.6110  107.3610   82.5590 O.2   433  GLN433     -0.2867
     73  CB         0.9300  104.8970   83.3300 C.3   433  GLN433      0.0367
     74  CG         1.3080  103.4550   83.6660 C.3   433  GLN433      0.0905
     75  CD         2.6560  103.0350   83.0940 C.2   433  GLN433      0.2608
     76  OE1        3.5700  103.8480   82.9490 O.2   433  GLN433     -0.2717
     77  NE2        2.7840  101.7530   82.7740 N.am  433  GLN433     -0.0878
     78  N          0.1990  110.7900   84.7370 N.3   435  TYR435     -0.1241
     79  CA         1.1880  111.7530   85.2070 C.3   435  TYR435      0.1605
     80  C          0.5480  112.8160   86.0870 C.2   435  TYR435      0.2264
     81  O         -0.3080  113.5810   85.6340 O.2   435  TYR435     -0.2867
     82  CB         1.9210  112.3930   84.0230 C.3   435  TYR435      0.0534
     83  CG         3.0170  111.5200   83.4550 C.ar  435  TYR435     -0.0201
     84  CD1        4.3590  111.7680   83.7560 C.ar  435  TYR435     -0.0009
     85  CD2        2.7150  110.4330   82.6280 C.ar  435  TYR435     -0.0009
     86  CE1        5.3730  110.9600   83.2440 C.ar  435  TYR435      0.0417
     87  CE2        3.7210  109.6200   82.1110 C.ar  435  TYR435      0.0417
     88  CZ         5.0450  109.8900   82.4230 C.ar  435  TYR435      0.1957
     89  OH         6.0390  109.0900   81.9120 O.3   435  TYR435     -0.2866
@<TRIPOS>BOND
     1    89    88    1
     2    87    88   ar
     3    87    85   ar
     4    88    86   ar
     5    72    71    2
     6    85    83   ar
     7    77    75   am
     8    76    75    2
     9    69    70    1
    10    75    74    1
    11    86    84   ar
    12    73    74    1
    13    73    70    1
    14    83    84   ar
    15    83    82    1
    16    71    70    1
    17    82    79    1
    18    78    79    1
    19    48    46    1
    20    79    80    1
    21    81    80    2
    22    67    66    2
    23    47    45    1
    24    46    45    1
    25    45    42    1
    26    40    38   am
    27    66    68   am
    28    66    65    1
    29    52    51    2
    30    62    65    1
    31    62    63    1
    32    62    61    1
    33    38    39    2
    34    38    37    1
    35    63    64    2
    36    42    41    1
    37    42    43    1
    38    51    61   am
    39    51    50    1
    40    49    43   am
    41    49    50    1
    42    41    35   am
    43    43    44    2
    44    37    34    1
    45    50    53    1
    46    36    35    2
    47    35    34    1
    48    32    30   am
    49    31    30    2
    50    30    29    1
    51    53    54    1
    52    34    33    1
    53    56    54   ar
    54    56    58   ar
    55    29    26    1
    56    33    27   am
    57    54    55   ar
    58    58    59   ar
    59    27    28    2
    60    27    26    1
    61    26    25    1
    62    55    57   ar
    63    59    57   ar
    64    59    60    1
    65    14    13    1
    66    25    18   am
    67    13    15    1
    68    13    10    1
    69    18    19    2
    70    18    17    1
    71    10    11    1
    72    10     9    1
    73    12    11    2
    74    11    16   am
    75    16    17    1
    76     4     3    2
    77    17    20    1
    78    20    21    1
    79     9     3   am
    80     3     2    1
    81     7     6    2
    82    21    22    1
    83     2     5    1
    84     2     1    1
    85     6     5    1
    86     6     8   am
    87    22    23    1
    88    23    24    1
