@<TRIPOS>MOLECULE
tmp/3q2yA00.pdb
 156 150 0 0 0
SMALL
GASTEIGER

@<TRIPOS>ATOM
      1  N         60.8540   30.6760   66.4640 N.3   143  PRO143     -0.2102
      2  CA        60.3100   29.4690   67.0710 C.3   143  PRO143      0.1504
      3  C         58.8350   29.5700   67.3820 C.2   143  PRO143      0.2575
      4  O         58.0910   28.6290   67.1660 O.2   143  PRO143     -0.2718
      5  CB        61.0550   29.3700   68.3940 C.3   143  PRO143      0.0282
      6  CG        62.2690   30.1850   68.2340 C.3   143  PRO143      0.0208
      7  CD        61.9260   31.2660   67.2750 C.3   143  PRO143      0.0893
      8  N         58.4030   30.7010   67.9010 N.am  144  GLU144     -0.1980
      9  CA        57.0230   30.8170   68.3190 C.3   144  GLU144      0.1602
     10  C         56.0290   30.8500   67.1520 C.2   144  GLU144      0.2287
     11  O         54.8620   30.5550   67.3520 O.2   144  GLU144     -0.2864
     12  CB        56.8340   32.0520   69.2010 C.3   144  GLU144      0.0415
     13  CG        57.4980   31.9560   70.5680 C.3   144  GLU144      0.1163
     14  CD        57.4070   33.2680   71.3610 C.2   144  GLU144      0.3649
     15  OE1       56.6490   33.3330   72.3650 O.co2 144  GLU144     -0.2457
     16  OE2       58.0850   34.2500   70.9750 O.co2 144  GLU144     -0.2457
     17  N         56.8660   30.0610   63.3810 N.3   146  VAL146     -0.1231
     18  CA        57.1450   29.3890   62.1170 C.3   146  VAL146      0.1692
     19  C         56.1250   28.2970   61.7970 C.2   146  VAL146      0.2592
     20  O         55.6340   27.6420   62.6920 O.2   146  VAL146     -0.2718
     21  CB        58.5600   28.8280   62.0840 C.3   146  VAL146      0.0266
     22  CG1       58.6970   27.7200   63.0720 C.3   146  VAL146      0.0020
     23  CG2       58.8950   28.3510   60.7140 C.3   146  VAL146      0.0020
     24  N         55.8070   28.1110   60.5210 N.am  147  LEU147     -0.1966
     25  CA        54.8400   27.1030   60.1030 C.3   147  LEU147      0.1728
     26  C         55.4640   26.1020   59.1740 C.2   147  LEU147      0.2616
     27  O         56.4970   26.3410   58.5890 O.2   147  LEU147     -0.2715
     28  CB        53.6740   27.7380   59.3640 C.3   147  LEU147      0.0311
     29  CG        52.7960   28.6370   60.1940 C.3   147  LEU147      0.0022
     30  CD1       51.5690   28.9730   59.4160 C.3   147  LEU147      0.0001
     31  CD2       52.4550   27.9480   61.4740 C.3   147  LEU147      0.0001
     32  N         54.8000   24.9820   59.0040 N.am  148  ASN148     -0.1972
     33  CA        55.1540   24.0930   57.9420 C.3   148  ASN148      0.1688
     34  C         55.0450   24.7880   56.5910 C.2   148  ASN148      0.2292
     35  O         55.9120   24.5920   55.7350 O.2   148  ASN148     -0.2864
     36  CB        54.2950   22.8420   58.0260 C.3   148  ASN148      0.1181
     37  CG        54.6740   22.0000   59.2190 C.2   148  ASN148      0.2629
     38  OD1       55.8670   21.8890   59.5220 O.2   148  ASN148     -0.2716
     39  ND2       53.6850   21.4540   59.9460 N.am  148  ASN148     -0.0877
     40  N         57.9900   26.4150   54.8760 N.3   151  TYR151     -0.1241
     41  CA        58.8980   25.6160   54.1120 C.3   151  TYR151      0.1605
     42  C         58.3850   25.3240   52.6940 C.2   151  TYR151      0.2264
     43  O         59.1710   24.9570   51.8230 O.2   151  TYR151     -0.2867
     44  CB        59.2270   24.3510   54.9180 C.3   151  TYR151      0.0534
     45  CG        60.0940   24.6780   56.1090 C.ar  151  TYR151     -0.0201
     46  CD1       59.5420   25.0140   57.3350 C.ar  151  TYR151     -0.0009
     47  CD2       61.4620   24.7310   55.9840 C.ar  151  TYR151     -0.0009
     48  CE1       60.3310   25.3440   58.4150 C.ar  151  TYR151      0.0417
     49  CE2       62.2740   25.0910   57.0420 C.ar  151  TYR151      0.0417
     50  CZ        61.7070   25.3870   58.2530 C.ar  151  TYR151      0.1957
     51  OH        62.5540   25.7390   59.2750 O.3   151  TYR151     -0.2866
     52  N         63.4460   19.6490   58.9670 N.3   169  TYR169     -0.1241
     53  CA        63.1420   21.0530   58.7810 C.3   169  TYR169      0.1605
     54  C         64.1780   21.8260   59.5460 C.2   169  TYR169      0.2264
     55  O         64.3520   21.6080   60.7380 O.2   169  TYR169     -0.2867
     56  CB        61.7580   21.3370   59.3470 C.3   169  TYR169      0.0534
     57  CG        60.6720   20.7070   58.5220 C.ar  169  TYR169     -0.0201
     58  CD1       60.1460   19.4660   58.8390 C.ar  169  TYR169     -0.0009
     59  CD2       60.2100   21.3330   57.3870 C.ar  169  TYR169     -0.0009
     60  CE1       59.1730   18.8810   58.0460 C.ar  169  TYR169      0.0417
     61  CE2       59.2480   20.7560   56.5810 C.ar  169  TYR169      0.0417
     62  CZ        58.7230   19.5380   56.9050 C.ar  169  TYR169      0.1957
     63  OH        57.7290   19.0150   56.0730 O.3   169  TYR169     -0.2866
     64  N         66.4210   25.4350   60.6870 N.3   171  ALA171     -0.1245
     65  CA        66.5030   26.8940   60.7690 C.3   171  ALA171      0.1562
     66  C         67.7800   27.3160   61.4620 C.2   171  ALA171      0.2260
     67  O         68.3930   26.5070   62.1620 O.2   171  ALA171     -0.2867
     68  CB        65.3080   27.4730   61.4960 C.3   171  ALA171      0.0290
     69  N         62.4450   32.9920   75.0010 N.3   181  ILE181     -0.1245
     70  CA        62.1770   32.5880   73.6240 C.3   181  ILE181      0.1561
     71  C         61.8030   33.7570   72.7140 C.2   181  ILE181      0.2260
     72  O         62.2930   33.8600   71.5900 O.2   181  ILE181     -0.2867
     73  CB        61.0620   31.5270   73.5560 C.3   181  ILE181      0.0252
     74  CG1       61.4460   30.2960   74.3790 C.3   181  ILE181      0.0019
     75  CG2       60.7790   31.1420   72.1120 C.3   181  ILE181      0.0019
     76  CD1       60.2670   29.4360   74.7790 C.3   181  ILE181      0.0001
     77  N         64.8070   33.7070   63.9850 N.3   186  TYR186     -0.1241
     78  CA        65.6000   32.9390   63.0390 C.3   186  TYR186      0.1605
     79  C         66.2370   33.8230   61.9720 C.2   186  TYR186      0.2264
     80  O         65.6230   34.7770   61.5180 O.2   186  TYR186     -0.2867
     81  CB        64.7160   31.9010   62.3550 C.3   186  TYR186      0.0534
     82  CG        64.2330   30.7810   63.2590 C.ar  186  TYR186     -0.0201
     83  CD1       62.9690   30.2120   63.0700 C.ar  186  TYR186     -0.0009
     84  CD2       65.0250   30.2900   64.3040 C.ar  186  TYR186     -0.0009
     85  CE1       62.5040   29.1830   63.8910 C.ar  186  TYR186      0.0417
     86  CE2       64.5740   29.2490   65.1280 C.ar  186  TYR186      0.0417
     87  CZ        63.3120   28.6940   64.9190 C.ar  186  TYR186      0.1957
     88  OH        62.8220   27.6680   65.7300 O.3   186  TYR186     -0.2866
     89  N         61.2300   16.5380   71.4750 N.3   223  PHE223     -0.1241
     90  CA        60.6940   17.8590   71.7230 C.3   223  PHE223      0.1605
     91  C         59.6000   17.9380   72.7750 C.2   223  PHE223      0.2264
     92  O         58.7480   17.0500   72.9170 O.2   223  PHE223     -0.2867
     93  CB        60.2030   18.4880   70.4310 C.3   223  PHE223      0.0534
     94  CG        59.4470   19.7330   70.6460 C.ar  223  PHE223     -0.0203
     95  CD1       60.0970   20.9320   70.7780 C.ar  223  PHE223     -0.0042
     96  CD2       58.0660   19.7060   70.7690 C.ar  223  PHE223     -0.0042
     97  CE1       59.3840   22.0840   71.0140 C.ar  223  PHE223     -0.0003
     98  CE2       57.3380   20.8650   71.0320 C.ar  223  PHE223     -0.0003
     99  CZ        57.9920   22.0430   71.1510 C.ar  223  PHE223     -0.0000
    100  N         57.6290   21.7050   74.6080 N.3   225  PRO225     -0.2116
    101  CA        57.7640   23.1650   74.6110 C.3   225  PRO225      0.1372
    102  C         58.6610   23.6270   75.7530 C.2   225  PRO225      0.2244
    103  O         59.5130   24.4910   75.5330 O.2   225  PRO225     -0.2868
    104  CB        56.3320   23.6710   74.8190 C.3   225  PRO225      0.0268
    105  CG        55.4650   22.5000   74.4800 C.3   225  PRO225      0.0207
    106  CD        56.2470   21.2890   74.8880 C.3   225  PRO225      0.0892
    107  N         62.6010   22.9830   74.9660 N.3   228  TYR228     -0.1241
    108  CA        63.2220   23.7350   73.8790 C.3   228  TYR228      0.1605
    109  C         64.2710   24.6590   74.4010 C.2   228  TYR228      0.2264
    110  O         65.4590   24.5240   74.0820 O.2   228  TYR228     -0.2867
    111  CB        62.2000   24.5930   73.1710 C.3   228  TYR228      0.0534
    112  CG        62.7490   25.3020   71.9680 C.ar  228  TYR228     -0.0201
    113  CD1       63.0260   24.6160   70.8050 C.ar  228  TYR228     -0.0009
    114  CD2       62.9520   26.6570   71.9890 C.ar  228  TYR228     -0.0009
    115  CE1       63.5070   25.2510   69.7040 C.ar  228  TYR228      0.0417
    116  CE2       63.4330   27.3200   70.8880 C.ar  228  TYR228      0.0417
    117  CZ        63.7160   26.6080   69.7490 C.ar  228  TYR228      0.1957
    118  OH        64.1940   27.2650   68.6330 O.3   228  TYR228     -0.2866
    119  N         69.3980   24.6880   64.0060 N.3   252  GLU252     -0.1245
    120  CA        68.4270   23.7610   64.5960 C.3   252  GLU252      0.1567
    121  C         67.7270   22.9020   63.5430 C.2   252  GLU252      0.2260
    122  O         67.2630   23.4150   62.5320 O.2   252  GLU252     -0.2867
    123  CB        67.4700   24.5440   65.4510 C.3   252  GLU252      0.0388
    124  CG        66.0060   24.2410   65.3580 C.3   252  GLU252      0.1160
    125  CD        65.1230   25.4010   66.0140 C.2   252  GLU252      0.3649
    126  OE1       65.6730   26.3870   66.6080 O.co2 252  GLU252     -0.2457
    127  OE2       63.8590   25.3340   65.9400 O.co2 252  GLU252     -0.2457
    128  N         64.7090   19.7980   63.0080 N.3   254  ILE254     -0.1245
    129  CA        63.5550   19.1450   63.6200 C.3   254  ILE254      0.1561
    130  C         63.1290   18.0450   62.6700 C.2   254  ILE254      0.2260
    131  O         62.9840   18.2730   61.4570 O.2   254  ILE254     -0.2867
    132  CB        62.4370   20.1950   63.8950 C.3   254  ILE254      0.0252
    133  CG1       62.8570   21.0330   65.0800 C.3   254  ILE254      0.0019
    134  CG2       61.1110   19.6010   64.2390 C.3   254  ILE254      0.0019
    135  CD1       62.6680   22.5240   64.8470 C.3   254  ILE254      0.0001
    136  N         51.7540   13.2470   67.8900 N.3   265  GLU265     -0.1245
    137  CA        52.9000   13.6490   67.0590 C.3   265  GLU265      0.1567
    138  C         54.1290   13.7450   67.9440 C.2   265  GLU265      0.2260
    139  O         53.9980   13.8840   69.1550 O.2   265  GLU265     -0.2867
    140  CB        52.6350   14.9560   66.3160 C.3   265  GLU265      0.0388
    141  CG        52.4190   16.1230   67.2610 C.3   265  GLU265      0.1160
    142  CD        51.6780   17.3330   66.6460 C.2   265  GLU265      0.3649
    143  OE1       52.3020   18.4490   66.5790 O.co2 265  GLU265     -0.2457
    144  OE2       50.4680   17.1730   66.2790 O.co2 265  GLU265     -0.2457
    145  N         58.5950   14.8360   67.8830 N.3   267  TYR267     -0.1241
    146  CA        59.7030   15.3230   67.0960 C.3   267  TYR267      0.1605
    147  C         61.0490   15.1650   67.7670 C.2   267  TYR267      0.2264
    148  O         61.1940   15.3640   68.9600 O.2   267  TYR267     -0.2867
    149  CB        59.4810   16.7890   66.7840 C.3   267  TYR267      0.0534
    150  CG        58.1180   17.0210   66.2490 C.ar  267  TYR267     -0.0201
    151  CD1       57.0470   17.2080   67.0960 C.ar  267  TYR267     -0.0009
    152  CD2       57.8830   17.0170   64.8930 C.ar  267  TYR267     -0.0009
    153  CE1       55.7570   17.3760   66.6010 C.ar  267  TYR267      0.0417
    154  CE2       56.6090   17.1940   64.3750 C.ar  267  TYR267      0.0417
    155  CZ        55.5440   17.3570   65.2310 C.ar  267  TYR267      0.1957
    156  OH        54.2570   17.4940   64.7140 O.3   267  TYR267     -0.2866
@<TRIPOS>BOND
     1    43    42    2
     2    42    41    1
     3    41    40    1
     4    41    44    1
     5    44    45    1
     6    35    34    2
     7    47    45   ar
     8    47    49   ar
     9    63    62    1
    10    45    46   ar
    11    61    62   ar
    12    61    59   ar
    13    34    33    1
    14    62    60   ar
    15    49    50   ar
    16    46    48   ar
    17    59    57   ar
    18    33    36    1
    19    33    32    1
    20    36    37    1
    21    60    58   ar
    22    50    48   ar
    23    50    51    1
    24    57    58   ar
    25    57    56    1
    26    27    26    2
    27    53    52    1
    28    53    56    1
    29    53    54    1
    30    32    26   am
    31    26    25    1
    32    37    38    2
    33    37    39   am
    34    28    25    1
    35    28    29    1
    36    30    29    1
    37    54    55    2
    38    25    24    1
    39    29    31    1
    40    24    19   am
    41    64    65    1
    42    23    21    1
    43    65    66    1
    44    65    68    1
    45   131   130    2
    46    66    67    2
    47    80    79    2
    48    19    18    1
    49    19    20    2
    50    79    78    1
    51    21    18    1
    52    21    22    1
    53    18    17    1
    54    81    78    1
    55    81    82    1
    56   122   121    2
    57   130   129    1
    58   128   129    1
    59    78    77    1
    60    83    82   ar
    61    83    85   ar
    62    82    84   ar
    63   121   120    1
    64   129   132    1
    65    85    87   ar
    66   132   134    1
    67   132   133    1
    68   119   120    1
    69    84    86   ar
    70   154   152   ar
    71   154   155   ar
    72   120   123    1
    73   156   155    1
    74   135   133    1
    75   152   150   ar
    76    87    86   ar
    77    87    88    1
    78   155   153   ar
    79   124   123    1
    80   124   125    1
    81   127   125   ar
    82   125   126   ar
    83   150   149    1
    84   150   151   ar
    85   144   142   ar
    86   140   137    1
    87   140   141    1
    88     1     2    1
    89     1     7    1
    90   143   142   ar
    91   153   151   ar
    92   142   141    1
    93   149   146    1
    94   137   136    1
    95   137   138    1
    96     2     3    1
    97     2     5    1
    98   146   147    1
    99   146   145    1
   100    10    11    2
   101    10     9    1
   102     4     3    2
   103     7     6    1
   104     3     8   am
   105   147   148    2
   106     8     9    1
   107   138   139    2
   108     6     5    1
   109     9    12    1
   110   118   117    1
   111    12    13    1
   112   115   117   ar
   113   115   113   ar
   114   117   116   ar
   115    93    94    1
   116    93    90    1
   117    13    14    1
   118    94    96   ar
   119    94    95   ar
   120    96    98   ar
   121    95    97   ar
   122   113   112   ar
   123   116   114   ar
   124    16    14   ar
   125    97    99   ar
   126    98    99   ar
   127    14    15   ar
   128    89    90    1
   129    72    71    2
   130    90    91    1
   131   112   114   ar
   132   112   111    1
   133    75    73    1
   134    71    70    1
   135    91    92    2
   136   111   108    1
   137    73    70    1
   138    73    74    1
   139    70    69    1
   140   108   109    1
   141   108   107    1
   142   110   109    2
   143    74    76    1
   144   105   104    1
   145   105   106    1
   146   100   101    1
   147   100   106    1
   148   101   104    1
   149   101   102    1
   150   103   102    2
