@<TRIPOS>MOLECULE
tmp/3q2zA00.pdb
 211 202 0 0 0
SMALL
GASTEIGER

@<TRIPOS>ATOM
      1  N          4.3220   -2.9410   58.8860 N.3    15  THR15      -0.1203
      2  CA         5.4370   -3.8770   58.8080 C.3    15  THR15       0.1994
      3  C          6.6440   -3.2580   59.4730 C.2    15  THR15       0.2619
      4  O          7.2440   -3.8790   60.3230 O.2    15  THR15      -0.2717
      5  CB         5.7920   -4.3030   57.3550 C.3    15  THR15       0.1784
      6  OG1        6.2820   -3.1760   56.6260 O.3    15  THR15      -0.2211
      7  CG2        4.5750   -4.8680   56.6240 C.3    15  THR15       0.0376
      8  N          6.9740   -2.0210   59.1250 N.am   16  SER16      -0.1937
      9  CA         8.3350   -1.4890   59.3740 C.3    16  SER16       0.2055
     10  C          8.6340   -1.0360   60.8030 C.2    16  SER16       0.2643
     11  O          9.8050   -0.7740   61.1480 O.2    16  SER16      -0.2714
     12  CB         8.6630   -0.3420   58.4030 C.3    16  SER16       0.2130
     13  OG         9.9780    0.1430   58.5730 O.3    16  SER16      -0.2179
     14  N          7.5850   -0.9070   61.6120 N.am   17  ARG17      -0.1963
     15  CA         7.7550   -0.5840   63.0330 C.3    17  ARG17       0.1729
     16  C          8.4160    0.7790   63.3150 C.2    17  ARG17       0.2617
     17  O          7.8490    1.8290   62.9880 O.2    17  ARG17      -0.2715
     18  CB         8.5270   -1.7130   63.7560 C.3    17  ARG17       0.0348
     19  CG         7.8110   -3.0570   63.6600 C.3    17  ARG17       0.0492
     20  CD         6.8630   -3.3060   64.8280 C.3    17  ARG17       0.2205
     21  NE         5.8970   -2.2380   65.0200 N.pl3  17  ARG17      -0.0865
     22  CZ         4.8210   -2.1200   64.2420 C.cat  17  ARG17       0.5346
     23  NH1        4.5990   -2.9800   63.2490 N.pl3  17  ARG17       0.1354
     24  NH2        3.9400   -1.1580   64.4940 N.pl3  17  ARG17       0.1354
     25  N          9.5890    0.7570   63.9530 N.am   18  SER18      -0.1936
     26  CA        10.2960    1.9990   64.3330 C.3    18  SER18       0.2055
     27  C         10.9580    2.6370   63.1260 C.2    18  SER18       0.2643
     28  O         11.3350    3.8170   63.1370 O.2    18  SER18      -0.2714
     29  CB        11.3680    1.7050   65.3860 C.3    18  SER18       0.2130
     30  OG        12.4280    0.9570   64.8960 O.3    18  SER18      -0.2179
     31  N         11.0990    1.8330   62.0820 N.am   19  PHE19      -0.1973
     32  CA        11.9030    2.2360   60.9640 C.3    19  PHE19       0.1639
     33  C         11.0990    3.1110   60.0090 C.2    19  PHE19       0.2290
     34  O         11.6640    3.9760   59.3520 O.2    19  PHE19      -0.2864
     35  CB        12.5140    1.0200   60.2870 C.3    19  PHE19       0.0560
     36  CG        13.6040    1.3640   59.3400 C.ar   19  PHE19      -0.0200
     37  CD1       13.5650    0.9110   58.0270 C.ar   19  PHE19      -0.0042
     38  CD2       14.6520    2.1820   59.7430 C.ar   19  PHE19      -0.0042
     39  CE1       14.5700    1.2360   57.1350 C.ar   19  PHE19      -0.0003
     40  CE2       15.6700    2.5100   58.8520 C.ar   19  PHE19      -0.0003
     41  CZ        15.6160    2.0330   57.5550 C.ar   19  PHE19      -0.0000
     42  N         11.6420    5.0270   48.4260 N.3    34  VAL34      -0.1245
     43  CA        12.1840    4.0630   49.3850 C.3    34  VAL34       0.1561
     44  C         11.0380    3.3350   50.0400 C.2    34  VAL34       0.2260
     45  O         11.0950    2.1280   50.3260 O.2    34  VAL34      -0.2867
     46  CB        13.0790    4.7850   50.3990 C.3    34  VAL34       0.0252
     47  CG1       13.4470    3.8800   51.5350 C.3    34  VAL34       0.0019
     48  CG2       14.3680    5.2960   49.6940 C.3    34  VAL34       0.0019
     49  N          9.9850    0.7120   47.6370 N.3    37  PHE37      -0.1227
     50  CA        11.0540   -0.3080   47.5790 C.3    37  PHE37       0.1736
     51  C         11.0240   -1.2220   48.7860 C.2    37  PHE37       0.2595
     52  O         11.1980   -2.4280   48.6600 O.2    37  PHE37      -0.2718
     53  CB        12.3900    0.4030   47.5480 C.3    37  PHE37       0.0547
     54  CG        13.5600   -0.4750   47.1350 C.ar   37  PHE37      -0.0202
     55  CD1       14.8350   -0.1130   47.4940 C.ar   37  PHE37      -0.0042
     56  CD2       13.3750   -1.6250   46.3710 C.ar   37  PHE37      -0.0042
     57  CE1       15.9470   -0.9340   47.0960 C.ar   37  PHE37      -0.0003
     58  CE2       14.4490   -2.4330   45.9430 C.ar   37  PHE37      -0.0003
     59  CZ        15.7490   -2.0850   46.3110 C.ar   37  PHE37      -0.0000
     60  N         10.8170   -0.6370   49.9570 N.am   38  TYR38      -0.1976
     61  CA        10.7320   -1.3700   51.1820 C.3    38  TYR38       0.1639
     62  C          9.6020   -2.3950   51.0630 C.2    38  TYR38       0.2290
     63  O          9.7900   -3.5390   51.4300 O.2    38  TYR38      -0.2864
     64  CB        10.4330   -0.4280   52.3570 C.3    38  TYR38       0.0560
     65  CG        10.5140   -1.1230   53.6820 C.ar   38  TYR38      -0.0198
     66  CD1        9.4360   -1.8460   54.1920 C.ar   38  TYR38      -0.0009
     67  CD2       11.6820   -1.0500   54.4390 C.ar   38  TYR38      -0.0009
     68  CE1        9.5370   -2.4930   55.4250 C.ar   38  TYR38       0.0417
     69  CE2       11.7830   -1.6820   55.6440 C.ar   38  TYR38       0.0417
     70  CZ        10.7100   -2.4000   56.1230 C.ar   38  TYR38       0.1957
     71  OH        10.8530   -3.0000   57.3400 O.3    38  TYR38      -0.2866
     72  N         10.2840   -5.2400   48.6030 N.3    41  LEU41      -0.1245
     73  CA        11.2770   -6.2160   49.0960 C.3    41  LEU41       0.1561
     74  C         10.5750   -7.0800   50.1330 C.2    41  LEU41       0.2260
     75  O         10.8310   -8.2860   50.2490 O.2    41  LEU41      -0.2867
     76  CB        12.4280   -5.4860   49.7540 C.3    41  LEU41       0.0270
     77  CG        13.3520   -4.7160   48.7690 C.3    41  LEU41       0.0019
     78  CD1       14.2670   -3.7260   49.5330 C.3    41  LEU41       0.0001
     79  CD2       14.1360   -5.7140   47.9220 C.3    41  LEU41       0.0001
     80  N         10.5880  -11.1100   50.1310 N.3    45  ASP45      -0.1239
     81  CA        11.0780  -11.9090   51.2760 C.3    45  ASP45       0.1674
     82  C         10.0100  -12.8720   51.7500 C.2    45  ASP45       0.2266
     83  O         10.2950  -13.9930   52.1520 O.2    45  ASP45      -0.2867
     84  CB        11.3920  -11.0060   52.4600 C.3    45  ASP45       0.1410
     85  CG        12.5840  -10.1230   52.2090 C.2    45  ASP45       0.3668
     86  OD1       13.3780  -10.4260   51.2690 O.co2  45  ASP45      -0.2456
     87  OD2       12.7160   -9.1230   52.9530 O.co2  45  ASP45      -0.2456
     88  N         20.3870  -11.3500   49.5100 N.3   140  VAL140     -0.1231
     89  CA        19.2100  -11.0110   50.3230 C.3   140  VAL140      0.1692
     90  C         19.3670   -9.6490   50.9580 C.2   140  VAL140      0.2591
     91  O         18.3710   -9.0860   51.4370 O.2   140  VAL140     -0.2718
     92  CB        18.8950  -12.0440   51.4530 C.3   140  VAL140      0.0266
     93  CG1       18.6100  -13.4560   50.8260 C.3   140  VAL140      0.0020
     94  CG2       19.9830  -12.0820   52.5850 C.3   140  VAL140      0.0020
     95  N         20.6060   -9.1300   50.9930 N.am  141  ALA141     -0.1980
     96  CA        20.8930   -7.9120   51.7250 C.3   141  ALA141      0.1597
     97  C         21.8730   -6.9850   51.0110 C.2   141  ALA141      0.2287
     98  O         21.6380   -5.7710   50.9430 O.2   141  ALA141     -0.2864
     99  CB        21.4100   -8.2620   53.1290 C.3   141  ALA141      0.0319
    100  N         20.2370   -4.9680   48.3850 N.3   144  VAL144     -0.1231
    101  CA        19.3470   -3.8470   48.8310 C.3   144  VAL144      0.1692
    102  C         20.2750   -2.6320   49.1160 C.2   144  VAL144      0.2592
    103  O         20.0440   -1.5000   48.7350 O.2   144  VAL144     -0.2718
    104  CB        18.6470   -4.2180   50.1700 C.3   144  VAL144      0.0266
    105  CG1       17.8500   -3.0210   50.6330 C.3   144  VAL144      0.0020
    106  CG2       17.6880   -5.4410   49.9270 C.3   144  VAL144      0.0020
    107  N         21.3760   -2.8380   49.7700 N.am  145  GLY145     -0.1957
    108  CA        22.2910   -1.6490   49.8830 C.3   145  GLY145      0.1869
    109  C         22.6220   -0.9930   48.5500 C.2   145  GLY145      0.2309
    110  O         22.8030    0.2290   48.4960 O.2   145  GLY145     -0.2863
    111  N         19.5020    0.8720   47.0810 N.3   148  LEU148     -0.1245
    112  CA        19.2810    2.1830   47.7610 C.3   148  LEU148      0.1561
    113  C         20.3530    3.1690   47.3820 C.2   148  LEU148      0.2260
    114  O         20.1100    4.3680   47.1480 O.2   148  LEU148     -0.2867
    115  CB        19.3380    2.0700   49.2850 C.3   148  LEU148      0.0270
    116  CG        18.2080    1.2300   49.8650 C.3   148  LEU148      0.0019
    117  CD1       18.5420    0.9220   51.2790 C.3   148  LEU148      0.0001
    118  CD2       16.9100    2.1240   49.7840 C.3   148  LEU148      0.0001
    119  N         27.3480   -2.4580   53.5240 N.3   172  MET172     -0.1230
    120  CA        26.2370   -1.9470   54.3760 C.3   172  MET172      0.1702
    121  C         25.2170   -3.0480   54.6320 C.2   172  MET172      0.2592
    122  O         24.7170   -3.2100   55.7810 O.2   172  MET172     -0.2718
    123  CB        25.5680   -0.7360   53.7510 C.3   172  MET172      0.0401
    124  CG        26.5360    0.4450   53.5480 C.3   172  MET172      0.0596
    125  SD        26.8460    1.2640   55.1190 S.3   172  MET172     -0.1393
    126  CE        25.2760    2.0700   55.4560 C.3   172  MET172      0.0692
    127  N         24.8540   -3.7880   53.5970 N.am  173  GLY173     -0.1957
    128  CA        23.8100   -4.8400   53.7330 C.3   173  GLY173      0.1869
    129  C         24.2920   -6.1040   54.4550 C.2   173  GLY173      0.2309
    130  O         23.5810   -6.7340   55.2840 O.2   173  GLY173     -0.2863
    131  N         24.5090   -5.7540   58.2880 N.3   176  LEU176     -0.1231
    132  CA        23.2210   -5.8520   58.9730 C.3   176  LEU176      0.1693
    133  C         22.7470   -7.2630   58.9680 C.2   176  LEU176      0.2591
    134  O         22.3330   -7.7730   59.9750 O.2   176  LEU176     -0.2718
    135  CB        22.1860   -4.9850   58.2710 C.3   176  LEU176      0.0284
    136  CG        22.5730   -3.5120   58.3220 C.3   176  LEU176      0.0019
    137  CD1       21.4580   -2.6780   57.6160 C.3   176  LEU176      0.0001
    138  CD2       22.7700   -3.0080   59.7650 C.3   176  LEU176      0.0001
    139  N         22.7920   -7.9120   57.8260 N.am  177  GLN177     -0.1979
    140  CA        22.3110   -9.2830   57.7160 C.3   177  GLN177      0.1601
    141  C         23.1010  -10.2920   58.5310 C.2   177  GLN177      0.2287
    142  O         22.5350  -11.2060   59.1210 O.2   177  GLN177     -0.2864
    143  CB        22.3500   -9.6640   56.2360 C.3   177  GLN177      0.0394
    144  CG        21.6690  -10.9960   55.8540 C.3   177  GLN177      0.0908
    145  CD        20.2750  -11.0850   56.3760 C.2   177  GLN177      0.2608
    146  OE1       19.8140  -12.1560   56.6990 O.2   177  GLN177     -0.2717
    147  NE2       19.5980   -9.9760   56.4850 N.am  177  GLN177     -0.0878
    148  N         22.0100   -9.8970   62.1040 N.3   180  ASN180     -0.1240
    149  CA        20.7080  -10.5970   62.3770 C.3   180  ASN180      0.1653
    150  C         20.8840  -12.1020   62.4420 C.2   180  ASN180      0.2266
    151  O         20.4390  -12.7570   63.3410 O.2   180  ASN180     -0.2867
    152  CB        19.6950  -10.2490   61.2720 C.3   180  ASN180      0.1155
    153  CG        19.2970   -8.8100   61.3160 C.2   180  ASN180      0.2627
    154  OD1       19.5960   -8.1580   62.2900 O.2   180  ASN180     -0.2716
    155  ND2       18.6670   -8.2850   60.2500 N.am  180  ASN180     -0.0877
    156  N         22.5690  -13.1000   65.7740 N.3   183  ARG183     -0.1245
    157  CA        21.6960  -12.9100   66.9180 C.3   183  ARG183      0.1563
    158  C         20.4890  -13.8650   66.9440 C.2   183  ARG183      0.2260
    159  O         20.0100  -14.2480   68.0410 O.2   183  ARG183     -0.2867
    160  CB        21.2170  -11.4540   66.9620 C.3   183  ARG183      0.0307
    161  CG        20.0910  -11.1910   68.0460 C.3   183  ARG183      0.0489
    162  CD        19.2370   -9.9400   67.6740 C.3   183  ARG183      0.2205
    163  NE        18.5590  -10.1410   66.4030 N.pl3 183  ARG183     -0.0865
    164  CZ        18.0680   -9.1680   65.6290 C.cat 183  ARG183      0.5346
    165  NH1       18.1840   -7.9020   65.9940 N.pl3 183  ARG183      0.1354
    166  NH2       17.4770   -9.4640   64.4670 N.pl3 183  ARG183      0.1354
    167  N         31.4280    4.4160   53.6430 N.3   241  TYR241     -0.1241
    168  CA        30.1670    4.6980   53.0040 C.3   241  TYR241      0.1605
    169  C         29.4820    5.9030   53.6480 C.2   241  TYR241      0.2264
    170  O         29.0280    6.8280   52.9450 O.2   241  TYR241     -0.2867
    171  CB        29.2930    3.4650   53.1010 C.3   241  TYR241      0.0534
    172  CG        28.0340    3.5890   52.3600 C.ar  241  TYR241     -0.0201
    173  CD1       26.9250    4.1860   52.9610 C.ar  241  TYR241     -0.0009
    174  CD2       27.9070    3.0810   51.0460 C.ar  241  TYR241     -0.0009
    175  CE1       25.7640    4.2850   52.2890 C.ar  241  TYR241      0.0417
    176  CE2       26.7270    3.1990   50.3460 C.ar  241  TYR241      0.0417
    177  CZ        25.6460    3.7820   51.0080 C.ar  241  TYR241      0.1957
    178  OH        24.4380    3.9190   50.3840 O.3   241  TYR241     -0.2866
    179  N         19.1580    8.1250   57.7230 N.3   253  PHE253     -0.1227
    180  CA        18.5350    6.8720   57.2360 C.3   253  PHE253      0.1736
    181  C         19.5570    5.7340   57.2180 C.2   253  PHE253      0.2595
    182  O         19.2770    4.6350   57.6520 O.2   253  PHE253     -0.2718
    183  CB        17.9700    7.1020   55.8330 C.3   253  PHE253      0.0547
    184  CG        17.3730    5.8600   55.1790 C.ar  253  PHE253     -0.0202
    185  CD1       17.9510    5.3250   54.0310 C.ar  253  PHE253     -0.0042
    186  CD2       16.2450    5.2370   55.7120 C.ar  253  PHE253     -0.0042
    187  CE1       17.4000    4.1860   53.4070 C.ar  253  PHE253     -0.0003
    188  CE2       15.7000    4.0930   55.1150 C.ar  253  PHE253     -0.0003
    189  CZ        16.2230    3.5770   53.9590 C.ar  253  PHE253     -0.0000
    190  N         20.7580    5.9880   56.7090 N.am  254  CYS254     -0.1970
    191  CA        21.7200    4.9200   56.6130 C.3   254  CYS254      0.1712
    192  C         22.4210    4.6470   57.9640 C.2   254  CYS254      0.2296
    193  O         22.9620    3.5330   58.1970 O.2   254  CYS254     -0.2864
    194  CB        22.7960    5.3340   55.5860 C.3   254  CYS254      0.0983
    195  SG        22.1570    5.4530   53.8510 S.3   254  CYS254     -0.0798
    196  N         20.3860    2.1710   61.2900 N.3   257  PRO257     -0.2102
    197  CA        20.4530    0.7140   61.3870 C.3   257  PRO257      0.1504
    198  C         21.8710    0.2530   61.6970 C.2   257  PRO257      0.2575
    199  O         22.0630   -0.7620   62.3300 O.2   257  PRO257     -0.2718
    200  CB        20.0820    0.2500   59.9910 C.3   257  PRO257      0.0282
    201  CG        19.1470    1.4170   59.4490 C.3   257  PRO257      0.0208
    202  CD        19.8210    2.6290   60.0000 C.3   257  PRO257      0.0893
    203  N         22.8590    0.9920   61.2300 N.am  258  GLN258     -0.1980
    204  CA        24.2240    0.5330   61.4120 C.3   258  GLN258      0.1601
    205  C         24.7280    0.6320   62.8680 C.2   258  GLN258      0.2287
    206  O         25.4350   -0.2660   63.3470 O.2   258  GLN258     -0.2864
    207  CB        25.1360    1.3250   60.4870 C.3   258  GLN258      0.0394
    208  CG        24.8380    1.1030   59.0080 C.3   258  GLN258      0.0908
    209  CD        25.2000   -0.2880   58.5160 C.2   258  GLN258      0.2608
    210  OE1       26.1470   -0.9060   58.9690 O.2   258  GLN258     -0.2717
    211  NE2       24.4400   -0.7730   57.5800 N.am  258  GLN258     -0.0878
@<TRIPOS>BOND
     1    58    59   ar
     2    58    56   ar
     3    59    57   ar
     4    56    54   ar
     5   111   112    1
     6    57    55   ar
     7    54    55   ar
     8    54    53    1
     9   114   113    2
    10   113   112    1
    11    53    50    1
    12    50    49    1
    13    50    51    1
    14   112   115    1
    15    79    77    1
    16   100   101    1
    17    42    43    1
    18   110   109    2
    19   109   108    1
    20    72    73    1
    21    52    51    2
    22   103   102    2
    23    77    78    1
    24    77    76    1
    25    51    60   am
    26   101   102    1
    27   101   104    1
    28    73    76    1
    29    73    74    1
    30   102   107   am
    31   115   116    1
    32    43    44    1
    33    43    46    1
    34    88    89    1
    35    48    46    1
    36   107   108    1
    37   118   116    1
    38   116   117    1
    39   106   104    1
    40    60    61    1
    41    44    45    2
    42    80    81    1
    43    74    75    2
    44   104   105    1
    45    89    90    1
    46    89    92    1
    47   176   177   ar
    48   176   174   ar
    49   178   177    1
    50    46    47    1
    51    93    92    1
    52    98    97    2
    53    90    95   am
    54    90    91    2
    55    95    96    1
    56   177   175   ar
    57    97    96    1
    58   174   172   ar
    59    62    61    1
    60    62    63    2
    61    61    64    1
    62    86    85   ar
    63    81    82    1
    64    81    84    1
    65    92    94    1
    66    96    99    1
    67    82    83    2
    68    85    84    1
    69    85    87   ar
    70   175   173   ar
    71    64    65    1
    72   172   173   ar
    73   172   171    1
    74   170   169    2
    75   168   171    1
    76   168   167    1
    77   168   169    1
    78   187   189   ar
    79   187   185   ar
    80   119   120    1
    81   124   123    1
    82   124   125    1
    83   127   128    1
    84   127   121   am
    85    65    66   ar
    86    65    67   ar
    87   128   129    1
    88   123   120    1
    89   195   194    1
    90   189   188   ar
    91   185   184   ar
    92    66    68   ar
    93   120   121    1
    94    67    69   ar
    95   129   130    2
    96   121   122    2
    97   188   186   ar
    98   125   126    1
    99   184   186   ar
   100   184   183    1
   101    68    70   ar
   102   194   191    1
   103    69    70   ar
   104   183   180    1
   105   144   143    1
   106   144   145    1
   107    70    71    1
   108   143   140    1
   109   145   147   am
   110   145   146    2
   111   191   190    1
   112   191   192    1
   113     7     5    1
   114     6     5    1
   115   190   181   am
   116    39    41   ar
   117    39    37   ar
   118   181   180    1
   119   181   182    2
   120   180   179    1
   121     5     2    1
   122    41    40   ar
   123   211   209   am
   124   137   136    1
   125   140   139    1
   126   140   141    1
   127   139   133   am
   128   192   193    2
   129    37    36   ar
   130   135   136    1
   131   135   132    1
   132   131   132    1
   133   136   138    1
   134    12    13    1
   135    12     9    1
   136   209   210    2
   137   209   208    1
   138   141   142    2
   139     2     1    1
   140     2     3    1
   141    40    38   ar
   142   133   132    1
   143   133   134    2
   144   208   207    1
   145     8     9    1
   146     8     3   am
   147    36    38   ar
   148    36    35    1
   149    34    33    2
   150     9    10    1
   151   201   200    1
   152   201   202    1
   153     3     4    2
   154   200   197    1
   155   202   196    1
   156    33    32    1
   157   155   153   am
   158    35    32    1
   159   207   204    1
   160    10    11    2
   161    10    14   am
   162    32    31    1
   163   203   204    1
   164   203   198   am
   165   152   153    1
   166   152   149    1
   167   196   197    1
   168   153   154    2
   169   197   198    1
   170   204   205    1
   171    14    15    1
   172   198   199    2
   173    31    27   am
   174   148   149    1
   175   149   150    1
   176   150   151    2
   177   205   206    2
   178    17    16    2
   179    15    16    1
   180    15    18    1
   181    27    28    2
   182    27    26    1
   183    23    22    1
   184    16    25   am
   185    19    18    1
   186    19    20    1
   187    25    26    1
   188    22    24    1
   189    22    21    2
   190    26    29    1
   191   166   164    1
   192    20    21    1
   193    30    29    1
   194   164   165    1
   195   164   163    2
   196   156   157    1
   197   163   162    1
   198   157   158    1
   199   157   160    1
   200   158   159    2
   201   160   161    1
   202   162   161    1
