@<TRIPOS>MOLECULE
tmp/3q30A00.pdb
 242 229 0 0 0
SMALL
GASTEIGER

@<TRIPOS>ATOM
      1  N         13.8540    6.3320   56.5280 N.3    20  ILE20      -0.1245
      2  CA        13.3760    6.4030   55.1470 C.3    20  ILE20       0.1561
      3  C         12.5210    7.6590   54.9230 C.2    20  ILE20       0.2260
      4  O         12.7400    8.3960   53.9740 O.2    20  ILE20      -0.2867
      5  CB        12.6510    5.0910   54.6860 C.3    20  ILE20       0.0252
      6  CG1       13.6790    3.9530   54.6020 C.3    20  ILE20       0.0019
      7  CG2       11.9480    5.3080   53.3310 C.3    20  ILE20       0.0019
      8  CD1       13.1160    2.5510   54.3440 C.3    20  ILE20       0.0001
      9  N         12.9390    4.9400   47.7750 N.3    31  VAL31      -0.1245
     10  CA        13.4960    4.0010   48.7470 C.3    31  VAL31       0.1561
     11  C         12.3440    3.2860   49.4580 C.2    31  VAL31       0.2260
     12  O         12.4200    2.0750   49.7490 O.2    31  VAL31      -0.2867
     13  CB        14.5060    4.7300   49.7360 C.3    31  VAL31       0.0252
     14  CG1       14.8120    3.8860   50.9750 C.3    31  VAL31       0.0019
     15  CG2       15.7670    5.1410   49.0360 C.3    31  VAL31       0.0019
     16  N         11.3660    0.6560   46.9540 N.3    34  PHE34      -0.1227
     17  CA        12.4740   -0.3510   46.8350 C.3    34  PHE34       0.1736
     18  C         12.4470   -1.3370   48.0180 C.2    34  PHE34       0.2595
     19  O         12.7260   -2.5580   47.8810 O.2    34  PHE34      -0.2718
     20  CB        13.8060    0.3950   46.8270 C.3    34  PHE34       0.0547
     21  CG        15.0060   -0.4620   46.5100 C.ar   34  PHE34      -0.0202
     22  CD1       16.2330   -0.1650   47.0770 C.ar   34  PHE34      -0.0042
     23  CD2       14.9410   -1.4850   45.5740 C.ar   34  PHE34      -0.0042
     24  CE1       17.3570   -0.9330   46.7750 C.ar   34  PHE34      -0.0003
     25  CE2       16.0700   -2.2370   45.2700 C.ar   34  PHE34      -0.0003
     26  CZ        17.2720   -1.9490   45.8670 C.ar   34  PHE34      -0.0000
     27  N         12.1890   -0.7730   49.1870 N.am   35  TYR35      -0.1976
     28  CA        12.0840   -1.5630   50.3960 C.3    35  TYR35       0.1639
     29  C         10.9710   -2.5940   50.2810 C.2    35  TYR35       0.2290
     30  O         11.2010   -3.7800   50.4940 O.2    35  TYR35      -0.2864
     31  CB        11.8290   -0.6900   51.6270 C.3    35  TYR35       0.0560
     32  CG        11.7390   -1.5500   52.8570 C.ar   35  TYR35      -0.0198
     33  CD1       10.5030   -2.0390   53.2990 C.ar   35  TYR35      -0.0009
     34  CD2       12.9040   -1.9650   53.5270 C.ar   35  TYR35      -0.0009
     35  CE1       10.4160   -2.8760   54.3930 C.ar   35  TYR35       0.0417
     36  CE2       12.8290   -2.8200   54.6350 C.ar   35  TYR35       0.0417
     37  CZ        11.5820   -3.2610   55.0490 C.ar   35  TYR35       0.1957
     38  OH        11.4740   -4.0800   56.1390 O.3    35  TYR35      -0.2866
     39  N         11.5440   -5.3500   47.7120 N.3    38  LEU38      -0.1231
     40  CA        12.5130   -6.4020   48.0600 C.3    38  LEU38       0.1693
     41  C         12.0520   -7.1910   49.2570 C.2    38  LEU38       0.2591
     42  O         12.3760   -8.3750   49.3660 O.2    38  LEU38      -0.2718
     43  CB        13.9080   -5.8460   48.3080 C.3    38  LEU38       0.0284
     44  CG        14.5620   -5.2130   47.0860 C.3    38  LEU38       0.0019
     45  CD1       15.8850   -4.6640   47.5220 C.3    38  LEU38       0.0001
     46  CD2       14.7270   -6.2000   45.8870 C.3    38  LEU38       0.0001
     47  N         11.2850   -6.5670   50.1370 N.am   39  ARG39      -0.1980
     48  CA        10.6390   -7.3260   51.2290 C.3    39  ARG39       0.1597
     49  C          9.5940   -8.3120   50.7120 C.2    39  ARG39       0.2287
     50  O          9.4610   -9.3990   51.2690 O.2    39  ARG39      -0.2864
     51  CB        10.0620   -6.4160   52.3090 C.3    39  ARG39       0.0334
     52  CG         9.7760   -7.0940   53.6810 C.3    39  ARG39       0.0492
     53  CD        10.8860   -8.0160   54.2150 C.3    39  ARG39       0.2205
     54  NE        12.0340   -7.2460   54.6920 N.pl3  39  ARG39      -0.0865
     55  CZ        13.2890   -7.7000   54.8000 C.cat  39  ARG39       0.5346
     56  NH1       13.6160   -8.9530   54.4710 N.pl3  39  ARG39       0.1354
     57  NH2       14.2340   -6.8750   55.2520 N.pl3  39  ARG39       0.1354
     58  N         11.6230  -11.1050   49.2360 N.3    42  ASP42      -0.1239
     59  CA        12.1750  -11.9270   50.3330 C.3    42  ASP42       0.1674
     60  C         11.1040  -12.7630   51.0570 C.2    42  ASP42       0.2266
     61  O         11.3800  -13.8310   51.5950 O.2    42  ASP42      -0.2867
     62  CB        12.9390  -11.1090   51.3570 C.3    42  ASP42       0.1410
     63  CG        13.6390  -11.9980   52.3690 C.2    42  ASP42       0.3668
     64  OD1       14.4440  -12.8850   51.9690 O.co2  42  ASP42      -0.2456
     65  OD2       13.3630  -11.8260   53.5710 O.co2  42  ASP42      -0.2456
     66  N         10.8290  -15.7670   49.1020 N.3    45  GLU45      -0.1231
     67  CA        12.0360  -16.5690   49.3310 C.3    45  GLU45       0.1699
     68  C         12.0220  -17.2750   50.6950 C.2    45  GLU45       0.2592
     69  O         12.3950  -18.4350   50.7920 O.2    45  GLU45      -0.2718
     70  CB        13.3090  -15.6920   49.2070 C.3    45  GLU45       0.0402
     71  CG        14.5830  -16.5310   49.0080 C.3    45  GLU45       0.1161
     72  CD        15.6350  -16.2440   50.0370 C.2    45  GLU45       0.3649
     73  OE1       15.2430  -15.8240   51.1380 O.co2  45  GLU45      -0.2457
     74  OE2       16.8560  -16.4270   49.7710 O.co2  45  GLU45      -0.2457
     75  N         11.5810  -16.5770   51.7390 N.am   46  ASP46      -0.1974
     76  CA        11.5580  -17.1180   53.0960 C.3    46  ASP46       0.1709
     77  C         10.4570  -18.1740   53.2730 C.2    46  ASP46       0.2293
     78  O         10.4990  -18.9880   54.1830 O.2    46  ASP46      -0.2864
     79  CB        11.3420  -15.9900   54.1050 C.3    46  ASP46       0.1436
     80  CG        12.5750  -15.1320   54.2940 C.2    46  ASP46       0.3671
     81  OD1       13.6400  -15.4540   53.7220 O.co2  46  ASP46      -0.2456
     82  OD2       12.4740  -14.1090   54.9910 O.co2  46  ASP46      -0.2456
     83  N          4.3880  -10.8810   56.7340 N.3    80  ASP80      -0.1239
     84  CA         4.3380   -9.7490   55.8080 C.3    80  ASP80       0.1674
     85  C          3.5590  -10.0370   54.5270 C.2    80  ASP80       0.2266
     86  O          3.6970   -9.2900   53.5630 O.2    80  ASP80      -0.2867
     87  CB         5.7770   -9.3320   55.4030 C.3    80  ASP80       0.1410
     88  CG         6.5890   -8.7130   56.5590 C.2    80  ASP80       0.3668
     89  OD1        6.0010   -8.3460   57.6040 O.co2  80  ASP80      -0.2456
     90  OD2        7.8270   -8.5680   56.4030 O.co2  80  ASP80      -0.2456
     91  N         18.9840  -10.1270   42.3270 N.3   112  MET112     -0.1245
     92  CA        18.7360  -10.7710   43.6180 C.3   112  MET112      0.1570
     93  C         17.9010  -12.0330   43.4400 C.2   112  MET112      0.2261
     94  O         18.1110  -13.0420   44.1410 O.2   112  MET112     -0.2867
     95  CB        18.0140   -9.7920   44.5820 C.3   112  MET112      0.0387
     96  CG        17.6110  -10.4240   45.9520 C.3   112  MET112      0.0595
     97  SD        16.9580   -9.2500   47.1860 S.3   112  MET112     -0.1393
     98  CE        18.2080   -7.9120   47.0230 C.3   112  MET112      0.0692
     99  N         18.9910  -15.5480   44.7970 N.3   116  MET116     -0.1245
    100  CA        18.1720  -16.2430   45.7580 C.3   116  MET116      0.1570
    101  C         17.8050  -17.6410   45.2180 C.2   116  MET116      0.2261
    102  O         17.8680  -18.6180   45.9490 O.2   116  MET116     -0.2867
    103  CB        16.9140  -15.4380   46.0560 C.3   116  MET116      0.0387
    104  CG        17.1120  -14.3070   47.0840 C.3   116  MET116      0.0595
    105  SD        15.5890  -13.3970   47.0810 S.3   116  MET116     -0.1393
    106  CE        15.7800  -12.3730   48.5760 C.3   116  MET116      0.0692
    107  N         26.3200  -15.3790   48.6370 N.3   133  TYR133     -0.1241
    108  CA        25.0010  -15.3220   49.2410 C.3   133  TYR133      0.1605
    109  C         24.7000  -13.9220   49.8160 C.2   133  TYR133      0.2264
    110  O         23.6770  -13.3290   49.4740 O.2   133  TYR133     -0.2867
    111  CB        24.8010  -16.4250   50.3210 C.3   133  TYR133      0.0534
    112  CG        23.5000  -16.2580   51.0700 C.ar  133  TYR133     -0.0201
    113  CD1       22.2940  -16.7390   50.5210 C.ar  133  TYR133     -0.0009
    114  CD2       23.4520  -15.5950   52.3000 C.ar  133  TYR133     -0.0009
    115  CE1       21.0950  -16.5820   51.1820 C.ar  133  TYR133      0.0417
    116  CE2       22.2590  -15.4210   52.9590 C.ar  133  TYR133      0.0417
    117  CZ        21.0770  -15.9170   52.3940 C.ar  133  TYR133      0.1957
    118  OH        19.8830  -15.7570   53.0650 O.3   133  TYR133     -0.2866
    119  N         21.6890  -11.1760   48.6380 N.3   137  VAL137     -0.1231
    120  CA        20.5270  -10.8200   49.4540 C.3   137  VAL137      0.1692
    121  C         20.6740   -9.4780   50.1710 C.2   137  VAL137      0.2591
    122  O         19.6760   -8.9270   50.6510 O.2   137  VAL137     -0.2718
    123  CB        20.0990  -11.9550   50.4870 C.3   137  VAL137      0.0266
    124  CG1       19.8760  -13.3110   49.7510 C.3   137  VAL137      0.0020
    125  CG2       21.1110  -12.1100   51.6270 C.3   137  VAL137      0.0020
    126  N         21.8970   -8.9590   50.2380 N.am  138  ALA138     -0.1980
    127  CA        22.1700   -7.7580   51.0390 C.3   138  ALA138      0.1597
    128  C         23.1060   -6.7630   50.3320 C.2   138  ALA138      0.2287
    129  O         22.8950   -5.5280   50.3630 O.2   138  ALA138     -0.2864
    130  CB        22.7590   -8.1610   52.3900 C.3   138  ALA138      0.0319
    131  N         21.2860   -4.8250   47.7700 N.3   141  VAL141     -0.1231
    132  CA        20.4650   -3.7330   48.3730 C.3   141  VAL141      0.1692
    133  C         21.3020   -2.4520   48.5200 C.2   141  VAL141      0.2592
    134  O         20.8790   -1.3580   48.1030 O.2   141  VAL141     -0.2718
    135  CB        19.8670   -4.1040   49.7400 C.3   141  VAL141      0.0266
    136  CG1       18.9550   -2.9240   50.2720 C.3   141  VAL141      0.0020
    137  CG2       19.0270   -5.3410   49.6250 C.3   141  VAL141      0.0020
    138  N         22.5070   -2.5940   49.0690 N.am  142  GLY142     -0.1957
    139  CA        23.4820   -1.4850   49.1010 C.3   142  GLY142      0.1869
    140  C         23.7270   -0.8680   47.7380 C.2   142  GLY142      0.2309
    141  O         23.7890    0.3690   47.5760 O.2   142  GLY142     -0.2863
    142  N         20.4520    0.9820   46.5230 N.3   145  LEU145     -0.1245
    143  CA        20.3130    2.2300   47.2720 C.3   145  LEU145      0.1561
    144  C         21.2980    3.2580   46.7960 C.2   145  LEU145      0.2260
    145  O         20.9250    4.4360   46.5190 O.2   145  LEU145     -0.2867
    146  CB        20.4890    1.9860   48.7830 C.3   145  LEU145      0.0270
    147  CG        19.3520    1.1890   49.3950 C.3   145  LEU145      0.0019
    148  CD1       19.8140    0.6860   50.7740 C.3   145  LEU145      0.0001
    149  CD2       18.1230    2.1090   49.5360 C.3   145  LEU145      0.0001
    150  N         28.7710   -2.5230   52.6300 N.3   169  MET169     -0.1230
    151  CA        27.7410   -2.0310   53.5330 C.3   169  MET169      0.1702
    152  C         26.6740   -3.0890   53.8300 C.2   169  MET169      0.2592
    153  O         26.2070   -3.2230   54.9810 O.2   169  MET169     -0.2718
    154  CB        27.0010   -0.8020   52.9650 C.3   169  MET169      0.0401
    155  CG        27.8590    0.4580   52.7580 C.3   169  MET169      0.0596
    156  SD        28.1700    1.3410   54.3140 S.3   169  MET169     -0.1393
    157  CE        26.5450    2.0300   54.6420 C.3   169  MET169      0.0692
    158  N         26.2170   -3.7640   52.7730 N.am  170  GLY170     -0.1957
    159  CA        25.1230   -4.7610   52.9400 C.3   170  GLY170      0.1869
    160  C         25.6630   -6.0430   53.5730 C.2   170  GLY170      0.2309
    161  O         25.0200   -6.6570   54.3840 O.2   170  GLY170     -0.2863
    162  N         25.9410   -5.6970   57.4610 N.3   173  LEU173     -0.1231
    163  CA        24.6450   -5.8060   58.1040 C.3   173  LEU173      0.1693
    164  C         24.1400   -7.2170   58.1050 C.2   173  LEU173      0.2591
    165  O         23.6090   -7.6860   59.1020 O.2   173  LEU173     -0.2718
    166  CB        23.6180   -4.8910   57.4330 C.3   173  LEU173      0.0284
    167  CG        23.8920   -3.3740   57.4880 C.3   173  LEU173      0.0019
    168  CD1       22.7270   -2.5990   56.7560 C.3   173  LEU173      0.0001
    169  CD2       24.0010   -2.9570   58.9780 C.3   173  LEU173      0.0001
    170  N         24.2530   -7.8800   56.9540 N.am  174  GLN174     -0.1979
    171  CA        23.6880   -9.2140   56.8060 C.3   174  GLN174      0.1601
    172  C         24.4820  -10.2550   57.5940 C.2   174  GLN174      0.2287
    173  O         23.9000  -11.1500   58.1720 O.2   174  GLN174     -0.2864
    174  CB        23.6200   -9.6160   55.3120 C.3   174  GLN174      0.0394
    175  CG        23.1050  -11.0480   55.0780 C.3   174  GLN174      0.0908
    176  CD        21.6010  -11.1690   55.2410 C.2   174  GLN174      0.2608
    177  OE1       20.9060  -10.1860   55.4040 O.2   174  GLN174     -0.2717
    178  NE2       21.0960  -12.4010   55.1720 N.am  174  GLN174     -0.0878
    179  N         23.6260   -9.9530   61.3220 N.3   177  ASN177     -0.1240
    180  CA        22.3150  -10.5380   61.5100 C.3   177  ASN177      0.1653
    181  C         22.4510  -12.0650   61.5550 C.2   177  ASN177      0.2266
    182  O         21.9670  -12.6860   62.4790 O.2   177  ASN177     -0.2867
    183  CB        21.4200  -10.0540   60.3440 C.3   177  ASN177      0.1155
    184  CG        19.9750  -10.3390   60.5360 C.2   177  ASN177      0.2627
    185  OD1       19.3290   -9.7780   61.4130 O.2   177  ASN177     -0.2716
    186  ND2       19.4170  -11.1560   59.6540 N.am  177  ASN177     -0.0877
    187  N         22.8240  -20.8370   57.9390 N.3   192  PHE192     -0.1241
    188  CA        23.4420  -19.7740   57.1680 C.3   192  PHE192      0.1605
    189  C         24.9230  -19.5650   57.4920 C.2   192  PHE192      0.2264
    190  O         25.6290  -18.8800   56.7460 O.2   192  PHE192     -0.2867
    191  CB        22.6770  -18.4480   57.3280 C.3   192  PHE192      0.0534
    192  CG        21.3170  -18.4450   56.6970 C.ar  192  PHE192     -0.0203
    193  CD1       20.1820  -18.1630   57.4560 C.ar  192  PHE192     -0.0042
    194  CD2       21.1730  -18.7220   55.3390 C.ar  192  PHE192     -0.0042
    195  CE1       18.9030  -18.1470   56.8660 C.ar  192  PHE192     -0.0003
    196  CE2       19.9250  -18.7330   54.7280 C.ar  192  PHE192     -0.0003
    197  CZ        18.7650  -18.4490   55.4820 C.ar  192  PHE192     -0.0000
    198  N         32.7430    4.3070   52.6170 N.3   238  TYR238     -0.1241
    199  CA        31.4600    4.5450   52.0090 C.3   238  TYR238      0.1605
    200  C         30.7820    5.7720   52.6620 C.2   238  TYR238      0.2264
    201  O         30.3000    6.7080   51.9780 O.2   238  TYR238     -0.2867
    202  CB        30.5340    3.2930   52.1570 C.3   238  TYR238      0.0534
    203  CG        29.1930    3.4960   51.4740 C.ar  238  TYR238     -0.0201
    204  CD1       28.1380    4.1130   52.1430 C.ar  238  TYR238     -0.0009
    205  CD2       28.9910    3.0910   50.1250 C.ar  238  TYR238     -0.0009
    206  CE1       26.8970    4.3200   51.5200 C.ar  238  TYR238      0.0417
    207  CE2       27.7430    3.2930   49.4840 C.ar  238  TYR238      0.0417
    208  CZ        26.7100    3.9070   50.1870 C.ar  238  TYR238      0.1957
    209  OH        25.4950    4.1460   49.5720 O.3   238  TYR238     -0.2866
    210  N         20.5320    7.8360   57.0620 N.3   250  PHE250     -0.1227
    211  CA        19.9690    6.6010   56.4940 C.3   250  PHE250      0.1736
    212  C         20.9940    5.4770   56.4370 C.2   250  PHE250      0.2595
    213  O         20.7070    4.3340   56.7840 O.2   250  PHE250     -0.2718
    214  CB        19.3670    6.8470   55.0820 C.3   250  PHE250      0.0547
    215  CG        18.8060    5.5950   54.4280 C.ar  250  PHE250     -0.0202
    216  CD1       19.5160    4.9440   53.4290 C.ar  250  PHE250     -0.0042
    217  CD2       17.5810    5.0600   54.8240 C.ar  250  PHE250     -0.0042
    218  CE1       18.9910    3.7870   52.7890 C.ar  250  PHE250     -0.0003
    219  CE2       17.0670    3.8750   54.2190 C.ar  250  PHE250     -0.0003
    220  CZ        17.7830    3.2500   53.2050 C.ar  250  PHE250     -0.0000
    221  N         22.1970    5.8240   56.0550 N.am  251  CYS251     -0.1970
    222  CA        23.2160    4.8340   55.8470 C.3   251  CYS251      0.1712
    223  C         23.9560    4.5120   57.1380 C.2   251  CYS251      0.2296
    224  O         24.2130    3.3410   57.4050 O.2   251  CYS251     -0.2864
    225  CB        24.1800    5.2980   54.7630 C.3   251  CYS251      0.0983
    226  SG        23.4190    5.3540   53.0860 S.3   251  CYS251     -0.0798
    227  N         22.0800    2.0710   60.3660 N.3   254  PRO254     -0.2102
    228  CA        22.0610    0.6390   60.4970 C.3   254  PRO254      0.1504
    229  C         23.4670    0.1660   60.7870 C.2   254  PRO254      0.2575
    230  O         23.6070   -0.7850   61.5530 O.2   254  PRO254     -0.2718
    231  CB        21.5710    0.1280   59.1150 C.3   254  PRO254      0.0282
    232  CG        20.9110    1.3180   58.4720 C.3   254  PRO254      0.0208
    233  CD        21.6890    2.5060   59.0050 C.3   254  PRO254      0.0893
    234  N         24.4930    0.8580   60.2560 N.am  255  GLN255     -0.1980
    235  CA        25.8700    0.4330   60.5020 C.3   255  GLN255      0.1601
    236  C         26.2380    0.5180   61.9780 C.2   255  GLN255      0.2287
    237  O         26.8000   -0.4270   62.5310 O.2   255  GLN255     -0.2864
    238  CB        26.8750    1.2060   59.6260 C.3   255  GLN255      0.0394
    239  CG        26.5510    1.0560   58.1100 C.3   255  GLN255      0.0908
    240  CD        26.7860   -0.3630   57.6320 C.2   255  GLN255      0.2608
    241  OE1       27.7460   -1.0410   58.0870 O.2   255  GLN255     -0.2717
    242  NE2       25.9320   -0.8320   56.7240 N.am  255  GLN255     -0.0878
@<TRIPOS>BOND
     1    91    92    1
     2    93    92    1
     3    93    94    2
     4    92    95    1
     5    95    96    1
     6    99   100    1
     7   101   100    1
     8   101   102    2
     9    25    23   ar
    10    25    26   ar
    11    23    21   ar
    12   100   103    1
    13    26    24   ar
    14    46    44    1
    15    96    97    1
    16   103   104    1
    17    21    20    1
    18    21    22   ar
    19   145   144    2
    20   142   143    1
    21    24    22   ar
    22   144   143    1
    23    20    17    1
    24    17    16    1
    25    17    18    1
    26    98    97    1
    27   105   104    1
    28   105   106    1
    29    44    45    1
    30    44    43    1
    31   143   146    1
    32   141   140    2
    33    39    40    1
    34   140   139    1
    35   131   132    1
    36     9    10    1
    37    19    18    2
    38    18    27   am
    39    40    43    1
    40    40    41    1
    41   134   133    2
    42   132   133    1
    43   132   135    1
    44   133   138   am
    45   107   108    1
    46   119   120    1
    47    10    11    1
    48    10    13    1
    49   146   147    1
    50    71    70    1
    51    71    72    1
    52    15    13    1
    53   138   139    1
    54    66    67    1
    55    27    28    1
    56    70    67    1
    57    58    59    1
    58   108   109    1
    59   108   111    1
    60    41    42    2
    61    41    47   am
    62    67    68    1
    63   147   149    1
    64   147   148    1
    65   120   121    1
    66   120   123    1
    67    11    12    2
    68   110   109    2
    69   207   205   ar
    70   207   208   ar
    71   209   208    1
    72   137   135    1
    73    13    14    1
    74   135   136    1
    75   124   123    1
    76    74    72   ar
    77    72    73   ar
    78   205   203   ar
    79    47    48    1
    80   121   126   am
    81   121   122    2
    82   208   206   ar
    83   126   127    1
    84    29    28    1
    85    29    30    2
    86   111   112    1
    87   128   129    2
    88   128   127    1
    89    59    60    1
    90    59    62    1
    91    28    31    1
    92   123   125    1
    93   113   112   ar
    94   113   115   ar
    95    68    69    2
    96    68    75   am
    97    49    48    1
    98    49    50    2
    99   127   130    1
   100    60    61    2
   101   112   114   ar
   102   115   117   ar
   103    48    51    1
   104    62    63    1
   105   203   204   ar
   106   203   202    1
   107   206   204   ar
   108    31    32    1
   109    75    76    1
   110    64    63   ar
   111   201   200    2
   112   199   202    1
   113   199   198    1
   114   199   200    1
   115   114   116   ar
   116    51    52    1
   117    63    65   ar
   118   117   116   ar
   119   117   118    1
   120   150   151    1
   121   155   154    1
   122   155   156    1
   123   158   159    1
   124   158   152   am
   125   218   220   ar
   126   218   216   ar
   127    32    33   ar
   128    32    34   ar
   129   159   160    1
   130   154   151    1
   131   226   225    1
   132    76    77    1
   133    76    79    1
   134   220   219   ar
   135    77    78    2
   136    33    35   ar
   137     7     5    1
   138   216   215   ar
   139    34    36   ar
   140   151   152    1
   141    86    85    2
   142   160   161    2
   143    52    53    1
   144    81    80   ar
   145   152   153    2
   146     4     3    2
   147    79    80    1
   148    53    54    1
   149   219   217   ar
   150    80    82   ar
   151   156   157    1
   152     8     6    1
   153    35    37   ar
   154   215   217   ar
   155   215   214    1
   156    56    55    1
   157    85    84    1
   158     6     5    1
   159    36    37   ar
   160     5     2    1
   161    54    55    2
   162   196   194   ar
   163   196   197   ar
   164   225   222    1
   165    55    57    1
   166     3     2    1
   167    37    38    1
   168   175   176    1
   169   175   174    1
   170   214   211    1
   171     2     1    1
   172   178   176   am
   173   176   177    2
   174   174   171    1
   175   194   192   ar
   176    87    84    1
   177    87    88    1
   178   197   195   ar
   179    84    83    1
   180   222   221    1
   181   222   223    1
   182   221   212   am
   183    90    88   ar
   184   212   211    1
   185   212   213    2
   186   211   210    1
   187    88    89   ar
   188   192   191    1
   189   192   193   ar
   190   242   240   am
   191   190   189    2
   192   168   167    1
   193   171   170    1
   194   171   172    1
   195   195   193   ar
   196   170   164   am
   197   223   224    2
   198   188   191    1
   199   188   189    1
   200   188   187    1
   201   166   167    1
   202   166   163    1
   203   162   163    1
   204   167   169    1
   205   172   173    2
   206   240   241    2
   207   240   239    1
   208   163   164    1
   209   164   165    2
   210   239   238    1
   211   232   233    1
   212   232   231    1
   213   233   227    1
   214   231   228    1
   215   238   235    1
   216   186   184   am
   217   234   235    1
   218   234   229   am
   219   183   184    1
   220   183   180    1
   221   227   228    1
   222   228   229    1
   223   235   236    1
   224   184   185    2
   225   229   230    2
   226   179   180    1
   227   180   181    1
   228   181   182    2
   229   236   237    2
