@<TRIPOS>MOLECULE
tmp/3q31B01.pdb
 106 101 0 0 0
SMALL
GASTEIGER

@<TRIPOS>ATOM
      1  N         12.1590  -27.5960  -11.2430 N.3    63  LEU63      -0.1245
      2  CA        10.7610  -28.0300  -11.2680 C.3    63  LEU63       0.1561
      3  C          9.8280  -27.2520  -10.3560 C.2    63  LEU63       0.2260
      4  O          8.6240  -27.2120  -10.6130 O.2    63  LEU63      -0.2867
      5  CB        10.6540  -29.4940  -10.8640 C.3    63  LEU63       0.0270
      6  CG        11.2090  -30.5000  -11.8650 C.3    63  LEU63       0.0019
      7  CD1       10.8520  -31.9120  -11.4390 C.3    63  LEU63       0.0001
      8  CD2       10.6820  -30.1980  -13.2840 C.3    63  LEU63       0.0001
      9  N         15.6400  -31.4830  -11.9150 N.3    68  GLN68      -0.1245
     10  CA        15.6660  -32.5400  -12.9190 C.3    68  GLN68       0.1566
     11  C         16.5480  -32.2090  -14.1250 C.2    68  GLN68       0.2260
     12  O         16.5480  -31.0870  -14.6560 O.2    68  GLN68      -0.2867
     13  CB        14.2460  -32.8250  -13.3970 C.3    68  GLN68       0.0367
     14  CG        14.1400  -33.9300  -14.4160 C.3    68  GLN68       0.0905
     15  CD        12.6910  -34.3000  -14.7130 C.2    68  GLN68       0.2608
     16  OE1       11.8160  -34.1630  -13.8570 O.2    68  GLN68      -0.2717
     17  NE2       12.4340  -34.7750  -15.9250 N.am   68  GLN68      -0.0878
     18  N         14.9790  -39.0740  -18.1380 N.3    87  GLN87      -0.1245
     19  CA        15.4860  -37.9880  -17.2880 C.3    87  GLN87       0.1566
     20  C         16.0100  -38.5390  -15.9490 C.2    87  GLN87       0.2260
     21  O         15.7080  -39.6770  -15.5790 O.2    87  GLN87      -0.2867
     22  CB        14.3840  -36.9590  -17.0340 C.3    87  GLN87       0.0367
     23  CG        13.0270  -37.5710  -16.6300 C.3    87  GLN87       0.0905
     24  CD        12.8320  -37.7530  -15.1120 C.2    87  GLN87       0.2608
     25  OE1       13.6120  -37.2460  -14.2970 O.2    87  GLN87      -0.2717
     26  NE2       11.7850  -38.4870  -14.7370 N.am   87  GLN87      -0.0878
     27  N         16.5640  -37.1720  -11.6450 N.3    89  HIS89      -0.1241
     28  CA        16.2470  -36.0910  -10.7270 C.3    89  HIS89       0.1621
     29  C         16.5160  -36.4370   -9.2530 C.2    89  HIS89       0.2264
     30  O         16.9340  -37.5480   -8.9070 O.2    89  HIS89      -0.2867
     31  CB        14.8040  -35.6600  -10.9340 C.3    89  HIS89       0.0745
     32  CG        13.8200  -36.6920  -10.5010 C.ar   89  HIS89       0.0817
     33  ND1       13.5490  -37.8130  -11.2510 N.ar   89  HIS89      -0.2268
     34  CD2       13.0710  -36.7930   -9.3800 C.ar   89  HIS89       0.1154
     35  CE1       12.6630  -38.5570  -10.6150 C.ar   89  HIS89       0.1986
     36  NE2       12.3550  -37.9570   -9.4790 N.ar   89  HIS89      -0.2212
     37  N         15.7710  -36.0250   -4.9220 N.3    91  HIS91      -0.1241
     38  CA        14.8990  -35.8550   -3.7820 C.3    91  HIS91       0.1621
     39  C         15.7470  -35.6200   -2.5590 C.2    91  HIS91       0.2264
     40  O         16.8060  -36.2390   -2.3650 O.2    91  HIS91      -0.2867
     41  CB        14.0850  -37.1020   -3.5370 C.3    91  HIS91       0.0745
     42  CG        13.0950  -37.3930   -4.6090 C.ar   91  HIS91       0.0817
     43  ND1       11.8490  -36.8090   -4.6440 N.ar   91  HIS91      -0.2268
     44  CD2       13.1630  -38.2100   -5.6870 C.ar   91  HIS91       0.1154
     45  CE1       11.1860  -37.2600   -5.6950 C.ar   91  HIS91       0.1986
     46  NE2       11.9610  -38.1100   -6.3450 N.ar   91  HIS91      -0.2212
     47  N         17.0160  -40.3370   -8.8660 N.3   108  HIS108     -0.1241
     48  CA        16.1820  -41.2310   -9.6260 C.3   108  HIS108      0.1621
     49  C         16.4820  -41.0870  -11.1050 C.2   108  HIS108      0.2264
     50  O         16.2950  -40.0160  -11.6920 O.2   108  HIS108     -0.2867
     51  CB        14.7150  -40.9040   -9.3800 C.3   108  HIS108      0.0745
     52  CG        14.2250  -41.3220   -8.0310 C.ar  108  HIS108      0.0817
     53  ND1       13.0870  -40.8000   -7.4600 N.ar  108  HIS108     -0.2268
     54  CD2       14.7230  -42.2080   -7.1340 C.ar  108  HIS108      0.1154
     55  CE1       12.8960  -41.3590   -6.2800 C.ar  108  HIS108      0.1986
     56  NE2       13.8740  -42.2170   -6.0570 N.ar  108  HIS108     -0.2212
     57  N         15.1270  -42.2910  -14.4800 N.3   110  VAL110     -0.1245
     58  CA        13.8830  -42.8410  -15.0100 C.3   110  VAL110      0.1561
     59  C         13.9740  -43.3260  -16.4720 C.2   110  VAL110      0.2260
     60  O         14.3220  -42.5680  -17.3910 O.2   110  VAL110     -0.2867
     61  CB        12.7550  -41.8230  -14.8980 C.3   110  VAL110      0.0252
     62  CG1       11.4380  -42.4960  -15.2550 C.3   110  VAL110      0.0019
     63  CG2       12.7310  -41.2160  -13.4860 C.3   110  VAL110      0.0019
     64  N         13.2430  -47.7590  -12.7050 N.3   120  VAL120     -0.1245
     65  CA        14.0970  -46.7310  -12.1030 C.3   120  VAL120      0.1561
     66  C         15.4290  -47.2750  -11.6020 C.2   120  VAL120      0.2260
     67  O         15.5200  -48.4060  -11.0890 O.2   120  VAL120     -0.2867
     68  CB        13.4340  -46.0470  -10.8960 C.3   120  VAL120      0.0252
     69  CG1       14.3710  -45.0250  -10.3260 C.3   120  VAL120      0.0019
     70  CG2       12.1050  -45.4060  -11.2810 C.3   120  VAL120      0.0019
     71  N          5.4270  -45.0190   -9.0570 N.3   180  LEU180     -0.1231
     72  CA         5.9610  -43.6680   -9.1130 C.3   180  LEU180      0.1693
     73  C          5.7550  -42.9840   -7.7750 C.2   180  LEU180      0.2593
     74  O          4.7110  -43.1530   -7.1480 O.2   180  LEU180     -0.2718
     75  CB         5.2090  -42.8640  -10.1620 C.3   180  LEU180      0.0284
     76  CG         5.2700  -43.3630  -11.6070 C.3   180  LEU180      0.0019
     77  CD1        4.7760  -42.2860  -12.5390 C.3   180  LEU180      0.0001
     78  CD2        6.6830  -43.7280  -11.9550 C.3   180  LEU180      0.0001
     79  N          6.7280  -42.1950   -7.3420 N.am  181  THR181     -0.1939
     80  CA         6.5900  -41.5130   -6.0610 C.3   181  THR181      0.2028
     81  C          5.9760  -40.1420   -6.2560 C.2   181  THR181      0.2642
     82  O          5.9600  -39.3250   -5.3370 O.2   181  THR181     -0.2714
     83  CB         7.9300  -41.3670   -5.3340 C.3   181  THR181      0.1808
     84  OG1        8.8320  -40.5950   -6.1510 O.3   181  THR181     -0.2208
     85  CG2        8.5060  -42.7410   -5.0570 C.3   181  THR181      0.0379
     86  N          5.4760  -39.8880   -7.4590 N.am  182  THR182     -0.1950
     87  CA         4.7210  -38.6730   -7.7230 C.3   182  THR182      0.1897
     88  C          3.4730  -39.0650   -8.4880 C.2   182  THR182      0.2313
     89  O          3.4180  -40.1450   -9.0920 O.2   182  THR182     -0.2863
     90  CB         5.5240  -37.6730   -8.5480 C.3   182  THR182      0.1794
     91  OG1        6.1190  -38.3440   -9.6740 O.3   182  THR182     -0.2208
     92  CG2        6.6070  -37.0660   -7.7080 C.3   182  THR182      0.0378
     93  N         11.8560  -51.1570   -9.5900 N.3   191  TRP191     -0.1241
     94  CA        12.7700  -50.3980   -8.7350 C.3   191  TRP191      0.1605
     95  C         14.1190  -51.0810   -8.5740 C.2   191  TRP191      0.2264
     96  O         14.2120  -52.2600   -8.1930 O.2   191  TRP191     -0.2867
     97  CB        12.1280  -50.0880   -7.3720 C.3   191  TRP191      0.0550
     98  CG        11.2850  -48.8310   -7.4050 C.ar  191  TRP191      0.0003
     99  CD1        9.9240  -48.7420   -7.6080 C.ar  191  TRP191      0.0946
    100  CD2       11.7550  -47.4800   -7.2590 C.ar  191  TRP191      0.0152
    101  NE1        9.5260  -47.4190   -7.5760 N.ar  191  TRP191     -0.2442
    102  CE2       10.6260  -46.6270   -7.3680 C.ar  191  TRP191      0.0810
    103  CE3       13.0160  -46.9120   -7.0250 C.ar  191  TRP191      0.0012
    104  CZ2       10.7270  -45.2320   -7.2590 C.ar  191  TRP191      0.0191
    105  CZ3       13.1170  -45.5280   -6.9150 C.ar  191  TRP191      0.0001
    106  CH2       11.9790  -44.7020   -7.0380 C.ar  191  TRP191      0.0015
@<TRIPOS>BOND
     1    18    19    1
     2    60    59    2
     3    19    22    1
     4    19    20    1
     5    22    23    1
     6    23    24    1
     7    59    58    1
     8    20    21    2
     9    17    15   am
    10    62    61    1
    11    24    26   am
    12    24    25    2
    13    58    61    1
    14    58    57    1
    15    61    63    1
    16    15    14    1
    17    15    16    2
    18    12    11    2
    19    14    13    1
    20    11    10    1
    21    13    10    1
    22     8     6    1
    23    10     9    1
    24    64    65    1
    25    77    76    1
    26    65    66    1
    27    65    68    1
    28    78    76    1
    29     6     7    1
    30     6     5    1
    31    50    49    2
    32    27    28    1
    33    76    75    1
    34    66    67    2
    35    70    68    1
    36     2     1    1
    37     2     5    1
    38     2     3    1
    39    33    35   ar
    40    33    32   ar
    41    49    48    1
    42    31    28    1
    43    31    32    1
    44    68    69    1
    45    28    29    1
    46    35    36   ar
    47     4     3    2
    48    32    34   ar
    49    75    72    1
    50    91    90    1
    51    48    51    1
    52    48    47    1
    53    93    94    1
    54    36    34   ar
    55    51    52    1
    56    29    30    2
    57    72    71    1
    58    72    73    1
    59    89    88    2
    60    94    95    1
    61    94    97    1
    62    95    96    2
    63    90    87    1
    64    90    92    1
    65    88    87    1
    66    52    53   ar
    67    52    54   ar
    68    73    79   am
    69    73    74    2
    70    87    86    1
    71    99   101   ar
    72    99    98   ar
    73   101   102   ar
    74    53    55   ar
    75    86    81   am
    76    98    97    1
    77    98   100   ar
    78   102   100   ar
    79   102   104   ar
    80    79    80    1
    81   100   103   ar
    82   104   106   ar
    83    54    56   ar
    84   106   105   ar
    85   103   105   ar
    86    46    45   ar
    87    46    44   ar
    88    55    56   ar
    89    81    80    1
    90    81    82    2
    91    84    83    1
    92    80    83    1
    93    45    43   ar
    94    44    42   ar
    95    83    85    1
    96    37    38    1
    97    43    42   ar
    98    42    41    1
    99    38    41    1
   100    38    39    1
   101    39    40    2
