@<TRIPOS>MOLECULE
tmp/3q32A00.pdb
 196 189 0 0 0
SMALL
GASTEIGER

@<TRIPOS>ATOM
      1  N         -6.8220   51.6770    8.9360 N.3    14  GLN14      -0.1245
      2  CA        -5.3730   51.6530    8.7930 C.3    14  GLN14       0.1566
      3  C         -4.9370   51.8570    7.3460 C.2    14  GLN14       0.2260
      4  O         -5.6130   51.3740    6.4330 O.2    14  GLN14      -0.2867
      5  CB        -4.8830   50.2660    9.2410 C.3    14  GLN14       0.0367
      6  CG        -3.4070   50.1790    9.5600 C.3    14  GLN14       0.0905
      7  CD        -2.9850   48.7450    9.5990 C.2    14  GLN14       0.2608
      8  OE1       -3.6530   47.8930   10.1950 O.2    14  GLN14      -0.2717
      9  NE2       -1.8710   48.4470    8.9520 N.am   14  GLN14      -0.0878
     10  N         -2.4900   50.6870    4.3630 N.3    16  LEU16      -0.1231
     11  CA        -1.8490   49.3970    4.0690 C.3    16  LEU16       0.1693
     12  C         -0.6540   49.5970    3.2040 C.2    16  LEU16       0.2593
     13  O          0.3860   49.0130    3.4700 O.2    16  LEU16      -0.2718
     14  CB        -2.8150   48.3490    3.4430 C.3    16  LEU16       0.0284
     15  CG        -4.0170   47.9130    4.2940 C.3    16  LEU16       0.0019
     16  CD1       -5.0490   47.2050    3.4570 C.3    16  LEU16       0.0001
     17  CD2       -3.6020   47.0330    5.4440 C.3    16  LEU16       0.0001
     18  N         -0.8020   50.4250    2.1860 N.am   17  GLY17      -0.1942
     19  CA         0.2720   50.7050    1.2560 C.3    17  GLY17       0.2014
     20  C          0.1760   52.0560    0.6030 C.2    17  GLY17       0.2639
     21  O         -0.9110   52.6120    0.4590 O.2    17  GLY17      -0.2714
     22  N          1.3390   52.5720    0.2020 N.am   18  LYS18      -0.1963
     23  CA         1.5070   53.8370   -0.4820 C.3    18  LYS18       0.1728
     24  C          2.2000   53.5830   -1.8100 C.2    18  LYS18       0.2616
     25  O          3.0590   52.7050   -1.9120 O.2    18  LYS18      -0.2715
     26  CB         2.3290   54.8050    0.3880 C.3    18  LYS18       0.0311
     27  CG         1.7210   56.2050    0.4890 C.3    18  LYS18       0.0038
     28  CD         2.1020   56.8950    1.7950 C.3    18  LYS18       0.0206
     29  CE         1.3960   58.2210    1.9800 C.3    18  LYS18       0.1093
     30  NZ         1.5040   58.7180    3.3790 N.3    18  LYS18      -0.1314
     31  N          1.7850   54.3250   -2.8200 N.am   19  GLY19      -0.1955
     32  CA         2.3620   54.2940   -4.1560 C.3    19  GLY19       0.1869
     33  C          2.9010   55.6690   -4.4970 C.2    19  GLY19       0.2309
     34  O          2.8510   56.5880   -3.6620 O.2    19  GLY19      -0.2863
     35  N          1.6000   57.5510   -6.9080 N.3    21  PHE21      -0.1227
     36  CA         0.3810   58.2660   -7.2650 C.3    21  PHE21       0.1740
     37  C         -0.9100   57.9100   -6.4500 C.2    21  PHE21       0.2635
     38  O         -1.9960   58.3790   -6.8030 O.2    21  PHE21      -0.2714
     39  CB         0.1670   58.1460   -8.8050 C.3    21  PHE21       0.0548
     40  CG        -0.0860   56.7770   -9.4400 C.ar   21  PHE21      -0.0202
     41  CD1        0.3070   55.5990   -8.8000 C.ar   21  PHE21      -0.0042
     42  CD2       -0.6920   56.6720  -10.6930 C.ar   21  PHE21      -0.0042
     43  CE1        0.0680   54.3430   -9.3910 C.ar   21  PHE21      -0.0003
     44  CE2       -0.9250   55.4170  -11.2840 C.ar   21  PHE21      -0.0003
     45  CZ        -0.5430   54.2630  -10.6300 C.ar   21  PHE21      -0.0000
     46  N         -0.7800   57.1050   -5.3860 N.am   22  GLY22      -0.1718
     47  CA        -1.9140   56.6850   -4.5540 C.2    22  GLY22       0.1480
     48  C         -1.6360   55.8490   -3.3060 C.2    22  GLY22       0.2821
     49  O         -0.4840   55.7080   -2.8780 O.2    22  GLY22      -0.2669
     50  N         -2.7180   55.3190   -2.6780 N.am   23  SER23      -0.1901
     51  CA        -2.6430   54.5000   -1.4530 C.3    23  SER23       0.2058
     52  C         -3.7940   53.4750   -1.3100 C.2    23  SER23       0.2643
     53  O         -4.8070   53.5680   -2.0070 O.2    23  SER23      -0.2714
     54  CB        -2.5500   55.3830   -0.2050 C.3    23  SER23       0.2130
     55  OG        -3.7920   55.9860    0.1160 O.3    23  SER23      -0.2179
     56  N         -3.6180   52.5030   -0.4010 N.am   24  VAL24      -0.1977
     57  CA        -4.5790   51.4380   -0.0830 C.3    24  VAL24       0.1596
     58  C         -4.7950   51.4340    1.4150 C.2    24  VAL24       0.2287
     59  O         -3.8320   51.3870    2.1890 O.2    24  VAL24      -0.2864
     60  CB        -4.1710   50.0250   -0.6160 C.3    24  VAL24       0.0276
     61  CG1       -5.1760   48.9580   -0.1870 C.3    24  VAL24       0.0022
     62  CG2       -4.0810   50.0300   -2.1310 C.3    24  VAL24       0.0022
     63  N        -10.9590   46.8050    1.4380 N.3    41  ALA41      -0.1245
     64  CA        -9.7370   47.4730    1.0130 C.3    41  ALA41       0.1562
     65  C        -10.1520   48.6340    0.0920 C.2    41  ALA41       0.2260
     66  O        -10.9740   48.4620   -0.8130 O.2    41  ALA41      -0.2867
     67  CB        -8.8230   46.5100    0.2800 C.3    41  ALA41       0.0290
     68  N         -8.6660   51.6730   -2.3410 N.3    43  LYS43      -0.1245
     69  CA        -7.5640   52.2810   -3.0550 C.3    43  LYS43       0.1561
     70  C         -8.0030   53.6920   -3.4710 C.2    43  LYS43       0.2260
     71  O         -9.1220   53.8830   -3.9550 O.2    43  LYS43      -0.2867
     72  CB        -7.1490   51.4400   -4.2770 C.3    43  LYS43       0.0271
     73  CG        -5.8340   51.8940   -4.8700 C.3    43  LYS43       0.0035
     74  CD        -5.4010   51.1040   -6.0720 C.3    43  LYS43       0.0206
     75  CE        -4.2430   51.8270   -6.7220 C.3    43  LYS43       0.1093
     76  NZ        -3.7240   51.0890   -7.8870 N.3    43  LYS43      -0.1314
     77  N         -7.9370   39.6860   -7.0700 N.3    72  VAL72      -0.1245
     78  CA        -8.6420   40.3900   -5.9950 C.3    72  VAL72       0.1561
     79  C        -10.0430   40.8160   -6.4680 C.2    72  VAL72       0.2260
     80  O        -10.1730   41.3180   -7.5800 O.2    72  VAL72      -0.2867
     81  CB        -7.8110   41.5790   -5.4080 C.3    72  VAL72       0.0252
     82  CG1       -7.5640   42.6890   -6.4530 C.3    72  VAL72       0.0019
     83  CG2       -8.4490   42.1370   -4.1380 C.3    72  VAL72       0.0019
     84  N        -12.3310   47.2000   -2.8610 N.3    90  MET90      -0.1230
     85  CA       -11.9530   45.8010   -3.0890 C.3    90  MET90       0.1702
     86  C        -12.1420   44.9800   -1.8310 C.2    90  MET90       0.2592
     87  O        -12.3220   45.5230   -0.7190 O.2    90  MET90      -0.2718
     88  CB       -10.4900   45.6980   -3.5440 C.3    90  MET90       0.0401
     89  CG       -10.2470   46.2740   -4.9230 C.3    90  MET90       0.0596
     90  SD        -8.4940   46.6500   -5.2390 S.3    90  MET90      -0.1393
     91  CE        -8.2360   48.0180   -4.1380 C.3    90  MET90       0.0692
     92  N        -12.1080   43.6550   -1.9950 N.am   91  GLU91      -0.1966
     93  CA       -12.2040   42.7530   -0.8380 C.3    91  GLU91       0.1733
     94  C        -10.8940   42.8580   -0.0070 C.2    91  GLU91       0.2616
     95  O         -9.8200   43.1380   -0.5610 O.2    91  GLU91      -0.2715
     96  CB       -12.4560   41.3130   -1.2930 C.3    91  GLU91       0.0429
     97  CG       -11.2560   40.6610   -1.9480 C.3    91  GLU91       0.1163
     98  CD       -11.4630   39.2480   -2.4370 C.2    91  GLU91       0.3649
     99  OE1      -12.3000   38.5270   -1.8460 O.co2  91  GLU91      -0.2457
    100  OE2      -10.7870   38.8650   -3.4200 O.co2  91  GLU91      -0.2457
    101  N        -10.9980   42.6410    1.3080 N.am   92  TYR92      -0.1960
    102  CA        -9.8420   42.6710    2.1900 C.3    92  TYR92       0.1771
    103  C         -9.2480   41.2580    2.2910 C.2    92  TYR92       0.2619
    104  O         -9.9520   40.3120    2.6870 O.2    92  TYR92      -0.2715
    105  CB       -10.2460   43.2120    3.5860 C.3    92  TYR92       0.0574
    106  CG        -9.1130   43.2100    4.5960 C.ar   92  TYR92      -0.0198
    107  CD1       -8.0820   44.1440    4.5180 C.ar   92  TYR92      -0.0009
    108  CD2       -9.0980   42.3080    5.6590 C.ar   92  TYR92      -0.0009
    109  CE1       -7.0380   44.1470    5.4410 C.ar   92  TYR92       0.0417
    110  CE2       -8.0740   42.3260    6.6140 C.ar   92  TYR92       0.0417
    111  CZ        -7.0380   43.2360    6.4880 C.ar   92  TYR92       0.1957
    112  OH        -6.0200   43.2730    7.4080 O.3    92  TYR92      -0.2866
    113  N         -7.9640   41.1060    1.9050 N.am   93  LEU93      -0.1964
    114  CA        -7.2750   39.8050    2.0060 C.3    93  LEU93       0.1713
    115  C         -6.4220   39.8810    3.2220 C.2    93  LEU93       0.2458
    116  O         -5.5810   40.7670    3.3310 O.2    93  LEU93      -0.2730
    117  CB        -6.5490   39.3440    0.7310 C.3    93  LEU93       0.0310
    118  CG        -7.4670   39.1900   -0.5130 C.3    93  LEU93       0.0022
    119  CD1       -6.6860   38.6160   -1.7210 C.3    93  LEU93       0.0001
    120  CD2       -8.6960   38.3090   -0.2230 C.3    93  LEU93       0.0001
    121  N         -6.7500   39.0530    4.2250 N.am   94  PRO94      -0.2716
    122  CA        -6.1360   39.2290    5.5520 C.3    94  PRO94       0.1536
    123  C         -4.6600   38.9480    5.7730 C.2    94  PRO94       0.2599
    124  O         -4.1520   39.4320    6.7770 O.2    94  PRO94      -0.2715
    125  CB        -7.0240   38.3810    6.4640 C.3    94  PRO94       0.0310
    126  CG        -7.5430   37.3120    5.5640 C.3    94  PRO94       0.0237
    127  CD        -7.7780   37.9920    4.2430 C.3    94  PRO94       0.0939
    128  N         -3.9790   38.1470    4.9090 N.am   95  TYR95      -0.1960
    129  CA        -2.5750   37.7910    5.1660 C.3    95  TYR95       0.1771
    130  C         -1.5630   38.7220    4.5290 C.2    95  TYR95       0.2620
    131  O         -0.3700   38.3900    4.4560 O.2    95  TYR95      -0.2715
    132  CB        -2.3090   36.3170    4.8170 C.3    95  TYR95       0.0574
    133  CG        -2.9560   35.3330    5.7630 C.ar   95  TYR95      -0.0198
    134  CD1       -2.2470   34.7990    6.8420 C.ar   95  TYR95      -0.0009
    135  CD2       -4.2810   34.9460    5.5980 C.ar   95  TYR95      -0.0009
    136  CE1       -2.8550   33.9250    7.7490 C.ar   95  TYR95       0.0417
    137  CE2       -4.9030   34.0840    6.5010 C.ar   95  TYR95       0.0417
    138  CZ        -4.1800   33.5570    7.5650 C.ar   95  TYR95       0.1957
    139  OH        -4.7840   32.6730    8.4310 O.3    95  TYR95      -0.2866
    140  N         -2.0390   39.8810    4.0780 N.am   96  GLY96      -0.1940
    141  CA        -1.2230   40.8870    3.4090 C.3    96  GLY96       0.2014
    142  C         -0.6300   40.4930    2.0650 C.2    96  GLY96       0.2639
    143  O         -1.0530   39.5020    1.4530 O.2    96  GLY96      -0.2714
    144  N          0.3730   41.2790    1.5990 N.am   97  SER97      -0.1949
    145  CA         1.0810   40.9820    0.3530 C.3    97  SER97       0.1924
    146  C          1.8790   39.6700    0.4670 C.2    97  SER97       0.2314
    147  O          2.2550   39.2830    1.5720 O.2    97  SER97      -0.2863
    148  CB         2.0070   42.1350   -0.0340 C.3    97  SER97       0.2116
    149  OG         3.1070   42.2750    0.8520 O.3    97  SER97      -0.2180
    150  N          5.3360   40.4200    2.1640 N.3   100  ASP100     -0.1239
    151  CA         5.3350   40.5360    3.6240 C.3   100  ASP100      0.1674
    152  C          5.0350   39.2270    4.3030 C.2   100  ASP100      0.2266
    153  O          5.6810   38.9240    5.2960 O.2   100  ASP100     -0.2867
    154  CB         4.3590   41.6260    4.0980 C.3   100  ASP100      0.1410
    155  CG         4.7290   43.0300    3.6890 C.2   100  ASP100      0.3668
    156  OD1        5.9280   43.2620    3.3520 O.co2 100  ASP100     -0.2456
    157  OD2        3.8260   43.9130    3.7110 O.co2 100  ASP100     -0.2456
    158  N          5.1920   42.1210   -3.9060 N.3   141  ARG141     -0.1231
    159  CA         4.4900   43.1920   -3.1700 C.3   141  ARG141      0.1694
    160  C          3.0620   43.4260   -3.7050 C.2   141  ARG141      0.2592
    161  O          2.2390   43.9400   -2.9610 O.2   141  ARG141     -0.2718
    162  CB         5.2940   44.5210   -3.1730 C.3   141  ARG141      0.0321
    163  CG         5.4150   45.1500   -4.5570 C.3   141  ARG141      0.0489
    164  CD         6.2740   46.3890   -4.6300 C.3   141  ARG141      0.2205
    165  NE         6.1060   47.0410   -5.9380 N.pl3 141  ARG141     -0.0865
    166  CZ         6.8350   46.7800   -7.0290 C.cat 141  ARG141      0.5346
    167  NH1        7.8330   45.8990   -6.9810 N.pl3 141  ARG141      0.1354
    168  NH2        6.5840   47.4170   -8.1690 N.pl3 141  ARG141      0.1354
    169  N          2.7710   43.0230   -4.9740 N.am  142  ASN142     -0.1974
    170  CA         1.4720   43.1900   -5.6720 C.3   142  ASN142      0.1688
    171  C          0.5620   41.9390   -5.7220 C.2   142  ASN142      0.2292
    172  O         -0.5060   41.9490   -6.3710 O.2   142  ASN142     -0.2864
    173  CB         1.6900   43.7830   -7.0800 C.3   142  ASN142      0.1181
    174  CG         2.3760   45.1170   -7.0470 C.2   142  ASN142      0.2629
    175  OD1        2.2040   45.9260   -6.1200 O.2   142  ASN142     -0.2716
    176  ND2        3.1940   45.3630   -8.0430 N.am  142  ASN142     -0.0877
    177  N         -1.4840   39.2600   -3.2450 N.3   144  LEU144     -0.1245
    178  CA        -2.0970   39.2130   -1.9160 C.3   144  LEU144      0.1561
    179  C         -2.3660   37.8000   -1.4810 C.2   144  LEU144      0.2260
    180  O         -2.5630   36.9220   -2.3190 O.2   144  LEU144     -0.2867
    181  CB        -3.4180   40.0030   -1.8900 C.3   144  LEU144      0.0270
    182  CG        -3.3140   41.5310   -2.0700 C.3   144  LEU144      0.0019
    183  CD1       -4.6560   42.0880   -2.4480 C.3   144  LEU144      0.0001
    184  CD2       -2.7500   42.2000   -0.8020 C.3   144  LEU144      0.0001
    185  N         -3.1880   41.3390   -6.7720 N.3   154  GLY154     -0.1210
    186  CA        -3.8840   42.3490   -5.9800 C.3   154  GLY154      0.1956
    187  C         -3.7970   43.8340   -6.2700 C.2   154  GLY154      0.2611
    188  O         -4.2700   44.6440   -5.4540 O.2   154  GLY154     -0.2717
    189  N         -3.2150   44.2100   -7.4090 N.am  155  ASP155     -0.1973
    190  CA        -3.1150   45.6050   -7.8280 C.3   155  ASP155      0.1709
    191  C         -2.9720   45.6450   -9.3340 C.2   155  ASP155      0.2293
    192  O         -2.3360   44.7600   -9.9210 O.2   155  ASP155     -0.2864
    193  CB        -1.9820   46.3630   -7.1190 C.3   155  ASP155      0.1436
    194  CG        -1.9960   47.8600   -7.4070 C.2   155  ASP155      0.3671
    195  OD1       -2.8130   48.5870   -6.7720 O.co2 155  ASP155     -0.2456
    196  OD2       -1.2270   48.3010   -8.2980 O.co2 155  ASP155     -0.2456
@<TRIPOS>BOND
     1    44    42   ar
     2    44    45   ar
     3    42    40   ar
     4    45    43   ar
     5   192   191    2
     6    40    39    1
     7    40    41   ar
     8    43    41   ar
     9   191   190    1
    10    39    36    1
    11   196   194   ar
    12   168   166    1
    13   176   174   am
    14    76    75    1
    15   190   189    1
    16   190   193    1
    17    80    79    2
    18   189   187   am
    19   194   193    1
    20   194   195   ar
    21    36    35    1
    22    36    37    1
    23   173   174    1
    24   173   170    1
    25    77    78    1
    26   174   175    2
    27   166   167    1
    28   166   165    2
    29    38    37    2
    30   185   186    1
    31    75    74    1
    32    79    78    1
    33    82    81    1
    34    37    46    1
    35   172   171    2
    36   187   186    1
    37   187   188    2
    38    74    73    1
    39    78    81    1
    40   165   164    1
    41   171   170    1
    42   170   169    1
    43    81    83    1
    44    46    47    2
    45    90    89    1
    46    90    91    1
    47   169   160   am
    48    89    88    1
    49    73    72    1
    50   164   163    1
    51   163   162    1
    52    47    48    1
    53    33    32    1
    54    33    34    2
    55    72    69    1
    56    32    31    1
    57    71    70    2
    58   158   159    1
    59   160   159    1
    60   160   161    2
    61    88    85    1
    62    70    69    1
    63   100    98   ar
    64    48    49    2
    65    48    50   am
    66   177   178    1
    67   162   159    1
    68    85    84    1
    69    85    86    1
    70    69    68    1
    71    31    24   am
    72    50    51    1
    73   183   182    1
    74    98    97    1
    75    98    99   ar
    76   180   179    2
    77    62    60    1
    78   182   181    1
    79   182   184    1
    80    53    52    2
    81    92    86   am
    82    92    93    1
    83    97    96    1
    84   178   181    1
    85   178   179    1
    86    25    24    2
    87    86    87    2
    88    24    23    1
    89   119   118    1
    90    51    52    1
    91    51    54    1
    92    52    56   am
    93    96    93    1
    94    93    94    1
    95    66    65    2
    96    60    61    1
    97    60    57    1
    98    95    94    2
    99   118   120    1
   100   118   117    1
   101    23    22    1
   102    23    26    1
   103    56    57    1
   104    54    55    1
   105    57    58    1
   106   148   145    1
   107   148   149    1
   108    94   101   am
   109    65    64    1
   110    22    20   am
   111    67    64    1
   112   145   146    1
   113   145   144    1
   114    26    27    1
   115    21    20    2
   116   146   147    2
   117    27    28    1
   118    20    19    1
   119   117   114    1
   120    64    63    1
   121    19    18    1
   122   101   102    1
   123    58    59    2
   124   143   142    2
   125   144   142   am
   126    28    29    1
   127   113   114    1
   128   113   103   am
   129    29    30    1
   130   114   115    1
   131   142   141    1
   132   150   151    1
   133    18    12   am
   134   102   103    1
   135   102   105    1
   136   103   104    2
   137    12    13    2
   138    12    11    1
   139   115   116    2
   140   115   121   am
   141   156   155   ar
   142   141   140    1
   143    14    11    1
   144    14    15    1
   145    16    15    1
   146   105   106    1
   147   151   154    1
   148   151   152    1
   149   155   157   ar
   150   155   154    1
   151    11    10    1
   152   140   130   am
   153   121   127    1
   154   121   122    1
   155   127   126    1
   156    15    17    1
   157   152   153    2
   158   131   130    2
   159   107   106   ar
   160   107   109   ar
   161   130   129    1
   162   106   108   ar
   163   132   129    1
   164   132   133    1
   165   128   129    1
   166   128   123   am
   167   109   111   ar
   168   122   123    1
   169   122   125    1
   170   126   125    1
   171   135   133   ar
   172   135   137   ar
   173   108   110   ar
   174   133   134   ar
   175   123   124    2
   176     4     3    2
   177   111   110   ar
   178   111   112    1
   179   137   138   ar
   180   134   136   ar
   181     3     2    1
   182   138   136   ar
   183   138   139    1
   184     2     1    1
   185     2     5    1
   186     9     7   am
   187     5     6    1
   188     6     7    1
   189     7     8    2
