@<TRIPOS>MOLECULE
tmp/3q33A01.pdb
 240 242 0 0 0
SMALL
GASTEIGER

@<TRIPOS>ATOM
      1  N        -13.4090   17.1630   -3.4040 N.3    85  VAL85      -0.1231
      2  CA       -14.0430   15.8580   -3.2020 C.3    85  VAL85       0.1692
      3  C        -13.0970   14.8530   -2.5940 C.2    85  VAL85       0.2593
      4  O        -12.2240   14.3270   -3.2840 O.2    85  VAL85      -0.2718
      5  CB       -14.5300   15.2170   -4.4880 C.3    85  VAL85       0.0266
      6  CG1      -15.2810   13.9190   -4.1280 C.3    85  VAL85       0.0020
      7  CG2      -15.4070   16.1830   -5.2870 C.3    85  VAL85       0.0020
      8  N        -13.3020   14.5570   -1.3130 N.am   86  SER86      -0.1938
      9  CA       -12.3440   13.7950   -0.5290 C.3    86  SER86       0.2055
     10  C        -12.4780   12.2790   -0.7350 C.2    86  SER86       0.2643
     11  O        -11.5520   11.6130   -1.2190 O.2    86  SER86      -0.2714
     12  CB       -12.5030   14.1450    0.9500 C.3    86  SER86       0.2130
     13  OG       -11.4660   13.5540    1.7100 O.3    86  SER86      -0.2179
     14  N        -13.6390   11.7320   -0.3850 N.am   87  LYS87      -0.1963
     15  CA       -13.8120   10.2940   -0.4320 C.3    87  LYS87       0.1728
     16  C        -15.1490    9.9010   -1.0240 C.2    87  LYS87       0.2616
     17  O        -16.1080   10.6630   -0.9830 O.2    87  LYS87      -0.2715
     18  CB       -13.6330    9.6940    0.9630 C.3    87  LYS87       0.0311
     19  CG       -12.1610    9.6800    1.3870 C.3    87  LYS87       0.0038
     20  CD       -11.9540    9.7190    2.8980 C.3    87  LYS87       0.0206
     21  CE       -10.4840   10.0160    3.2170 C.3    87  LYS87       0.1093
     22  NZ       -10.0820    9.4450    4.5340 N.3    87  LYS87      -0.1314
     23  N        -15.1990    8.6980   -1.5810 N.am   88  ALA88      -0.1963
     24  CA       -16.4260    8.1640   -2.1420 C.3    88  ALA88       0.1728
     25  C        -16.2830    6.6540   -2.1300 C.2    88  ALA88       0.2616
     26  O        -15.2490    6.1210   -2.5300 O.2    88  ALA88      -0.2715
     27  CB       -16.6190    8.6840   -3.5370 C.3    88  ALA88       0.0334
     28  N        -17.3030    5.9500   -1.6560 N.am   89  ASP89      -0.1957
     29  CA       -17.1360    4.5160   -1.4000 C.3    89  ASP89       0.1840
     30  C        -18.4390    3.7560   -1.5720 C.2    89  ASP89       0.2622
     31  O        -19.5180    4.3370   -1.6070 O.2    89  ASP89      -0.2715
     32  CB       -16.5980    4.2900    0.0190 C.3    89  ASP89       0.1450
     33  CG       -15.7610    3.0290    0.1370 C.2    89  ASP89       0.3671
     34  OD1      -15.8750    2.1480   -0.7420 O.co2  89  ASP89      -0.2456
     35  OD2      -14.9920    2.9220    1.1120 O.co2  89  ASP89      -0.2456
     36  N        -18.3270    2.4430   -1.6890 N.am   90  THR90      -0.1951
     37  CA       -19.4900    1.5730   -1.7440 C.3    90  THR90       0.1897
     38  C        -19.1040    0.3400   -0.9560 C.2    90  THR90       0.2313
     39  O        -17.9160    0.0800   -0.7720 O.2    90  THR90      -0.2863
     40  CB       -19.8210    1.1720   -3.1860 C.3    90  THR90       0.1794
     41  OG1      -18.6410    0.6580   -3.7980 O.3    90  THR90      -0.2208
     42  CG2      -20.3060    2.3760   -3.9940 C.3    90  THR90       0.0378
     43  N        -29.6100   -2.5360   -8.2710 N.3    97  ARG97      -0.1231
     44  CA       -28.5330   -1.8650   -9.0050 C.3    97  ARG97       0.1694
     45  C        -28.8310   -0.3910   -9.2990 C.2    97  ARG97       0.2592
     46  O        -29.9700   -0.0140   -9.5860 O.2    97  ARG97      -0.2718
     47  CB       -28.1610   -2.5910  -10.3030 C.3    97  ARG97       0.0321
     48  CG       -26.8260   -2.0830  -10.8920 C.3    97  ARG97       0.0489
     49  CD       -26.7030   -2.2940  -12.3980 C.3    97  ARG97       0.2205
     50  NE       -26.7550   -3.7080  -12.7590 N.pl3  97  ARG97      -0.0865
     51  CZ       -26.8430   -4.1590  -14.0070 C.cat  97  ARG97       0.5346
     52  NH1      -26.8850   -3.3040  -15.0230 N.pl3  97  ARG97       0.1354
     53  NH2      -26.8910   -5.4660  -14.2370 N.pl3  97  ARG97       0.1354
     54  N        -27.7770    0.4210   -9.2490 N.am   98  VAL98      -0.1966
     55  CA       -27.8740    1.8700   -9.3290 C.3    98  VAL98       0.1727
     56  C        -26.5990    2.3770   -9.9960 C.2    98  VAL98       0.2617
     57  O        -25.5710    1.6860   -9.9740 O.2    98  VAL98      -0.2715
     58  CB       -27.9440    2.4950   -7.8960 C.3    98  VAL98       0.0290
     59  CG1      -29.1020    1.9250   -7.0860 C.3    98  VAL98       0.0023
     60  CG2      -26.6520    2.2490   -7.1430 C.3    98  VAL98       0.0023
     61  N        -26.6520    3.5710  -10.5920 N.am   99  SER99      -0.1936
     62  CA       -25.4240    4.2440  -11.0390 C.3    99  SER99       0.2055
     63  C        -24.8190    5.1490   -9.9450 C.2    99  SER99       0.2643
     64  O        -25.2040    6.3180   -9.8060 O.2    99  SER99      -0.2714
     65  CB       -25.6770    5.0820  -12.2830 C.3    99  SER99       0.2130
     66  OG       -24.5280    5.8590  -12.6030 O.3    99  SER99      -0.2179
     67  N        -23.8760    4.6140   -9.1700 N.am  100  VAL100     -0.1963
     68  CA       -23.1430    5.4290   -8.2200 C.3   100  VAL100      0.1727
     69  C        -22.6070    6.6540   -8.9480 C.2   100  VAL100      0.2616
     70  O        -22.6540    7.7670   -8.4330 O.2   100  VAL100     -0.2715
     71  CB       -21.9710    4.6750   -7.6120 C.3   100  VAL100      0.0290
     72  CG1      -21.1190    5.6240   -6.7860 C.3   100  VAL100      0.0023
     73  CG2      -22.4640    3.5160   -6.7490 C.3   100  VAL100      0.0023
     74  N        -22.1170    6.4480  -10.1600 N.am  101  ARG101     -0.1977
     75  CA       -21.6290    7.5450  -10.9850 C.3   101  ARG101      0.1597
     76  C        -22.6320    8.6840  -11.0820 C.2   101  ARG101      0.2287
     77  O        -22.2520    9.8450  -11.0770 O.2   101  ARG101     -0.2864
     78  CB       -21.3040    7.0400  -12.3970 C.3   101  ARG101      0.0334
     79  CG       -20.9610    8.1350  -13.4120 C.3   101  ARG101      0.0492
     80  CD       -21.2180    7.6670  -14.8570 C.3   101  ARG101      0.2205
     81  NE       -20.8490    6.2600  -15.0040 N.pl3 101  ARG101     -0.0865
     82  CZ       -19.9730    5.7780  -15.8840 C.cat 101  ARG101      0.5346
     83  NH1      -19.3600    6.5840  -16.7440 N.pl3 101  ARG101      0.1354
     84  NH2      -19.7130    4.4740  -15.9000 N.pl3 101  ARG101      0.1354
     85  N        -10.0140   17.4550   -7.1000 N.3   181  LEU181     -0.1231
     86  CA       -10.0080   16.0980   -6.5760 C.3   181  LEU181      0.1693
     87  C         -8.7830   15.3190   -7.0470 C.2   181  LEU181      0.2592
     88  O         -8.2300   15.6330   -8.1050 O.2   181  LEU181     -0.2718
     89  CB       -11.3090   15.3800   -6.9300 C.3   181  LEU181      0.0284
     90  CG       -11.5820   15.0030   -8.3690 C.3   181  LEU181      0.0019
     91  CD1      -10.7160   13.8340   -8.7430 C.3   181  LEU181      0.0001
     92  CD2      -13.0330   14.6050   -8.5080 C.3   181  LEU181      0.0001
     93  N         -8.3760   14.3150   -6.2560 N.am  182  PHE182     -0.1962
     94  CA        -7.1990   13.4870   -6.5450 C.3   182  PHE182      0.1771
     95  C         -7.5810   12.0230   -6.6270 C.2   182  PHE182      0.2620
     96  O         -7.7480   11.3750   -5.5920 O.2   182  PHE182     -0.2715
     97  CB        -6.1600   13.6260   -5.4300 C.3   182  PHE182      0.0574
     98  CG        -4.7450   13.4100   -5.8870 C.ar  182  PHE182     -0.0200
     99  CD1       -3.7340   14.2610   -5.4670 C.ar  182  PHE182     -0.0042
    100  CD2       -4.4220   12.3800   -6.7640 C.ar  182  PHE182     -0.0042
    101  CE1       -2.4320   14.0890   -5.9150 C.ar  182  PHE182     -0.0003
    102  CE2       -3.1140   12.2000   -7.2130 C.ar  182  PHE182     -0.0003
    103  CZ        -2.1270   13.0460   -6.7860 C.ar  182  PHE182     -0.0000
    104  N         -7.7220   11.4730   -7.8300 N.am  183  THR183     -0.1937
    105  CA        -8.1130   10.0720   -7.8780 C.3   183  THR183      0.2028
    106  C         -7.0200    9.1080   -7.3970 C.2   183  THR183      0.2642
    107  O         -5.8440    9.2480   -7.7300 O.2   183  THR183     -0.2714
    108  CB        -8.5800    9.6680   -9.2520 C.3   183  THR183      0.1808
    109  OG1       -7.4600    9.6850  -10.1430 O.3   183  THR183     -0.2208
    110  CG2       -9.6630   10.6280   -9.7270 C.3   183  THR183      0.0379
    111  N         -7.4400    8.1100   -6.6300 N.am  184  ARG184     -0.1963
    112  CA        -6.5440    7.1540   -6.0160 C.3   184  ARG184      0.1714
    113  C         -7.3760    5.9920   -5.4880 C.2   184  ARG184      0.2458
    114  O         -7.8990    6.0690   -4.3840 O.2   184  ARG184     -0.2730
    115  CB        -5.7910    7.8200   -4.8690 C.3   184  ARG184      0.0347
    116  CG        -4.4660    8.4350   -5.2660 C.3   184  ARG184      0.0492
    117  CD        -3.9140    9.3570   -4.1830 C.3   184  ARG184      0.2205
    118  NE        -3.3330    8.6590   -3.0370 N.pl3 184  ARG184     -0.0865
    119  CZ        -3.7430    8.8170   -1.7790 C.cat 184  ARG184      0.5346
    120  NH1       -4.7420    9.6500   -1.5080 N.pl3 184  ARG184      0.1354
    121  NH2       -3.1530    8.1460   -0.7900 N.pl3 184  ARG184      0.1354
    122  N         -7.5100    4.9060   -6.2710 N.am  185  PRO185     -0.2716
    123  CA        -8.4050    3.8540   -5.7950 C.3   185  PRO185      0.1536
    124  C         -7.8070    3.2120   -4.5650 C.2   185  PRO185      0.2598
    125  O         -6.5920    3.2590   -4.3430 O.2   185  PRO185     -0.2715
    126  CB        -8.4050    2.8490   -6.9480 C.3   185  PRO185      0.0310
    127  CG        -7.0450    2.9720   -7.5420 C.3   185  PRO185      0.0237
    128  CD        -6.7070    4.4540   -7.4230 C.3   185  PRO185      0.0939
    129  N         -8.6720    2.6140   -3.7650 N.am  186  ALA186     -0.1964
    130  CA        -8.2480    1.9070   -2.5770 C.3   186  ALA186      0.1728
    131  C         -9.3700    0.9320   -2.2580 C.2   186  ALA186      0.2617
    132  O        -10.4970    1.0810   -2.7530 O.2   186  ALA186     -0.2715
    133  CB        -8.0000    2.8790   -1.4340 C.3   186  ALA186      0.0334
    134  N         -9.0590   -0.0810   -1.4630 N.am  187  SER187     -0.1936
    135  CA       -10.0250   -1.1380   -1.1960 C.3   187  SER187      0.2055
    136  C        -11.2970   -0.5640   -0.5570 C.2   187  SER187      0.2643
    137  O        -12.4050   -1.0160   -0.8370 O.2   187  SER187     -0.2714
    138  CB        -9.3820   -2.1990   -0.3080 C.3   187  SER187      0.2130
    139  OG        -8.5070   -1.5720    0.6160 O.3   187  SER187     -0.2179
    140  N        -11.1270    0.4470    0.2870 N.am  188  GLN188     -0.1963
    141  CA       -12.2520    1.1430    0.9100 C.3   188  GLN188      0.1733
    142  C        -11.7930    2.4630    1.5250 C.2   188  GLN188      0.2616
    143  O        -10.6190    2.6290    1.8770 O.2   188  GLN188     -0.2715
    144  CB       -12.9580    0.2700    1.9610 C.3   188  GLN188      0.0408
    145  CG       -12.1160   -0.8570    2.5390 C.3   188  GLN188      0.0908
    146  CD       -11.3940   -0.4590    3.8060 C.2   188  GLN188      0.2608
    147  OE1      -11.0720   -1.3100    4.6420 O.2   188  GLN188     -0.2717
    148  NE2      -11.1360    0.8390    3.9610 N.am  188  GLN188     -0.0878
    149  N        -12.7180    3.4080    1.6340 N.am  189  TYR189     -0.1974
    150  CA       -12.3990    4.6980    2.2170 C.3   189  TYR189      0.1639
    151  C        -13.2990    5.0250    3.3950 C.2   189  TYR189      0.2290
    152  O        -12.8490    5.6130    4.3800 O.2   189  TYR189     -0.2864
    153  CB       -12.5270    5.7950    1.1800 C.3   189  TYR189      0.0560
    154  CG       -11.3110    5.9580    0.3110 C.ar  189  TYR189     -0.0198
    155  CD1      -11.3790    5.7770   -1.0820 C.ar  189  TYR189     -0.0009
    156  CD2      -10.0940    6.3090    0.8730 C.ar  189  TYR189     -0.0009
    157  CE1      -10.2600    5.9510   -1.8740 C.ar  189  TYR189      0.0417
    158  CE2       -8.9670    6.4810    0.0960 C.ar  189  TYR189      0.0417
    159  CZ        -9.0510    6.3010   -1.2650 C.ar  189  TYR189      0.1957
    160  OH        -7.9050    6.4770   -1.9920 O.3   189  TYR189     -0.2866
    161  N        -19.3550   -9.0170   -3.4440 N.3   199  LYS199     -0.1231
    162  CA       -20.2040   -8.2600   -4.3540 C.3   199  LYS199      0.1693
    163  C        -19.7670   -6.8090   -4.5150 C.2   199  LYS199      0.2592
    164  O        -20.4340   -6.0410   -5.2110 O.2   199  LYS199     -0.2718
    165  CB       -21.6700   -8.2940   -3.8980 C.3   199  LYS199      0.0285
    166  CG       -22.1890   -9.6560   -3.4800 C.3   199  LYS199      0.0035
    167  CD       -22.3810   -9.7220   -1.9730 C.3   199  LYS199      0.0206
    168  CE       -22.5210  -11.1560   -1.5040 C.3   199  LYS199      0.1093
    169  NZ       -21.4650  -12.0290   -2.1040 N.3   199  LYS199     -0.1314
    170  N        -18.6720   -6.4160   -3.8660 N.am  200  LYS200     -0.1966
    171  CA       -18.2160   -5.0340   -4.0000 C.3   200  LYS200      0.1728
    172  C        -17.2710   -4.8370   -5.1610 C.2   200  LYS200      0.2616
    173  O        -16.2140   -5.4550   -5.2150 O.2   200  LYS200     -0.2715
    174  CB       -17.5480   -4.5150   -2.7340 C.3   200  LYS200      0.0311
    175  CG       -17.1280   -3.0500   -2.8460 C.3   200  LYS200      0.0038
    176  CD       -16.0600   -2.7030   -1.8280 C.3   200  LYS200      0.0206
    177  CE       -15.5090   -1.3180   -2.1060 C.3   200  LYS200      0.1093
    178  NZ       -15.0260   -0.6220   -0.8770 N.3   200  LYS200     -0.1314
    179  N        -17.6630   -3.9400   -6.0610 N.am  201  HIS201     -0.1959
    180  CA       -16.9020   -3.5840   -7.2480 C.3   201  HIS201      0.1787
    181  C        -15.8550   -2.5000   -6.9830 C.2   201  HIS201      0.2620
    182  O        -16.1930   -1.3650   -6.6660 O.2   201  HIS201     -0.2715
    183  CB       -17.8700   -3.0990   -8.3270 C.3   201  HIS201      0.0785
    184  CG       -17.2410   -2.9080   -9.6780 C.ar  201  HIS201      0.0821
    185  ND1      -17.8620   -2.2220  -10.6900 N.ar  201  HIS201     -0.2267
    186  CD2      -16.0500   -3.3300  -10.1680 C.ar  201  HIS201      0.1154
    187  CE1      -17.0750   -2.2160  -11.7600 C.ar  201  HIS201      0.1986
    188  NE2      -15.9780   -2.8820  -11.4690 N.ar  201  HIS201     -0.2212
    189  N        -14.5830   -2.8540   -7.1320 N.am  202  ILE202     -0.1963
    190  CA       -13.4850   -1.9070   -6.9920 C.3   202  ILE202      0.1727
    191  C        -12.9840   -1.4690   -8.3730 C.2   202  ILE202      0.2616
    192  O        -12.6110   -2.3120   -9.1750 O.2   202  ILE202     -0.2715
    193  CB       -12.3110   -2.5610   -6.2410 C.3   202  ILE202      0.0290
    194  CG1      -12.6100   -2.6750   -4.7550 C.3   202  ILE202      0.0022
    195  CG2      -11.0150   -1.7960   -6.4470 C.3   202  ILE202      0.0023
    196  CD1      -13.6610   -3.7020   -4.4270 C.3   202  ILE202      0.0001
    197  N        -12.9780   -0.1650   -8.6560 N.am  203  LEU203     -0.1977
    198  CA       -12.3180    0.3370   -9.8560 C.3   203  LEU203      0.1596
    199  C        -10.7990    0.3460   -9.6520 C.2   203  LEU203      0.2287
    200  O        -10.3350    0.5470   -8.5320 O.2   203  LEU203     -0.2864
    201  CB       -12.8050    1.7440  -10.2210 C.3   203  LEU203      0.0297
    202  CG       -14.2940    1.9400  -10.5460 C.3   203  LEU203      0.0022
    203  CD1      -14.5760    3.2780  -11.2690 C.3   203  LEU203      0.0001
    204  CD2      -14.8240    0.7960  -11.3590 C.3   203  LEU203      0.0001
    205  N        -10.9070    4.2260  -12.4440 N.3   208  LEU208     -0.1245
    206  CA       -11.3330    5.3420  -11.5910 C.3   208  LEU208      0.1561
    207  C        -11.1580    6.7110  -12.2500 C.2   208  LEU208      0.2260
    208  O        -12.0960    7.4990  -12.3200 O.2   208  LEU208     -0.2867
    209  CB       -10.5570    5.3210  -10.2730 C.3   208  LEU208      0.0270
    210  CG       -11.0820    6.2390   -9.1720 C.3   208  LEU208      0.0019
    211  CD1      -12.5650    6.0390   -8.9990 C.3   208  LEU208      0.0001
    212  CD2      -10.3520    5.9560   -7.8740 C.3   208  LEU208      0.0001
    213  N        -13.7580    7.2150  -14.7190 N.3   211  TRP211     -0.1227
    214  CA       -15.0070    7.3400  -13.9590 C.3   211  TRP211      0.1737
    215  C        -15.2130    8.7820  -13.5040 C.2   211  TRP211      0.2595
    216  O        -16.2230    9.4080  -13.8360 O.2   211  TRP211     -0.2718
    217  CB       -14.9630    6.4030  -12.7540 C.3   211  TRP211      0.0564
    218  CG       -16.2720    6.1280  -12.0840 C.ar  211  TRP211      0.0003
    219  CD1      -17.2350    5.2580  -12.4950 C.ar  211  TRP211      0.0946
    220  CD2      -16.7450    6.6890  -10.8560 C.ar  211  TRP211      0.0152
    221  NE1      -18.2900    5.2570  -11.6150 N.ar  211  TRP211     -0.2442
    222  CE2      -18.0060    6.1320  -10.5840 C.ar  211  TRP211      0.0810
    223  CE3      -16.2230    7.6260   -9.9480 C.ar  211  TRP211      0.0012
    224  CZ2      -18.7610    6.4680   -9.4680 C.ar  211  TRP211      0.0191
    225  CZ3      -16.9650    7.9600   -8.8360 C.ar  211  TRP211      0.0001
    226  CH2      -18.2220    7.3890   -8.6060 C.ar  211  TRP211      0.0015
    227  N        -14.2430    9.3120  -12.7670 N.am  212  TRP212     -0.1976
    228  CA       -14.3220   10.6880  -12.2960 C.3   212  TRP212      0.1640
    229  C        -14.3310   11.6750  -13.4420 C.2   212  TRP212      0.2290
    230  O        -15.0630   12.6650  -13.4020 O.2   212  TRP212     -0.2864
    231  CB       -13.1880   11.0180  -11.3230 C.3   212  TRP212      0.0576
    232  CG       -13.5830   10.7120   -9.9350 C.ar  212  TRP212      0.0006
    233  CD1      -13.1410    9.6840   -9.1670 C.ar  212  TRP212      0.0946
    234  CD2      -14.5540   11.4110   -9.1500 C.ar  212  TRP212      0.0152
    235  NE1      -13.7690    9.7010   -7.9330 N.ar  212  TRP212     -0.2442
    236  CE2      -14.6560   10.7600   -7.9060 C.ar  212  TRP212      0.0810
    237  CE3      -15.3570   12.5480   -9.3780 C.ar  212  TRP212      0.0012
    238  CZ2      -15.5050   11.1870   -6.8920 C.ar  212  TRP212      0.0191
    239  CZ3      -16.2030   12.9790   -8.3770 C.ar  212  TRP212      0.0001
    240  CH2      -16.2720   12.3010   -7.1470 C.ar  212  TRP212      0.0015
@<TRIPOS>BOND
     1    83    82    1
     2    84    82    1
     3    82    81    2
     4    52    51    1
     5    81    80    1
     6    80    79    1
     7   213   214    1
     8    53    51    1
     9    51    50    2
    10   214   215    1
    11   214   217    1
    12   216   215    2
    13   215   227   am
    14   229   230    2
    15   229   228    1
    16    79    78    1
    17   227   228    1
    18    50    49    1
    19   217   218    1
    20    66    65    1
    21   219   218   ar
    22   219   221   ar
    23   205   206    1
    24    49    48    1
    25    78    75    1
    26   208   207    2
    27   228   231    1
    28    65    62    1
    29   207   206    1
    30   218   220   ar
    31   187   188   ar
    32   187   185   ar
    33   221   222   ar
    34   206   209    1
    35   188   186   ar
    36   204   202    1
    37   231   232    1
    38   203   202    1
    39    76    77    2
    40    76    75    1
    41    62    61    1
    42    62    63    1
    43    75    74    1
    44    48    47    1
    45   220   222   ar
    46   220   223   ar
    47   185   184   ar
    48    61    56   am
    49   222   224   ar
    50   202   201    1
    51    47    44    1
    52   209   210    1
    53   201   198    1
    54   186   184   ar
    55    74    69   am
    56   109   108    1
    57    56    57    2
    58    56    55    1
    59   223   225   ar
    60    63    64    2
    61    63    67   am
    62   232   233   ar
    63   232   234   ar
    64   198   199    1
    65   198   197    1
    66   110   108    1
    67   184   183    1
    68   199   200    2
    69    46    45    2
    70   224   226   ar
    71   237   234   ar
    72   237   239   ar
    73    55    54    1
    74    55    58    1
    75    45    54   am
    76    45    44    1
    77   108   105    1
    78   192   191    2
    79   210   211    1
    80   210   212    1
    81    67    68    1
    82   233   235   ar
    83   234   236   ar
    84    44    43    1
    85    69    70    2
    86    69    68    1
    87   225   226   ar
    88    91    90    1
    89   197   191   am
    90    92    90    1
    91   239   240   ar
    92   191   190    1
    93    90    89    1
    94   183   180    1
    95    68    71    1
    96    88    87    2
    97   235   236   ar
    98   236   238   ar
    99    58    60    1
   100    58    59    1
   101   105   104    1
   102   105   106    1
   103   104    95   am
   104   107   106    2
   105    71    72    1
   106    71    73    1
   107   127   128    1
   108   127   126    1
   109   128   122    1
   110   106   111   am
   111   180   181    1
   112   180   179    1
   113   102   103   ar
   114   102   100   ar
   115   240   238   ar
   116   189   190    1
   117   189   181   am
   118    85    86    1
   119    87    86    1
   120    87    93   am
   121   190   193    1
   122   181   182    2
   123   126   123    1
   124    89    86    1
   125   103   101   ar
   126   100    98   ar
   127   111   112    1
   128    95    94    1
   129    95    96    2
   130    94    93    1
   131    94    97    1
   132   195   193    1
   133   122   123    1
   134   122   113   am
   135   193   194    1
   136   179   172   am
   137   112   113    1
   138   112   115    1
   139   101    99   ar
   140    98    99   ar
   141    98    97    1
   142   123   124    1
   143   113   114    2
   144     7     5    1
   145   116   115    1
   146   116   117    1
   147   173   172    2
   148   164   163    2
   149   172   171    1
   150   194   196    1
   151   124   125    2
   152   124   129   am
   153   163   162    1
   154   163   170   am
   155     5     6    1
   156     5     2    1
   157   162   165    1
   158   162   161    1
   159   117   118    1
   160   171   170    1
   161   171   174    1
   162    42    40    1
   163   165   166    1
   164    41    40    1
   165   129   130    1
   166    27    24    1
   167   166   167    1
   168     1     2    1
   169     4     3    2
   170     2     3    1
   171    40    37    1
   172   118   119    2
   173   175   174    1
   174   175   176    1
   175   132   131    2
   176     3     8   am
   177   130   131    1
   178   130   133    1
   179    26    25    2
   180   131   134   am
   181    24    25    1
   182    24    23    1
   183    25    28   am
   184   177   176    1
   185   177   178    1
   186   169   168    1
   187   160   159    1
   188   167   168    1
   189   157   159   ar
   190   157   155   ar
   191   119   120    1
   192   119   121    1
   193    37    36    1
   194    37    38    1
   195    36    30   am
   196    28    29    1
   197    31    30    2
   198    23    16   am
   199    30    29    1
   200   134   135    1
   201    29    32    1
   202     8     9    1
   203   159   158   ar
   204    11    10    2
   205   135   136    1
   206   135   138    1
   207   155   154   ar
   208    16    17    2
   209    16    15    1
   210    38    39    2
   211   137   136    2
   212    34    33   ar
   213    10     9    1
   214    10    14   am
   215   136   140   am
   216     9    12    1
   217    15    14    1
   218    15    18    1
   219   138   139    1
   220    32    33    1
   221   158   156   ar
   222    33    35   ar
   223   140   141    1
   224   154   156   ar
   225   154   153    1
   226   141   142    1
   227   141   144    1
   228    12    13    1
   229    18    19    1
   230   153   150    1
   231    19    20    1
   232   142   149   am
   233   142   143    2
   234   149   150    1
   235   144   145    1
   236   150   151    1
   237   145   146    1
   238    20    21    1
   239    21    22    1
   240   151   152    2
   241   146   148   am
   242   146   147    2
