@<TRIPOS>MOLECULE
tmp/3q3bA00.pdb
 167 157 0 0 0
SMALL
GASTEIGER

@<TRIPOS>ATOM
      1  N         46.0070    6.5020   30.2100 N.3    28  ILE28      -0.1231
      2  CA        45.1560    5.4590   30.7860 C.3    28  ILE28       0.1692
      3  C         43.7530    5.3510   30.1850 C.2    28  ILE28       0.2593
      4  O         42.9080    4.6410   30.7260 O.2    28  ILE28      -0.2718
      5  CB        45.0030    5.5890   32.3330 C.3    28  ILE28       0.0266
      6  CG1       44.2060    6.8410   32.6930 C.3    28  ILE28       0.0019
      7  CG2       46.3740    5.6100   33.0120 C.3    28  ILE28       0.0020
      8  CD1       44.1460    7.0850   34.1990 C.3    28  ILE28       0.0001
      9  N         43.5120    6.0380   29.0680 N.am   29  GLY29      -0.1942
     10  CA        42.2140    5.9840   28.4150 C.3    29  GLY29       0.2014
     11  C         42.1140    6.9290   27.2300 C.2    29  GLY29       0.2638
     12  O         42.6510    8.0420   27.2720 O.2    29  GLY29      -0.2714
     13  N         41.4430    6.4780   26.1670 N.am   30  ASN30      -0.1972
     14  CA        41.2270    7.2740   24.9490 C.3    30  ASN30       0.1688
     15  C         39.7600    7.2420   24.6270 C.2    30  ASN30       0.2292
     16  O         39.0320    6.3770   25.1020 O.2    30  ASN30      -0.2864
     17  CB        41.9810    6.7020   23.7690 C.3    30  ASN30       0.1181
     18  CG        43.4620    6.8770   23.9060 C.2    30  ASN30       0.2629
     19  OD1       43.9790    7.9820   23.7300 O.2    30  ASN30      -0.2716
     20  ND2       44.1650    5.7920   24.2390 N.am   30  ASN30      -0.0877
     21  N         35.8430   11.9050   23.2470 N.3    33  PHE33      -0.1241
     22  CA        36.0550   13.0550   24.1190 C.3    33  PHE33       0.1605
     23  C         37.5210   13.5160   24.2330 C.2    33  PHE33       0.2264
     24  O         37.8060   14.7190   24.1590 O.2    33  PHE33      -0.2867
     25  CB        35.5600   12.6990   25.5070 C.3    33  PHE33       0.0534
     26  CG        36.4390   11.7070   26.1990 C.ar   33  PHE33      -0.0203
     27  CD1       37.4920   12.1290   26.9960 C.ar   33  PHE33      -0.0042
     28  CD2       36.2700   10.3550   25.9880 C.ar   33  PHE33      -0.0042
     29  CE1       38.3630   11.2180   27.5650 C.ar   33  PHE33      -0.0003
     30  CE2       37.1370    9.4410   26.5550 C.ar   33  PHE33      -0.0003
     31  CZ        38.1860    9.8730   27.3450 C.ar   33  PHE33      -0.0000
     32  N         42.8210   10.4980   29.0920 N.3    36  VAL36      -0.1245
     33  CA        42.9370   10.4600   30.5310 C.3    36  VAL36       0.1561
     34  C         44.2950    9.8790   30.8690 C.2    36  VAL36       0.2260
     35  O         44.6240    8.7460   30.4740 O.2    36  VAL36      -0.2867
     36  CB        41.8680    9.6040   31.1550 C.3    36  VAL36       0.0252
     37  CG1       42.1270    9.4930   32.6180 C.3    36  VAL36       0.0019
     38  CG2       40.5020   10.2340   30.9160 C.3    36  VAL36       0.0019
     39  N         44.6620   11.5330   38.1120 N.3    49  ALA49      -0.1245
     40  CA        44.2210   11.2520   36.7700 C.3    49  ALA49       0.1562
     41  C         44.0030   12.6290   36.2150 C.2    49  ALA49       0.2260
     42  O         43.5570   13.5200   36.9320 O.2    49  ALA49      -0.2867
     43  CB        42.9420   10.5050   36.8060 C.3    49  ALA49       0.0290
     44  N         42.2450   14.4370   32.9130 N.3    51  LYS51      -0.1245
     45  CA        41.3630   14.2020   31.7930 C.3    51  LYS51       0.1561
     46  C         41.4490   15.3860   30.8440 C.2    51  LYS51       0.2260
     47  O         40.8950   16.4320   31.1340 O.2    51  LYS51      -0.2867
     48  CB        39.9400   14.0520   32.3140 C.3    51  LYS51       0.0271
     49  CG        38.9350   13.7000   31.2560 C.3    51  LYS51       0.0035
     50  CD        37.5460   13.6850   31.8150 C.3    51  LYS51       0.0206
     51  CE        36.5600   13.2960   30.7390 C.3    51  LYS51       0.1093
     52  NZ        35.2160   12.9590   31.3090 N.3    51  LYS51      -0.1314
     53  N         30.9270   19.9060   31.7930 N.3    63  GLU63      -0.1245
     54  CA        31.4300   18.9010   32.7090 C.3    63  GLU63       0.1567
     55  C         32.0550   19.6600   33.8610 C.2    63  GLU63       0.2260
     56  O         31.7360   19.4060   35.0100 O.2    63  GLU63      -0.2867
     57  CB        32.4590   17.9940   32.0460 C.3    63  GLU63       0.0388
     58  CG        32.6480   16.7330   32.8450 C.3    63  GLU63       0.1160
     59  CD        33.5570   15.7310   32.1830 C.2    63  GLU63       0.3649
     60  OE1       33.8480   15.8880   30.9670 O.co2  63  GLU63      -0.2457
     61  OE2       33.9580   14.7740   32.8930 O.co2  63  GLU63      -0.2457
     62  N         34.3680   10.9050   42.4240 N.3    76  VAL76      -0.1245
     63  CA        35.7570   11.2190   42.2050 C.3    76  VAL76       0.1561
     64  C         35.8250   12.7320   42.3650 C.2    76  VAL76       0.2260
     65  O         34.9540   13.4570   41.8750 O.2    76  VAL76      -0.2867
     66  CB        36.2100   10.7220   40.7940 C.3    76  VAL76       0.0252
     67  CG1       36.0030   11.7930   39.7650 C.3    76  VAL76       0.0019
     68  CG2       37.6430   10.2730   40.8450 C.3    76  VAL76       0.0019
     69  N         41.8510   14.8690   38.6940 N.3    94  LEU94      -0.1231
     70  CA        40.9770   14.1870   39.6440 C.3    94  LEU94       0.1693
     71  C         41.7340   13.1670   40.4430 C.2    94  LEU94       0.2592
     72  O         42.8710   12.8250   40.1100 O.2    94  LEU94      -0.2718
     73  CB        39.8790   13.4470   38.8990 C.3    94  LEU94       0.0284
     74  CG        39.2980   14.0970   37.6550 C.3    94  LEU94       0.0019
     75  CD1       39.1770   13.0650   36.5600 C.3    94  LEU94       0.0001
     76  CD2       37.9590   14.6940   37.9860 C.3    94  LEU94       0.0001
     77  N         41.0910   12.6620   41.4900 N.am   95  ASP95      -0.1960
     78  CA        41.7230   11.6280   42.2950 C.3    95  ASP95       0.1840
     79  C         41.9380   10.3720   41.4430 C.2    95  ASP95       0.2622
     80  O         41.1150   10.0440   40.5710 O.2    95  ASP95      -0.2715
     81  CB        40.8570   11.2630   43.4890 C.3    95  ASP95       0.1450
     82  CG        40.6750   12.4160   44.4500 C.2    95  ASP95       0.3671
     83  OD1       41.6890   13.0480   44.8480 O.co2  95  ASP95      -0.2456
     84  OD2       39.5070   12.6740   44.8120 O.co2  95  ASP95      -0.2456
     85  N         43.0540    9.6900   41.6780 N.am   96  TYR96      -0.1960
     86  CA        43.3400    8.4680   40.9550 C.3    96  TYR96       0.1771
     87  C         42.7170    7.3010   41.7430 C.2    96  TYR96       0.2619
     88  O         42.8050    7.2610   42.9700 O.2    96  TYR96      -0.2715
     89  CB        44.8490    8.2710   40.8290 C.3    96  TYR96       0.0574
     90  CG        45.2080    6.9490   40.2110 C.ar   96  TYR96      -0.0198
     91  CD1       45.0230    6.7190   38.8640 C.ar   96  TYR96      -0.0009
     92  CD2       45.5910    5.8840   41.0040 C.ar   96  TYR96      -0.0009
     93  CE1       45.1940    5.4610   38.3370 C.ar   96  TYR96       0.0417
     94  CE2       45.7580    4.6260   40.4850 C.ar   96  TYR96       0.0417
     95  CZ        45.5540    4.4170   39.1620 C.ar   96  TYR96       0.1957
     96  OH        45.6490    3.1380   38.6750 O.3    96  TYR96      -0.2866
     97  N         42.0570    6.3740   41.0560 N.am   97  VAL97      -0.1964
     98  CA        41.4620    5.2320   41.7370 C.3    97  VAL97       0.1712
     99  C         41.8060    4.0060   40.8930 C.2    97  VAL97       0.2458
    100  O         41.4680    3.9390   39.7100 O.2    97  VAL97      -0.2730
    101  CB        39.9260    5.3680   41.8630 C.3    97  VAL97       0.0289
    102  CG1       39.3900    4.3020   42.7790 C.3    97  VAL97       0.0023
    103  CG2       39.5520    6.7220   42.4140 C.3    97  VAL97       0.0023
    104  N         42.4790    3.0170   41.5040 N.am   98  PRO98      -0.2727
    105  CA        42.9660    1.7350   40.9880 C.3    98  PRO98       0.1402
    106  C         42.1200    0.9840   39.9760 C.2    98  PRO98       0.2269
    107  O         42.4890    0.8880   38.8250 O.2    98  PRO98      -0.2865
    108  CB        43.1640    0.8990   42.2570 C.3    98  PRO98       0.0296
    109  CG        43.5080    1.8690   43.2520 C.3    98  PRO98       0.0237
    110  CD        42.5520    3.0160   42.9740 C.3    98  PRO98       0.0939
    111  N         37.9640   -0.5900   38.5250 N.3   100  THR100     -0.1218
    112  CA        36.6150   -0.2230   38.1060 C.3   100  THR100      0.1862
    113  C         35.7030   -1.4460   38.3140 C.2   100  THR100      0.2287
    114  O         36.1650   -2.5910   38.2750 O.2   100  THR100     -0.2866
    115  CB        36.5570    0.1970   36.5900 C.3   100  THR100      0.1770
    116  OG1       36.8120   -0.9320   35.7560 O.3   100  THR100     -0.2211
    117  CG2       37.5850    1.2400   36.2760 C.3   100  THR100      0.0375
    118  N         36.0710   -3.9380   35.4520 N.3   103  ARG103     -0.1245
    119  CA        37.1840   -4.8580   35.4680 C.3   103  ARG103      0.1563
    120  C         37.0240   -5.8870   36.5430 C.2   103  ARG103      0.2260
    121  O         37.2010   -7.0770   36.3030 O.2   103  ARG103     -0.2867
    122  CB        38.5050   -4.1150   35.6050 C.3   103  ARG103      0.0307
    123  CG        39.0940   -3.7730   34.2430 C.3   103  ARG103      0.0489
    124  CD        40.5070   -3.3030   34.3880 C.3   103  ARG103      0.2205
    125  NE        40.5280   -1.9760   34.9820 N.pl3 103  ARG103     -0.0865
    126  CZ        41.5070   -1.5180   35.7530 C.cat 103  ARG103      0.5346
    127  NH1       42.5520   -2.2960   36.0250 N.pl3 103  ARG103      0.1354
    128  NH2       41.4380   -0.2810   36.2500 N.pl3 103  ARG103      0.1354
    129  N         31.7710    0.6510   33.9570 N.3   147  GLN147     -0.1231
    130  CA        33.0630    1.2920   33.6770 C.3   147  GLN147      0.1698
    131  C         33.2470    2.6640   34.3270 C.2   147  GLN147      0.2592
    132  O         34.3710    3.1500   34.4900 O.2   147  GLN147     -0.2718
    133  CB        33.2450    1.3790   32.1680 C.3   147  GLN147      0.0381
    134  CG        32.4910    0.2460   31.4580 C.3   147  GLN147      0.0905
    135  CD        32.7460    0.1910   29.9670 C.2   147  GLN147      0.2608
    136  OE1       33.8930    0.0390   29.5300 O.2   147  GLN147     -0.2717
    137  NE2       31.6770    0.3040   29.1740 N.am  147  GLN147     -0.0878
    138  N         32.1470    3.2980   34.6980 N.am  148  ASN148     -0.1974
    139  CA        32.2290    4.5960   35.3490 C.3   148  ASN148      0.1688
    140  C         32.1500    4.4980   36.8690 C.2   148  ASN148      0.2292
    141  O         31.9240    5.5030   37.5380 O.2   148  ASN148     -0.2864
    142  CB        31.1100    5.4940   34.8710 C.3   148  ASN148      0.1181
    143  CG        31.3050    5.9270   33.4640 C.2   148  ASN148      0.2629
    144  OD1       32.4330    6.1170   33.0430 O.2   148  ASN148     -0.2716
    145  ND2       30.2130    6.1110   32.7240 N.am  148  ASN148     -0.0877
    146  N         34.4350    3.6140   39.8060 N.3   150  LEU150     -0.1245
    147  CA        35.7940    3.3240   40.2210 C.3   150  LEU150      0.1561
    148  C         35.8450    2.7140   41.6230 C.2   150  LEU150      0.2260
    149  O         35.0510    3.0640   42.5010 O.2   150  LEU150     -0.2867
    150  CB        36.6190    4.5920   40.1850 C.3   150  LEU150      0.0270
    151  CG        36.4840    5.4540   38.9350 C.3   150  LEU150      0.0019
    152  CD1       37.3280    6.6890   39.1520 C.3   150  LEU150      0.0001
    153  CD2       36.9300    4.7420   37.6910 C.3   150  LEU150      0.0001
    154  N         32.1520    8.3360   38.3910 N.3   161  CYS161     -0.1221
    155  CA        32.9610    9.2550   37.5900 C.3   161  CYS161      0.1808
    156  C         32.3820    9.4870   36.2200 C.2   161  CYS161      0.2601
    157  O         31.2910    9.0160   35.9200 O.2   161  CYS161     -0.2717
    158  CB        34.4050    8.7620   37.4690 C.3   161  CYS161      0.0970
    159  SG        34.6970    7.4220   36.2700 S.3   161  CYS161     -0.0800
    160  N         33.1240   10.2300   35.4030 N.am  162  ASP162     -0.1973
    161  CA        32.7420   10.5910   34.0360 C.3   162  ASP162      0.1709
    162  C         31.4400   11.4070   33.9640 C.2   162  ASP162      0.2293
    163  O         30.3530   10.8750   33.7010 O.2   162  ASP162     -0.2864
    164  CB        32.6120    9.3460   33.1550 C.3   162  ASP162      0.1436
    165  CG        32.8140    9.6630   31.6870 C.2   162  ASP162      0.3671
    166  OD1       32.4140   10.7820   31.2910 O.co2 162  ASP162     -0.2456
    167  OD2       33.3660    8.8090   30.9400 O.co2 162  ASP162     -0.2456
@<TRIPOS>BOND
     1    21    22    1
     2    19    18    2
     3    17    18    1
     4    17    14    1
     5    18    20   am
     6    22    23    1
     7    22    25    1
     8    24    23    2
     9    15    14    1
    10    15    16    2
    11    14    13    1
    12    25    26    1
    13    28    26   ar
    14    28    30   ar
    15    13    11   am
    16    26    27   ar
    17    30    31   ar
    18    27    29   ar
    19    11    12    2
    20    11    10    1
    21    31    29   ar
    22    10     9    1
    23     9     3   am
    24    32    33    1
    25   137   135   am
    26   136   135    2
    27   135   134    1
    28     3     4    2
    29     3     2    1
    30     1     2    1
    31    35    34    2
    32    33    34    1
    33    33    36    1
    34    51    52    1
    35    51    50    1
    36     2     5    1
    37    46    47    2
    38    46    45    1
    39    38    36    1
    40   167   165   ar
    41    60    59   ar
    42    36    37    1
    43    49    50    1
    44    49    48    1
    45   166   165   ar
    46   134   133    1
    47   165   164    1
    48    53    54    1
    49    45    48    1
    50    45    44    1
    51    57    54    1
    52    57    58    1
    53   133   130    1
    54    59    58    1
    55    59    61   ar
    56     5     6    1
    57     5     7    1
    58     6     8    1
    59    54    55    1
    60   145   143   am
    61   144   143    2
    62   164   161    1
    63   143   142    1
    64   130   129    1
    65   130   131    1
    66   163   162    2
    67    55    56    2
    68   162   161    1
    69   161   160    1
    70   123   124    1
    71   123   122    1
    72   131   132    2
    73   131   138   am
    74   124   125    1
    75   138   139    1
    76   142   139    1
    77   125   126    2
    78   139   140    1
    79   160   156   am
    80   118   119    1
    81   119   122    1
    82   119   120    1
    83   126   127    1
    84   126   128    1
    85   116   115    1
    86   157   156    2
    87    41    40    1
    88    41    42    2
    89   156   155    1
    90   159   158    1
    91   117   115    1
    92   121   120    2
    93    75    74    1
    94   115   112    1
    95    40    43    1
    96    40    39    1
    97   140   141    2
    98   158   155    1
    99   155   154    1
   100    74    76    1
   101    74    73    1
   102   153   151    1
   103   112   113    1
   104   112   111    1
   105   114   113    2
   106    93    91   ar
   107    93    95   ar
   108    96    95    1
   109    69    70    1
   110   107   106    2
   111    91    90   ar
   112    73    70    1
   113   151   152    1
   114   151   150    1
   115    95    94   ar
   116    70    71    1
   117   100    99    2
   118    67    66    1
   119   146   147    1
   120   106   105    1
   121    72    71    2
   122   150   147    1
   123    90    89    1
   124    90    92   ar
   125   147   148    1
   126    71    77   am
   127    94    92   ar
   128    80    79    2
   129    66    68    1
   130    66    63    1
   131    89    86    1
   132    99   104   am
   133    99    98    1
   134    86    85    1
   135    86    87    1
   136   105   104    1
   137   105   108    1
   138    97    98    1
   139    97    87   am
   140    79    85   am
   141    79    78    1
   142    77    78    1
   143   104   110    1
   144   148   149    2
   145    98   101    1
   146    87    88    2
   147   101   103    1
   148   101   102    1
   149    65    64    2
   150    63    64    1
   151    63    62    1
   152   108   109    1
   153    78    81    1
   154   110   109    1
   155    81    82    1
   156    82    84   ar
   157    82    83   ar
