@<TRIPOS>MOLECULE
tmp/3q3dA00.pdb
 151 147 0 0 0
SMALL
GASTEIGER

@<TRIPOS>ATOM
      1  N         60.7670   30.7550   66.4170 N.3   143  PRO143     -0.2102
      2  CA        60.2760   29.4430   66.8340 C.3   143  PRO143      0.1504
      3  C         58.8120   29.4770   67.1380 C.2   143  PRO143      0.2575
      4  O         58.1530   28.4580   67.0360 O.2   143  PRO143     -0.2718
      5  CB        61.0370   29.1740   68.1240 C.3   143  PRO143      0.0282
      6  CG        62.2400   30.0710   68.0640 C.3   143  PRO143      0.0208
      7  CD        61.8040   31.2880   67.3210 C.3   143  PRO143      0.0893
      8  N         58.3200   30.6630   67.4910 N.am  144  GLU144     -0.1980
      9  CA        56.9700   30.8280   68.0070 C.3   144  GLU144      0.1602
     10  C         55.8940   30.8350   66.9450 C.2   144  GLU144      0.2287
     11  O         54.7940   30.3940   67.2190 O.2   144  GLU144     -0.2864
     12  CB        56.8620   32.0850   68.8570 C.3   144  GLU144      0.0415
     13  CG        57.1480   31.8230   70.3290 C.3   144  GLU144      0.1163
     14  CD        57.4380   33.0980   71.1350 C.2   144  GLU144      0.3649
     15  OE1       58.5170   33.7450   70.9340 O.co2 144  GLU144     -0.2457
     16  OE2       56.5790   33.4390   71.9860 O.co2 144  GLU144     -0.2457
     17  N         56.5560   30.0840   63.3510 N.3   146  VAL146     -0.1231
     18  CA        56.9220   29.3210   62.1590 C.3   146  VAL146      0.1692
     19  C         55.9850   28.1160   61.8850 C.2   146  VAL146      0.2592
     20  O         55.7140   27.3130   62.7930 O.2   146  VAL146     -0.2718
     21  CB        58.3560   28.8410   62.2650 C.3   146  VAL146      0.0266
     22  CG1       58.4780   27.8690   63.3550 C.3   146  VAL146      0.0020
     23  CG2       58.8070   28.2590   60.9870 C.3   146  VAL146      0.0020
     24  N         55.4890   27.9970   60.6440 N.am  147  LEU147     -0.1966
     25  CA        54.5400   26.9370   60.2690 C.3   147  LEU147      0.1728
     26  C         55.1780   26.0190   59.2210 C.2   147  LEU147      0.2616
     27  O         56.2640   26.2960   58.7300 O.2   147  LEU147     -0.2715
     28  CB        53.2320   27.5360   59.7310 C.3   147  LEU147      0.0311
     29  CG        52.6490   28.7760   60.4190 C.3   147  LEU147      0.0022
     30  CD1       51.6120   29.4860   59.5980 C.3   147  LEU147      0.0001
     31  CD2       52.0380   28.4460   61.7260 C.3   147  LEU147      0.0001
     32  N         54.5060   24.9230   58.8830 N.am  148  ASN148     -0.1972
     33  CA        54.8920   24.0850   57.7650 C.3   148  ASN148      0.1688
     34  C         54.7880   24.8410   56.4620 C.2   148  ASN148      0.2292
     35  O         55.7080   24.8350   55.6760 O.2   148  ASN148     -0.2864
     36  CB        53.9940   22.8570   57.7330 C.3   148  ASN148      0.1181
     37  CG        54.2500   21.9350   58.9120 C.2   148  ASN148      0.2629
     38  OD1       55.2810   22.0480   59.5570 O.2   148  ASN148     -0.2716
     39  ND2       53.3220   21.0100   59.1960 N.am  148  ASN148     -0.0877
     40  N         57.6010   26.4740   54.7350 N.3   151  TYR151     -0.1241
     41  CA        58.5860   25.7590   53.9690 C.3   151  TYR151      0.1605
     42  C         58.0400   25.3870   52.6170 C.2   151  TYR151      0.2264
     43  O         58.6610   24.6310   51.8660 O.2   151  TYR151     -0.2867
     44  CB        59.0100   24.4890   54.6900 C.3   151  TYR151      0.0534
     45  CG        59.8870   24.7390   55.8690 C.ar  151  TYR151     -0.0201
     46  CD1       59.3500   25.1950   57.0720 C.ar  151  TYR151     -0.0009
     47  CD2       61.2380   24.5020   55.8000 C.ar  151  TYR151     -0.0009
     48  CE1       60.1380   25.4200   58.1710 C.ar  151  TYR151      0.0417
     49  CE2       62.0480   24.7490   56.8840 C.ar  151  TYR151      0.0417
     50  CZ        61.4850   25.2030   58.0760 C.ar  151  TYR151      0.1957
     51  OH        62.2860   25.4380   59.1720 O.3   151  TYR151     -0.2866
     52  N         63.2990   19.6710   58.9190 N.3   169  TYR169     -0.1227
     53  CA        63.0150   21.1070   58.7350 C.3   169  TYR169      0.1736
     54  C         63.9920   21.9740   59.5380 C.2   169  TYR169      0.2596
     55  O         64.0890   21.8350   60.7570 O.2   169  TYR169     -0.2718
     56  CB        61.6010   21.3970   59.2160 C.3   169  TYR169      0.0548
     57  CG        60.5120   20.7290   58.4020 C.ar  169  TYR169     -0.0200
     58  CD1       60.0090   19.5020   58.7470 C.ar  169  TYR169     -0.0009
     59  CD2       59.9890   21.3390   57.2850 C.ar  169  TYR169     -0.0009
     60  CE1       59.0290   18.9020   57.9950 C.ar  169  TYR169      0.0417
     61  CE2       58.9930   20.7380   56.5310 C.ar  169  TYR169      0.0417
     62  CZ        58.5170   19.5240   56.8900 C.ar  169  TYR169      0.1957
     63  OH        57.5070   18.9330   56.1300 O.3   169  TYR169     -0.2866
     64  N         64.7340   22.8540   58.9000 N.am  170  GLY170     -0.1942
     65  CA        65.8350   23.4320   59.6200 C.3   170  GLY170      0.2014
     66  C         65.6030   24.8920   59.8090 C.2   170  GLY170      0.2638
     67  O         64.9100   25.5070   59.0040 O.2   170  GLY170     -0.2714
     68  N         66.1840   25.4670   60.8460 N.am  171  ALA171     -0.1977
     69  CA        66.3260   26.9220   60.8710 C.3   171  ALA171      0.1597
     70  C         67.6300   27.2430   61.4770 C.2   171  ALA171      0.2287
     71  O         68.2050   26.4100   62.1210 O.2   171  ALA171     -0.2864
     72  CB        65.2110   27.5880   61.6890 C.3   171  ALA171      0.0319
     73  N         62.9690   32.8090   74.8610 N.3   181  ILE181     -0.1245
     74  CA        62.5820   32.4610   73.4950 C.3   181  ILE181      0.1561
     75  C         61.9030   33.6210   72.7770 C.2   181  ILE181      0.2260
     76  O         62.0430   33.8100   71.5720 O.2   181  ILE181     -0.2867
     77  CB        61.6090   31.2930   73.5310 C.3   181  ILE181      0.0252
     78  CG1       61.2750   30.8130   72.1350 C.3   181  ILE181      0.0019
     79  CG2       60.3020   31.6810   74.2070 C.3   181  ILE181      0.0019
     80  CD1       60.2420   29.7100   72.1710 C.3   181  ILE181      0.0001
     81  N         64.6710   33.5930   63.6170 N.3   186  TYR186     -0.1241
     82  CA        65.4550   32.8040   62.7280 C.3   186  TYR186      0.1605
     83  C         66.0740   33.7500   61.7170 C.2   186  TYR186      0.2264
     84  O         65.4600   34.7230   61.2820 O.2   186  TYR186     -0.2867
     85  CB        64.5520   31.7980   62.0350 C.3   186  TYR186      0.0534
     86  CG        64.0300   30.7120   62.9430 C.ar  186  TYR186     -0.0201
     87  CD1       62.8600   30.0450   62.6470 C.ar  186  TYR186     -0.0009
     88  CD2       64.7050   30.3530   64.0860 C.ar  186  TYR186     -0.0009
     89  CE1       62.3830   29.0530   63.4590 C.ar  186  TYR186      0.0417
     90  CE2       64.2410   29.3630   64.8970 C.ar  186  TYR186      0.0417
     91  CZ        63.0810   28.7100   64.5850 C.ar  186  TYR186      0.1957
     92  OH        62.5980   27.7120   65.4110 O.3   186  TYR186     -0.2866
     93  N         61.4540   16.5100   71.2200 N.3   223  PHE223     -0.1241
     94  CA        60.7680   17.7560   71.5130 C.3   223  PHE223      0.1605
     95  C         59.6180   17.6770   72.4980 C.2   223  PHE223      0.2264
     96  O         58.7620   16.7830   72.4290 O.2   223  PHE223     -0.2867
     97  CB        60.2420   18.4030   70.2440 C.3   223  PHE223      0.0534
     98  CG        59.4690   19.6340   70.5060 C.ar  223  PHE223     -0.0203
     99  CD1       60.1220   20.8270   70.7410 C.ar  223  PHE223     -0.0042
    100  CD2       58.0830   19.5930   70.5780 C.ar  223  PHE223     -0.0042
    101  CE1       59.4070   21.9630   71.0270 C.ar  223  PHE223     -0.0003
    102  CE2       57.3520   20.7230   70.8640 C.ar  223  PHE223     -0.0003
    103  CZ        58.0060   21.9080   71.0850 C.ar  223  PHE223     -0.0000
    104  N         57.7360   21.4960   74.4540 N.3   225  PRO225     -0.2116
    105  CA        57.8980   22.9540   74.5770 C.3   225  PRO225      0.1372
    106  C         58.7940   23.4330   75.7280 C.2   225  PRO225      0.2244
    107  O         59.6720   24.2660   75.5030 O.2   225  PRO225     -0.2868
    108  CB        56.4600   23.4400   74.7600 C.3   225  PRO225      0.0268
    109  CG        55.6740   22.4680   73.9610 C.3   225  PRO225      0.0207
    110  CD        56.3100   21.1460   74.3100 C.3   225  PRO225      0.0892
    111  N         62.5750   22.9220   74.9280 N.3   228  TYR228     -0.1241
    112  CA        63.1770   23.5990   73.8100 C.3   228  TYR228      0.1605
    113  C         64.1700   24.6590   74.2650 C.2   228  TYR228      0.2264
    114  O         65.3480   24.5970   73.9330 O.2   228  TYR228     -0.2867
    115  CB        62.0940   24.2080   72.9320 C.3   228  TYR228      0.0534
    116  CG        62.6420   24.9670   71.7540 C.ar  228  TYR228     -0.0201
    117  CD1       62.9820   24.3180   70.5770 C.ar  228  TYR228     -0.0009
    118  CD2       62.8210   26.3470   71.8110 C.ar  228  TYR228     -0.0009
    119  CE1       63.4850   25.0320   69.4800 C.ar  228  TYR228      0.0417
    120  CE2       63.3180   27.0650   70.7190 C.ar  228  TYR228      0.0417
    121  CZ        63.6460   26.4020   69.5640 C.ar  228  TYR228      0.1957
    122  OH        64.1340   27.0970   68.4860 O.3   228  TYR228     -0.2866
    123  N         69.3060   24.5090   63.7720 N.3   252  GLU252     -0.1245
    124  CA        68.4760   23.4370   64.3230 C.3   252  GLU252      0.1567
    125  C         67.7550   22.6360   63.2600 C.2   252  GLU252      0.2260
    126  O         67.4370   23.1400   62.1950 O.2   252  GLU252     -0.2867
    127  CB        67.4490   23.9830   65.3040 C.3   252  GLU252      0.0388
    128  CG        66.2110   24.6060   64.6450 C.3   252  GLU252      0.1160
    129  CD        65.2770   25.2250   65.6910 C.2   252  GLU252      0.3649
    130  OE1       65.5980   26.3180   66.2130 O.co2 252  GLU252     -0.2457
    131  OE2       64.2320   24.6150   66.0280 O.co2 252  GLU252     -0.2457
    132  N         64.5060   19.6670   62.7180 N.3   254  ILE254     -0.1245
    133  CA        63.4040   18.9830   63.3920 C.3   254  ILE254      0.1561
    134  C         63.1010   17.7840   62.5290 C.2   254  ILE254      0.2260
    135  O         62.9890   17.9260   61.3290 O.2   254  ILE254     -0.2867
    136  CB        62.1530   19.9740   63.5970 C.3   254  ILE254      0.0252
    137  CG1       62.4320   21.0060   64.7140 C.3   254  ILE254      0.0019
    138  CG2       60.8940   19.2570   64.0350 C.3   254  ILE254      0.0019
    139  CD1       63.2740   22.2070   64.3120 C.3   254  ILE254      0.0001
    140  N         58.4820   14.6390   67.6370 N.3   267  TYR267     -0.1241
    141  CA        59.5860   15.0940   66.8200 C.3   267  TYR267      0.1605
    142  C         60.8720   14.8960   67.5300 C.2   267  TYR267      0.2264
    143  O         60.9010   15.0880   68.7340 O.2   267  TYR267     -0.2867
    144  CB        59.4270   16.5610   66.5690 C.3   267  TYR267      0.0534
    145  CG        58.0930   16.8350   66.0270 C.ar  267  TYR267     -0.0201
    146  CD1       57.0410   17.0850   66.8780 C.ar  267  TYR267     -0.0009
    147  CD2       57.8530   16.7820   64.6720 C.ar  267  TYR267     -0.0009
    148  CE1       55.7740   17.3400   66.3980 C.ar  267  TYR267      0.0417
    149  CE2       56.5820   17.0170   64.1690 C.ar  267  TYR267      0.0417
    150  CZ        55.5330   17.3030   65.0420 C.ar  267  TYR267      0.1957
    151  OH        54.2370   17.5570   64.5820 O.3   267  TYR267     -0.2866
@<TRIPOS>BOND
     1    43    42    2
     2    42    41    1
     3    41    44    1
     4    41    40    1
     5    44    45    1
     6    35    34    2
     7    47    45   ar
     8    47    49   ar
     9    45    46   ar
    10    63    62    1
    11    34    33    1
    12    61    62   ar
    13    61    59   ar
    14    49    50   ar
    15    62    60   ar
    16    46    48   ar
    17    59    57   ar
    18    36    33    1
    19    36    37    1
    20    33    32    1
    21    60    58   ar
    22    50    48   ar
    23    50    51    1
    24    57    58   ar
    25    57    56    1
    26    27    26    2
    27    53    52    1
    28    53    56    1
    29    53    54    1
    30    32    26   am
    31    64    54   am
    32    64    65    1
    33    37    39   am
    34    37    38    2
    35    67    66    2
    36    26    25    1
    37    54    55    2
    38    30    29    1
    39    65    66    1
    40    28    25    1
    41    28    29    1
    42    66    68   am
    43    25    24    1
    44    29    31    1
    45    24    19   am
    46    68    69    1
    47    69    70    1
    48    69    72    1
    49    23    21    1
    50    84    83    2
    51   135   134    2
    52    70    71    2
    53    83    82    1
    54    19    18    1
    55    19    20    2
    56    85    82    1
    57    85    86    1
    58    18    21    1
    59    18    17    1
    60   126   125    2
    61    21    22    1
    62   134   133    1
    63    87    86   ar
    64    87    89   ar
    65   132   133    1
    66    82    81    1
    67    86    88   ar
    68   125   124    1
    69   133   136    1
    70    89    91   ar
    71   136   138    1
    72   136   137    1
    73   123   124    1
    74    88    90   ar
    75   149   147   ar
    76   149   150   ar
    77   139   137    1
    78   124   127    1
    79   151   150    1
    80    91    90   ar
    81    91    92    1
    82   128   127    1
    83   128   129    1
    84   147   145   ar
    85   150   148   ar
    86   129   131   ar
    87   129   130   ar
    88   145   144    1
    89   145   146   ar
    90   148   146   ar
    91     1     2    1
    92     1     7    1
    93   144   141    1
    94   141   142    1
    95   141   140    1
    96     2     3    1
    97     2     5    1
    98    10    11    2
    99    10     9    1
   100     4     3    2
   101     3     8   am
   102     7     6    1
   103     8     9    1
   104   142   143    2
   105     9    12    1
   106     6     5    1
   107   122   121    1
   108    12    13    1
   109   119   121   ar
   110   119   117   ar
   111   121   120   ar
   112    97    98    1
   113    97    94    1
   114    13    14    1
   115    98   100   ar
   116    98    99   ar
   117   117   116   ar
   118   100   102   ar
   119   120   118   ar
   120    99   101   ar
   121   102   103   ar
   122    15    14   ar
   123   101   103   ar
   124    14    16   ar
   125    93    94    1
   126    94    95    1
   127    76    75    2
   128   116   118   ar
   129   116   115    1
   130    78    80    1
   131    78    77    1
   132    96    95    2
   133    75    74    1
   134   115   112    1
   135    74    77    1
   136    74    73    1
   137    77    79    1
   138   112   113    1
   139   112   111    1
   140   114   113    2
   141   109   110    1
   142   109   108    1
   143   110   104    1
   144   104   105    1
   145   105   108    1
   146   105   106    1
   147   107   106    2
