@<TRIPOS>MOLECULE
tmp/3q3gH00.pdb
 98 96 0 0 0
SMALL
GASTEIGER

@<TRIPOS>ATOM
      1  N        -48.5040   15.2540   30.4510 N.3     2  VAL2       -0.1245
      2  CA       -49.6790   15.7510   31.1860 C.3     2  VAL2        0.1561
      3  C        -50.6960   16.3520   30.1850 C.2     2  VAL2        0.2260
      4  O        -50.4480   17.4160   29.6000 O.2     2  VAL2       -0.2867
      5  CB       -49.2900   16.7160   32.3550 C.3     2  VAL2        0.0252
      6  CG1      -50.5120   17.4090   32.9530 C.3     2  VAL2        0.0019
      7  CG2      -48.5070   15.9750   33.4440 C.3     2  VAL2        0.0019
      8  N        -52.0850   12.7230   34.4770 N.3    26  GLY26      -0.1210
      9  CA       -51.0910   13.6220   35.0430 C.3    26  GLY26       0.1956
     10  C        -51.5580   14.3860   36.2570 C.2    26  GLY26       0.2612
     11  O        -50.7290   14.7700   37.0830 O.2    26  GLY26      -0.2717
     12  N        -52.8810   14.6150   36.3770 N.am   27  PHE27      -0.1962
     13  CA       -53.4640   15.3200   37.5190 C.3    27  PHE27       0.1771
     14  C        -54.8530   14.8340   37.9020 C.2    27  PHE27       0.2619
     15  O        -55.4880   14.0910   37.1510 O.2    27  PHE27      -0.2715
     16  CB       -53.3950   16.8510   37.3590 C.3    27  PHE27       0.0574
     17  CG       -54.1000   17.4220   36.1580 C.ar   27  PHE27      -0.0200
     18  CD1      -53.4250   17.6100   34.9600 C.ar   27  PHE27      -0.0042
     19  CD2      -55.4280   17.8210   36.2360 C.ar   27  PHE27      -0.0042
     20  CE1      -54.0770   18.1460   33.8440 C.ar   27  PHE27      -0.0003
     21  CE2      -56.0800   18.3580   35.1210 C.ar   27  PHE27      -0.0003
     22  CZ       -55.3980   18.5210   33.9330 C.ar   27  PHE27      -0.0000
     23  N        -55.3020   15.2560   39.0920 N.am   28  ASN28      -0.1972
     24  CA       -56.5820   14.9210   39.6930 C.3    28  ASN28       0.1688
     25  C        -57.6470   15.9400   39.3440 C.2    28  ASN28       0.2292
     26  O        -57.4050   17.1430   39.4840 O.2    28  ASN28      -0.2864
     27  CB       -56.4250   14.8710   41.2080 C.3    28  ASN28       0.1181
     28  CG       -56.6580   13.5130   41.7880 C.2    28  ASN28       0.2629
     29  OD1      -55.8430   12.5880   41.6140 O.2    28  ASN28      -0.2716
     30  ND2      -57.7810   13.3710   42.4930 N.am   28  ASN28      -0.0877
     31  N        -58.5500   18.7940   41.9040 N.3    31  ASP31      -0.1225
     32  CA       -57.6760   19.9730   42.0090 C.3    31  ASP31       0.1805
     33  C        -57.8900   21.0650   40.9460 C.2    31  ASP31       0.2597
     34  O        -57.1150   22.0180   40.8960 O.2    31  ASP31      -0.2718
     35  CB       -56.1920   19.5270   42.0640 C.3    31  ASP31       0.1424
     36  CG       -55.8710   18.4020   43.0550 C.2    31  ASP31       0.3668
     37  OD1      -56.4200   18.4240   44.1960 O.co2  31  ASP31      -0.2456
     38  OD2      -55.0510   17.5200   42.7040 O.co2  31  ASP31      -0.2456
     39  N        -58.9560   20.9450   40.1230 N.am   32  ILE32      -0.1980
     40  CA       -59.2720   21.8860   39.0420 C.3    32  ILE32       0.1595
     41  C        -60.7610   22.1570   38.8790 C.2    32  ILE32       0.2287
     42  O        -61.5760   21.6470   39.6410 O.2    32  ILE32      -0.2864
     43  CB       -58.6440   21.4320   37.6940 C.3    32  ILE32       0.0276
     44  CG1      -58.8840   19.9430   37.3790 C.3    32  ILE32       0.0022
     45  CG2      -57.2020   21.7810   37.6270 C.3    32  ILE32       0.0022
     46  CD1      -59.8480   19.7190   36.3080 C.3    32  ILE32       0.0001
     47  N        -59.2880   22.6090   31.4470 N.3    98  SER98      -0.1217
     48  CA       -59.1780   22.7100   32.8940 C.3    98  SER98       0.1889
     49  C        -58.6520   24.0640   33.3110 C.2    98  SER98       0.2288
     50  O        -57.6460   24.5240   32.7620 O.2    98  SER98      -0.2866
     51  CB       -58.3500   21.5620   33.4810 C.3    98  SER98       0.2089
     52  OG       -56.9500   21.7510   33.3700 O.3    98  SER98      -0.2183
     53  N        -57.0100   25.6730   36.2760 N.3   100  GLY100     -0.1210
     54  CA       -56.2530   25.2890   37.4560 C.3   100  GLY100      0.1956
     55  C        -56.3840   26.2680   38.5970 C.2   100  GLY100      0.2612
     56  O        -56.8280   27.4020   38.4040 O.2   100  GLY100     -0.2717
     57  N        -56.0100   25.8140   39.8050 N.am  101  HIS101     -0.1961
     58  CA       -56.0430   26.6130   41.0260 C.3   101  HIS101      0.1787
     59  C        -54.6070   26.8780   41.4290 C.2   101  HIS101      0.2620
     60  O        -53.9430   26.0070   42.0010 O.2   101  HIS101     -0.2715
     61  CB       -56.8710   25.9230   42.1330 C.3   101  HIS101      0.0785
     62  CG       -58.3150   25.6850   41.7730 C.ar  101  HIS101      0.0821
     63  ND1      -58.9370   24.4700   42.0330 N.ar  101  HIS101     -0.2267
     64  CD2      -59.2100   26.5090   41.1760 C.ar  101  HIS101      0.1154
     65  CE1      -60.1810   24.6040   41.6070 C.ar  101  HIS101      0.1986
     66  NE2      -60.3900   25.8070   41.0750 N.ar  101  HIS101     -0.2212
     67  N        -54.1030   28.0730   41.0620 N.am  102  TYR102     -0.1974
     68  CA       -52.7070   28.4340   41.3040 C.3   102  TYR102      0.1639
     69  C        -52.4460   29.5270   42.3460 C.2   102  TYR102      0.2290
     70  O        -51.4070   30.1910   42.2920 O.2   102  TYR102     -0.2864
     71  CB       -51.9820   28.6900   39.9700 C.3   102  TYR102      0.0560
     72  CG       -52.1160   27.5460   38.9880 C.ar  102  TYR102     -0.0198
     73  CD1      -51.4820   26.3280   39.2150 C.ar  102  TYR102     -0.0009
     74  CD2      -52.8870   27.6750   37.8370 C.ar  102  TYR102     -0.0009
     75  CE1      -51.6150   25.2660   38.3220 C.ar  102  TYR102      0.0417
     76  CE2      -53.0010   26.6290   36.9190 C.ar  102  TYR102      0.0417
     77  CZ       -52.3730   25.4210   37.1740 C.ar  102  TYR102      0.1957
     78  OH       -52.4840   24.3740   36.2950 O.3   102  TYR102     -0.2866
     79  N        -55.7660   26.5260   31.1930 N.3   110  ASP110     -0.1225
     80  CA       -54.3930   26.1340   30.8880 C.3   110  ASP110      0.1805
     81  C        -54.1640   24.7950   30.1870 C.2   110  ASP110      0.2597
     82  O        -53.1180   24.6130   29.5460 O.2   110  ASP110     -0.2718
     83  CB       -53.4560   26.3490   32.0850 C.3   110  ASP110      0.1424
     84  CG       -53.7630   25.5640   33.3440 C.2   110  ASP110      0.3668
     85  OD1      -52.8080   25.0410   33.9570 O.co2 110  ASP110     -0.2456
     86  OD2      -54.9430   25.5560   33.7700 O.co2 110  ASP110     -0.2456
     87  N        -55.1340   23.8690   30.2970 N.am  111  TYR111     -0.1976
     88  CA       -55.0860   22.5710   29.6340 C.3   111  TYR111      0.1639
     89  C        -56.3450   22.3820   28.8260 C.2   111  TYR111      0.2290
     90  O        -57.4210   22.7550   29.2740 O.2   111  TYR111     -0.2864
     91  CB       -54.9270   21.4280   30.6310 C.3   111  TYR111      0.0560
     92  CG       -53.5680   21.3590   31.2850 C.ar  111  TYR111     -0.0198
     93  CD1      -52.4750   20.8230   30.6130 C.ar  111  TYR111     -0.0009
     94  CD2      -53.3880   21.7630   32.6040 C.ar  111  TYR111     -0.0009
     95  CE1      -51.2260   20.7280   31.2240 C.ar  111  TYR111      0.0417
     96  CE2      -52.1460   21.6690   33.2260 C.ar  111  TYR111      0.0417
     97  CZ       -51.0650   21.1610   32.5300 C.ar  111  TYR111      0.1957
     98  OH       -49.8430   21.0720   33.1490 O.3   111  TYR111     -0.2866
@<TRIPOS>BOND
     1    89    90    2
     2    89    88    1
     3    82    81    2
     4     4     3    2
     5    88    87    1
     6    88    91    1
     7     3     2    1
     8    81    87   am
     9    81    80    1
    10     1     2    1
    11    93    95   ar
    12    93    92   ar
    13    91    92    1
    14    80    79    1
    15    80    83    1
    16     2     5    1
    17    95    97   ar
    18    92    94   ar
    19    47    48    1
    20    83    84    1
    21     5     6    1
    22     5     7    1
    23    97    98    1
    24    97    96   ar
    25    94    96   ar
    26    50    49    2
    27    48    49    1
    28    48    51    1
    29    84    86   ar
    30    84    85   ar
    31    52    51    1
    32    20    22   ar
    33    20    18   ar
    34    22    21   ar
    35     8     9    1
    36    18    17   ar
    37     9    10    1
    38    21    19   ar
    39    17    19   ar
    40    17    16    1
    41    10    12   am
    42    10    11    2
    43    53    54    1
    44    78    77    1
    45    46    44    1
    46    12    13    1
    47    76    77   ar
    48    76    74   ar
    49    15    14    2
    50    77    75   ar
    51    16    13    1
    52    44    43    1
    53    54    55    1
    54    13    14    1
    55    45    43    1
    56    43    40    1
    57    74    72   ar
    58    14    23   am
    59    75    73   ar
    60    56    55    2
    61    55    57   am
    62    41    40    1
    63    41    42    2
    64    72    73   ar
    65    72    71    1
    66    40    39    1
    67    23    24    1
    68    25    26    2
    69    25    24    1
    70    24    27    1
    71    57    58    1
    72    71    68    1
    73    39    33   am
    74    34    33    2
    75    33    32    1
    76    58    59    1
    77    58    61    1
    78    67    68    1
    79    67    59   am
    80    66    64   ar
    81    66    65   ar
    82    64    62   ar
    83    27    28    1
    84    68    69    1
    85    59    60    2
    86    65    63   ar
    87    29    28    2
    88    62    63   ar
    89    62    61    1
    90    28    30   am
    91    31    32    1
    92    32    35    1
    93    35    36    1
    94    70    69    2
    95    38    36   ar
    96    36    37   ar
