@<TRIPOS>MOLECULE
tmp/3q3hA00.pdb
 152 146 0 0 0
SMALL
GASTEIGER

@<TRIPOS>ATOM
      1  N        -34.0300   48.1280    5.3860 N.3   279  SER279     -0.1217
      2  CA       -35.2390   47.4020    5.0710 C.3   279  SER279      0.1889
      3  C        -35.2150   45.8890    5.3900 C.2   279  SER279      0.2288
      4  O        -36.2740   45.2850    5.5820 O.2   279  SER279     -0.2866
      5  CB       -35.6870   47.6700    3.6490 C.3   279  SER279      0.2089
      6  OG       -34.8480   46.9510    2.7890 O.3   279  SER279     -0.2183
      7  N        -36.4640   45.7540    8.8770 N.3   282  ARG282     -0.1245
      8  CA       -37.8710   46.1270    8.8730 C.3   282  ARG282      0.1563
      9  C        -38.7950   45.0060    8.4080 C.2   282  ARG282      0.2260
     10  O        -39.8920   44.8470    8.9550 O.2   282  ARG282     -0.2867
     11  CB       -38.1190   47.4570    8.0910 C.3   282  ARG282      0.0307
     12  CG       -37.4180   48.6550    8.7930 C.3   282  ARG282      0.0489
     13  CD       -37.9040   50.0360    8.3920 C.3   282  ARG282      0.2205
     14  NE       -37.8940   50.1070    6.9420 N.pl3 282  ARG282     -0.0865
     15  CZ       -37.0410   50.8170    6.2210 C.cat 282  ARG282      0.5346
     16  NH1      -36.1440   51.5850    6.8100 N.pl3 282  ARG282      0.1354
     17  NH2      -37.1250   50.7830    4.8960 N.pl3 282  ARG282      0.1354
     18  N        -40.5610   56.7460   -7.9480 N.3   437  ALA437     -0.1231
     19  CA       -39.5530   56.5380   -6.9480 C.3   437  ALA437      0.1694
     20  C        -38.7070   55.3310   -7.4150 C.2   437  ALA437      0.2593
     21  O        -39.2170   54.2540   -7.6750 O.2   437  ALA437     -0.2718
     22  CB       -40.1870   56.2840   -5.6600 C.3   437  ALA437      0.0304
     23  N        -37.4170   55.5270   -7.5680 N.am  438  SER438     -0.1938
     24  CA       -36.6220   54.4830   -8.1910 C.3   438  SER438      0.2055
     25  C        -35.1100   54.5450   -7.8570 C.2   438  SER438      0.2643
     26  O        -34.5860   55.5860   -7.5220 O.2   438  SER438     -0.2714
     27  CB       -36.8340   54.5570   -9.7030 C.3   438  SER438      0.2130
     28  OG       -36.2990   53.3960  -10.3360 O.3   438  SER438     -0.2179
     29  N        -34.4310   53.4080   -7.9090 N.am  439  THR439     -0.1950
     30  CA       -32.9680   53.4010   -7.9210 C.3   439  THR439      0.1897
     31  C        -32.6110   53.4110   -9.3800 C.2   439  THR439      0.2313
     32  O        -33.4890   53.3370  -10.2350 O.2   439  THR439     -0.2863
     33  CB       -32.3990   52.1430   -7.2810 C.3   439  THR439      0.1794
     34  OG1      -33.0750   51.0140   -7.8280 O.3   439  THR439     -0.2208
     35  CG2      -32.6690   52.1710   -5.8270 C.3   439  THR439      0.0378
     36  N        -33.2670   50.0640  -11.4130 N.3   442  LYS442     -0.1245
     37  CA       -34.6520   49.7940  -11.8870 C.3   442  LYS442      0.1561
     38  C        -34.9540   50.4280  -13.2390 C.2   442  LYS442      0.2260
     39  O        -35.8850   49.9790  -13.9210 O.2   442  LYS442     -0.2867
     40  CB       -35.7360   50.1310  -10.8230 C.3   442  LYS442      0.0271
     41  CG       -35.5150   49.3410   -9.5280 C.3   442  LYS442      0.0035
     42  CD       -36.4890   49.7900   -8.4220 C.3   442  LYS442      0.0206
     43  CE       -36.3990   48.8370   -7.2840 C.3   442  LYS442      0.1093
     44  NZ       -37.4000   49.3220   -6.3040 N.3   442  LYS442     -0.1314
     45  N        -37.7970   60.6200   -8.3760 N.3   467  ALA467     -0.1231
     46  CA       -36.9850   60.7530   -7.1820 C.3   467  ALA467      0.1694
     47  C        -36.0630   59.5580   -7.2130 C.2   467  ALA467      0.2592
     48  O        -36.4610   58.4450   -6.8520 O.2   467  ALA467     -0.2718
     49  CB       -37.8330   60.7610   -5.9410 C.3   467  ALA467      0.0304
     50  N        -34.8310   59.7880   -7.6550 N.am  468  LEU468     -0.1966
     51  CA       -33.9190   58.7130   -7.8960 C.3   468  LEU468      0.1728
     52  C        -33.1530   58.4110   -6.6260 C.2   468  LEU468      0.2617
     53  O        -32.2990   59.2140   -6.1640 O.2   468  LEU468     -0.2715
     54  CB       -32.9600   59.1180   -8.9990 C.3   468  LEU468      0.0311
     55  CG       -33.2010   59.0270  -10.5090 C.3   468  LEU468      0.0022
     56  CD1      -34.4200   58.1540  -10.9680 C.3   468  LEU468      0.0001
     57  CD2      -33.2560   60.3940  -11.0850 C.3   468  LEU468      0.0001
     58  N        -33.4510   57.2710   -6.0280 N.am  469  GLY469     -0.1940
     59  CA       -32.6350   56.7950   -4.9270 C.3   469  GLY469      0.2014
     60  C        -31.1890   56.5320   -5.3330 C.2   469  GLY469      0.2638
     61  O        -30.9160   55.8010   -6.2580 O.2   469  GLY469     -0.2714
     62  N        -30.2690   57.1560   -4.6400 N.am  470  GLN470     -0.1977
     63  CA       -28.8630   56.9300   -4.8260 C.3   470  GLN470      0.1601
     64  C        -28.2440   57.4140   -6.1350 C.2   470  GLN470      0.2287
     65  O        -27.1290   57.1140   -6.3920 O.2   470  GLN470     -0.2864
     66  CB       -28.5380   55.4570   -4.5980 C.3   470  GLN470      0.0394
     67  CG       -28.2760   55.0700   -3.2070 C.3   470  GLN470      0.0908
     68  CD       -29.5170   54.9090   -2.3700 C.2   470  GLN470      0.2608
     69  OE1      -29.5640   55.3670   -1.2460 O.2   470  GLN470     -0.2717
     70  NE2      -30.5160   54.2630   -2.9110 N.am  470  GLN470     -0.0878
     71  N        -31.9010   64.2050   -8.0130 N.3   495  PRO495     -0.2102
     72  CA       -30.8670   63.2650   -7.5000 C.3   495  PRO495      0.1504
     73  C        -31.2630   62.7090   -6.1360 C.2   495  PRO495      0.2576
     74  O        -32.2310   63.1750   -5.5340 O.2   495  PRO495     -0.2718
     75  CB       -29.6060   64.1370   -7.3350 C.3   495  PRO495      0.0282
     76  CG       -30.0790   65.6300   -7.4610 C.3   495  PRO495      0.0208
     77  CD       -31.3630   65.5520   -8.3050 C.3   495  PRO495      0.0893
     78  N        -30.5270   61.7170   -5.6440 N.am  496  HIS496     -0.1962
     79  CA       -30.7750   61.2670   -4.2980 C.3   496  HIS496      0.1787
     80  C        -31.0780   62.4450   -3.3330 C.2   496  HIS496      0.2620
     81  O        -30.3360   63.4390   -3.2910 O.2   496  HIS496     -0.2715
     82  CB       -29.5930   60.4890   -3.7350 C.3   496  HIS496      0.0785
     83  CG       -29.9230   59.8930   -2.4220 C.ar  496  HIS496      0.0821
     84  ND1      -30.5900   58.6940   -2.3110 N.ar  496  HIS496     -0.2267
     85  CD2      -29.8520   60.4110   -1.1730 C.ar  496  HIS496      0.1154
     86  CE1      -30.8350   58.4580   -1.0350 C.ar  496  HIS496      0.1986
     87  NE2      -30.4100   59.4900   -0.3260 N.ar  496  HIS496     -0.2212
     88  N        -32.1470   62.3290   -2.5530 N.am  497  SER497     -0.1950
     89  CA       -32.4100   63.3680   -1.5380 C.3   497  SER497      0.1924
     90  C        -32.6970   62.7360   -0.1730 C.2   497  SER497      0.2314
     91  O        -33.0470   61.5620   -0.1130 O.2   497  SER497     -0.2863
     92  CB       -33.5550   64.2830   -1.9810 C.3   497  SER497      0.2116
     93  OG       -34.7530   63.5490   -1.9840 O.3   497  SER497     -0.2180
     94  N        -34.7580   61.8880    3.3710 N.3   499  TYR499     -0.1241
     95  CA       -36.1180   61.3530    3.4300 C.3   499  TYR499      0.1605
     96  C        -37.2060   62.4420    3.3770 C.2   499  TYR499      0.2264
     97  O        -38.0820   62.3910    2.5340 O.2   499  TYR499     -0.2867
     98  CB       -36.3070   60.3940    4.6030 C.3   499  TYR499      0.0534
     99  CG       -37.6440   59.6770    4.6200 C.ar  499  TYR499     -0.0201
    100  CD1      -37.9420   58.7010    3.6850 C.ar  499  TYR499     -0.0009
    101  CD2      -38.5870   59.9440    5.5940 C.ar  499  TYR499     -0.0009
    102  CE1      -39.1430   58.0290    3.6830 C.ar  499  TYR499      0.0417
    103  CE2      -39.8170   59.2720    5.6130 C.ar  499  TYR499      0.0417
    104  CZ       -40.0850   58.3190    4.6450 C.ar  499  TYR499      0.1957
    105  OH       -41.2780   57.6220    4.6410 O.3   499  TYR499     -0.2866
    106  N        -37.4090   63.9540   -0.1190 N.3   502  TYR502     -0.1241
    107  CA       -37.9760   62.9380   -0.9950 C.3   502  TYR502      0.1605
    108  C        -39.5240   62.8340   -0.8280 C.2   502  TYR502      0.2264
    109  O        -40.2590   62.6910   -1.7770 O.2   502  TYR502     -0.2867
    110  CB       -37.2600   61.6130   -0.7050 C.3   502  TYR502      0.0534
    111  CG       -38.0280   60.4000   -1.0140 C.ar  502  TYR502     -0.0201
    112  CD1      -37.9830   59.8340   -2.2930 C.ar  502  TYR502     -0.0009
    113  CD2      -38.8310   59.8010   -0.0450 C.ar  502  TYR502     -0.0009
    114  CE1      -38.7410   58.7260   -2.5890 C.ar  502  TYR502      0.0417
    115  CE2      -39.5640   58.6940   -0.3200 C.ar  502  TYR502      0.0417
    116  CZ       -39.5270   58.1510   -1.6020 C.ar  502  TYR502      0.1957
    117  OH       -40.2720   57.0020   -1.8980 O.3   502  TYR502     -0.2866
    118  N        -41.3900   48.4320   -6.9180 N.3   520  ASN520     -0.1225
    119  CA       -41.0840   48.9170   -5.5650 C.3   520  ASN520      0.1785
    120  C        -41.7190   48.1250   -4.4250 C.2   520  ASN520      0.2598
    121  O        -42.5460   47.2300   -4.6170 O.2   520  ASN520     -0.2718
    122  CB       -41.4540   50.3930   -5.4200 C.3   520  ASN520      0.1169
    123  CG       -40.6430   51.3050   -6.3510 C.2   520  ASN520      0.2627
    124  OD1      -39.5920   50.9160   -6.8970 O.2   520  ASN520     -0.2716
    125  ND2      -41.1260   52.5250   -6.5300 N.am  520  ASN520     -0.0877
    126  N        -41.3260   48.4750   -3.2240 N.am  521  THR521     -0.1939
    127  CA       -41.9380   47.9580   -2.0750 C.3   521  THR521      0.2028
    128  C        -42.1110   49.1700   -1.1930 C.2   521  THR521      0.2642
    129  O        -43.2030   49.6260   -0.9980 O.2   521  THR521     -0.2714
    130  CB       -41.0470   46.8570   -1.4680 C.3   521  THR521      0.1808
    131  OG1      -40.8120   45.8480   -2.4670 O.3   521  THR521     -0.2208
    132  CG2      -41.6980   46.2160   -0.2660 C.3   521  THR521      0.0379
    133  N        -41.0190   49.7190   -0.7410 N.am  522  ASN522     -0.1957
    134  CA       -41.0400   50.8810    0.0820 C.3   522  ASN522      0.1819
    135  C        -41.6600   52.0740   -0.5840 C.2   522  ASN522      0.2621
    136  O        -42.3390   52.8130    0.0380 O.2   522  ASN522     -0.2715
    137  CB       -39.6410   51.1910    0.5710 C.3   522  ASN522      0.1195
    138  CG       -39.4070   50.7160    1.9580 C.2   522  ASN522      0.2630
    139  OD1      -40.0430   51.1620    2.8670 O.2   522  ASN522     -0.2716
    140  ND2      -38.5020   49.8140    2.1210 N.am  522  ASN522     -0.0877
    141  N        -41.4170   52.2380   -1.8640 N.am  523  GLY523     -0.1954
    142  CA       -42.0750   53.2810   -2.6590 C.3   523  GLY523      0.1869
    143  C        -43.5880   53.1990   -2.4270 C.2   523  GLY523      0.2309
    144  O        -44.2560   54.2190   -2.1120 O.2   523  GLY523     -0.2863
    145  N        -44.6420   54.5130    0.9420 N.3   526  ASP526     -0.1239
    146  CA       -44.5670   55.9720    0.9410 C.3   526  ASP526      0.1674
    147  C        -45.7430   56.5460    0.1560 C.2   526  ASP526      0.2266
    148  O        -46.3190   57.5320    0.5700 O.2   526  ASP526     -0.2867
    149  CB       -43.2750   56.5090    0.3210 C.3   526  ASP526      0.1410
    150  CG       -42.0180   56.0580    1.0500 C.2   526  ASP526      0.3668
    151  OD1      -41.0220   55.7580    0.3690 O.co2 526  ASP526     -0.2456
    152  OD2      -41.9860   56.0170    2.2920 O.co2 526  ASP526     -0.2456
@<TRIPOS>BOND
     1    39    38    2
     2    38    37    1
     3    37    36    1
     4    37    40    1
     5    57    55    1
     6    56    55    1
     7    40    41    1
     8    55    54    1
     9    28    27    1
    10    32    31    2
    11    27    24    1
    12    41    42    1
    13    31    30    1
    14    54    51    1
    15    42    43    1
    16    45    46    1
    17    77    71    1
    18    77    76    1
    19    24    25    1
    20    24    23    1
    21    71    72    1
    22    18    19    1
    23    30    29    1
    24    30    33    1
    25    29    25   am
    26    51    50    1
    27    51    52    1
    28    25    26    2
    29    34    33    1
    30    21    20    2
    31    50    47   am
    32    23    20   am
    33    72    75    1
    34    72    73    1
    35    76    75    1
    36    20    19    1
    37    43    44    1
    38    33    35    1
    39    47    46    1
    40    47    48    2
    41    46    49    1
    42    19    22    1
    43   118   119    1
    44   124   123    2
    45    52    53    2
    46    52    58   am
    47   125   123   am
    48    65    64    2
    49   123   122    1
    50    61    60    2
    51    73    78   am
    52    73    74    2
    53    64    63    1
    54    58    59    1
    55    78    79    1
    56   119   122    1
    57   119   120    1
    58    60    59    1
    59    60    62   am
    60    63    62    1
    61    63    66    1
    62   121   120    2
    63    66    67    1
    64   120   126   am
    65    79    82    1
    66    79    80    1
    67    82    83    1
    68    80    81    2
    69    80    88   am
    70   126   127    1
    71    67    68    1
    72    70    68   am
    73   142   143    1
    74   142   141    1
    75   114   112   ar
    76   114   116   ar
    77    88    89    1
    78   131   130    1
    79   143   144    2
    80    83    84   ar
    81    83    85   ar
    82    68    69    2
    83    84    86   ar
    84   112   111   ar
    85   127   130    1
    86   127   128    1
    87    93    92    1
    88    92    89    1
    89   117   116    1
    90   141   135   am
    91   109   108    2
    92   116   115   ar
    93    89    90    1
    94   130   132    1
    95   128   129    2
    96   128   133   am
    97    85    87   ar
    98    86    87   ar
    99   111   110    1
   100   111   113   ar
   101   107   108    1
   102   107   110    1
   103   107   106    1
   104   133   134    1
   105   135   136    2
   106   135   134    1
   107   115   113   ar
   108    90    91    2
   109   134   137    1
   110   147   148    2
   111   147   146    1
   112   149   146    1
   113   149   150    1
   114   151   150   ar
   115   137   138    1
   116   146   145    1
   117   150   152   ar
   118   138   140   am
   119   138   139    2
   120    97    96    2
   121     6     5    1
   122    94    95    1
   123    96    95    1
   124    95    98    1
   125     5     2    1
   126   102   100   ar
   127   102   104   ar
   128   100    99   ar
   129    98    99    1
   130    99   101   ar
   131   105   104    1
   132   104   103   ar
   133    17    15    1
   134     2     1    1
   135     2     3    1
   136     3     4    2
   137   101   103   ar
   138    15    16    1
   139    15    14    2
   140    14    13    1
   141    11    12    1
   142    11     8    1
   143    13    12    1
   144     9     8    1
   145     9    10    2
   146     8     7    1
