@<TRIPOS>MOLECULE
tmp/3q3mA00.pdb
 129 121 0 0 0
SMALL
GASTEIGER

@<TRIPOS>ATOM
      1  N         28.8200   17.6060   14.9200 N.3    99  ILE99      -0.1245
      2  CA        30.0190   16.7730   15.1320 C.3    99  ILE99       0.1561
      3  C         31.2610   17.2180   14.3490 C.2    99  ILE99       0.2260
      4  O         32.3580   17.2420   14.9060 O.2    99  ILE99      -0.2867
      5  CB        29.7230   15.2750   14.8450 C.3    99  ILE99       0.0252
      6  CG1       28.6730   14.7330   15.8310 C.3    99  ILE99       0.0019
      7  CG2       30.9790   14.4150   14.9860 C.3    99  ILE99       0.0019
      8  CD1       29.0520   14.9170   17.2760 C.3    99  ILE99       0.0001
      9  N         33.5490   19.9960   15.6510 N.3   102  GLY102     -0.1210
     10  CA        33.8730   19.6220   17.0270 C.3   102  GLY102      0.1956
     11  C         34.9500   18.5540   17.0780 C.2   102  GLY102      0.2611
     12  O         35.8620   18.6030   17.9270 O.2   102  GLY102     -0.2717
     13  N         34.8730   17.5860   16.1630 N.am  103  GLU103     -0.1979
     14  CA        35.9810   16.6350   15.9910 C.3   103  GLU103      0.1602
     15  C         37.2740   17.3850   15.6970 C.2   103  GLU103      0.2287
     16  O         38.3340   17.1090   16.2850 O.2   103  GLU103     -0.2864
     17  CB        35.6990   15.7100   14.8020 C.3   103  GLU103      0.0415
     18  CG        34.4900   14.8290   15.0020 C.3   103  GLU103      0.1163
     19  CD        34.8530   13.4710   15.5320 C.2   103  GLU103      0.3649
     20  OE1       34.0440   12.5500   15.3290 O.co2 103  GLU103     -0.2457
     21  OE2       35.9360   13.3390   16.1580 O.co2 103  GLU103     -0.2457
     22  N         38.7350   18.7420   18.7130 N.3   106  ALA106     -0.1245
     23  CA        39.3510   17.7350   19.5610 C.3   106  ALA106      0.1562
     24  C         40.8310   17.5560   19.2280 C.2   106  ALA106      0.2260
     25  O         41.5890   17.0670   20.0640 O.2   106  ALA106     -0.2867
     26  CB        38.6270   16.3880   19.4670 C.3   106  ALA106      0.0290
     27  N         41.7980   12.7010   15.2970 N.3   133  GLU133     -0.1245
     28  CA        40.7470   13.7290   15.2680 C.3   133  GLU133      0.1567
     29  C         40.7790   14.5120   13.9570 C.2   133  GLU133      0.2260
     30  O         39.7390   14.9330   13.4620 O.2   133  GLU133     -0.2867
     31  CB        40.8090   14.6730   16.4850 C.3   133  GLU133      0.0388
     32  CG        40.6720   13.9630   17.8570 C.3   133  GLU133      0.1160
     33  CD        39.4330   13.0650   18.0510 C.2   133  GLU133      0.3649
     34  OE1       38.5810   12.9150   17.1630 O.co2 133  GLU133     -0.2457
     35  OE2       39.3190   12.4870   19.1480 O.co2 133  GLU133     -0.2457
     36  N         38.8450   12.4400   11.6480 N.3   136  HIS136     -0.1241
     37  CA        37.4100   12.4750   11.9330 C.3   136  HIS136      0.1621
     38  C         36.7940   13.7830   11.4560 C.2   136  HIS136      0.2264
     39  O         35.7020   13.7890   10.8960 O.2   136  HIS136     -0.2867
     40  CB        37.1630   12.2900   13.4310 C.3   136  HIS136      0.0745
     41  CG        37.6540   10.9770   13.9400 C.ar  136  HIS136      0.0817
     42  ND1       37.6960   10.6580   15.2800 N.ar  136  HIS136     -0.2268
     43  CD2       38.1600    9.9060   13.2790 C.ar  136  HIS136      0.1154
     44  CE1       38.1790    9.4340   15.4260 C.ar  136  HIS136      0.1986
     45  NE2       38.4690    8.9530   14.2270 N.ar  136  HIS136     -0.2212
     46  N         32.1260   21.5340   24.4990 N.3   175  PHE175     -0.1241
     47  CA        33.4160   21.1170   23.9920 C.3   175  PHE175      0.1605
     48  C         34.5280   22.0780   24.3490 C.2   175  PHE175      0.2264
     49  O         35.6570   21.6460   24.5530 O.2   175  PHE175     -0.2867
     50  CB        33.3720   20.8280   22.4840 C.3   175  PHE175      0.0534
     51  CG        32.5240   19.6250   22.1540 C.ar  175  PHE175     -0.0203
     52  CD1       32.7940   18.3940   22.7400 C.ar  175  PHE175     -0.0042
     53  CD2       31.4570   19.7210   21.2870 C.ar  175  PHE175     -0.0042
     54  CE1       32.0190   17.2750   22.4740 C.ar  175  PHE175     -0.0003
     55  CE2       30.6720   18.6120   21.0100 C.ar  175  PHE175     -0.0003
     56  CZ        30.9490   17.3830   21.6050 C.ar  175  PHE175     -0.0000
     57  N         37.2740   20.1200   26.1880 N.3   179  ILE179     -0.1245
     58  CA        38.3090   19.7680   25.2120 C.3   179  ILE179      0.1561
     59  C         39.3790   20.8360   25.0650 C.2   179  ILE179      0.2260
     60  O         40.5780   20.5500   25.2030 O.2   179  ILE179     -0.2867
     61  CB        37.7170   19.5330   23.8200 C.3   179  ILE179      0.0252
     62  CG1       36.6680   18.4150   23.8560 C.3   179  ILE179      0.0019
     63  CG2       38.8240   19.2530   22.7990 C.3   179  ILE179      0.0019
     64  CD1       36.1730   18.0290   22.4440 C.3   179  ILE179      0.0001
     65  N         37.7920   14.4190   28.6880 N.3   191  LEU191     -0.1245
     66  CA        37.5810   14.0480   27.2880 C.3   191  LEU191      0.1561
     67  C         37.8280   12.5520   27.0740 C.2   191  LEU191      0.2260
     68  O         36.8900   11.7910   26.8050 O.2   191  LEU191     -0.2867
     69  CB        38.4560   14.8850   26.3390 C.3   191  LEU191      0.0270
     70  CG        38.3070   14.4420   24.8700 C.3   191  LEU191      0.0019
     71  CD1       36.8820   14.6460   24.3490 C.3   191  LEU191      0.0001
     72  CD2       39.3090   15.1770   23.9850 C.3   191  LEU191      0.0001
     73  N         34.0130   11.4850   28.4540 N.3   195  PHE195     -0.1227
     74  CA        33.2230   11.6270   27.2370 C.3   195  PHE195      0.1736
     75  C         33.4560   10.4730   26.2430 C.2   195  PHE195      0.2595
     76  O         32.5000    9.8970   25.7160 O.2   195  PHE195     -0.2718
     77  CB        33.5290   12.9760   26.5690 C.3   195  PHE195      0.0547
     78  CG        32.6940   13.2500   25.3590 C.ar  195  PHE195     -0.0202
     79  CD1       31.3190   13.3360   25.4600 C.ar  195  PHE195     -0.0042
     80  CD2       33.2780   13.4370   24.1140 C.ar  195  PHE195     -0.0042
     81  CE1       30.5260   13.5750   24.3240 C.ar  195  PHE195     -0.0003
     82  CE2       32.4920   13.6820   22.9790 C.ar  195  PHE195     -0.0003
     83  CZ        31.1180   13.7460   23.0900 C.ar  195  PHE195     -0.0000
     84  N         34.7160   10.1220   26.0050 N.am  196  GLU196     -0.1979
     85  CA        35.0810    9.2210   24.9100 C.3   196  GLU196      0.1602
     86  C         35.0080    7.7220   25.2200 C.2   196  GLU196      0.2287
     87  O         35.1730    6.9140   24.3100 O.2   196  GLU196     -0.2864
     88  CB        36.4950    9.5180   24.4000 C.3   196  GLU196      0.0415
     89  CG        36.6870   10.8380   23.6060 C.3   196  GLU196      0.1163
     90  CD        38.1460   11.0380   23.0940 C.2   196  GLU196      0.3649
     91  OE1       38.3790   11.5210   21.9490 O.co2 196  GLU196     -0.2457
     92  OE2       39.0810   10.7050   23.8440 O.co2 196  GLU196     -0.2457
     93  N         30.5430    8.7150   23.6180 N.3   200  THR200     -0.1218
     94  CA        30.6550    8.7010   22.1530 C.3   200  THR200      0.1862
     95  C         30.2020    7.3440   21.5890 C.2   200  THR200      0.2287
     96  O         29.7680    7.2660   20.4400 O.2   200  THR200     -0.2866
     97  CB        32.0540    9.0550   21.6190 C.3   200  THR200      0.1770
     98  OG1       33.0070    8.1650   22.1870 O.3   200  THR200     -0.2211
     99  CG2       32.3960   10.4960   21.9900 C.3   200  THR200      0.0375
    100  N         28.0910    7.1910   18.0600 N.3   204  PHE204     -0.1241
    101  CA        28.7870    6.5910   16.9220 C.3   204  PHE204      0.1605
    102  C         28.5720    5.1030   16.7310 C.2   204  PHE204      0.2264
    103  O         29.0070    4.5460   15.7010 O.2   204  PHE204     -0.2867
    104  CB        30.2890    6.8470   16.9590 C.3   204  PHE204      0.0534
    105  CG        30.6550    8.2880   16.7730 C.ar  204  PHE204     -0.0203
    106  CD1       30.7070    9.1470   17.8530 C.ar  204  PHE204     -0.0042
    107  CD2       30.9480    8.7830   15.5190 C.ar  204  PHE204     -0.0042
    108  CE1       31.0570   10.4930   17.6960 C.ar  204  PHE204     -0.0003
    109  CE2       31.2920   10.1480   15.3540 C.ar  204  PHE204     -0.0003
    110  CZ        31.3310   10.9900   16.4320 C.ar  204  PHE204     -0.0000
    111  N         38.6730    5.9050   18.2810 N.3   230  GLU230     -0.1245
    112  CA        38.3370    6.3320   19.6300 C.3   230  GLU230      0.1567
    113  C         38.6870    5.2570   20.6490 C.2   230  GLU230      0.2260
    114  O         39.1570    5.5600   21.7460 O.2   230  GLU230     -0.2867
    115  CB        36.8500    6.6740   19.7290 C.3   230  GLU230      0.0388
    116  CG        36.4490    7.2900   21.0570 C.3   230  GLU230      0.1160
    117  CD        37.0360    8.6730   21.2560 C.2   230  GLU230      0.3649
    118  OE1       38.0470    8.7950   21.9790 O.co2 230  GLU230     -0.2457
    119  OE2       36.4870    9.6380   20.6860 O.co2 230  GLU230     -0.2457
    120  N         42.5350    5.8100   21.2250 N.3   233  HIS233     -0.1241
    121  CA        42.9810    7.0060   21.9050 C.3   233  HIS233      0.1621
    122  C         42.2740    7.3570   23.2130 C.2   233  HIS233      0.2264
    123  O         42.8190    8.0420   24.0160 O.2   233  HIS233     -0.2867
    124  CB        43.1560    8.2200   21.0030 C.3   233  HIS233      0.0745
    125  CG        41.8880    8.7640   20.4300 C.ar  233  HIS233      0.0817
    126  ND1       41.6440    8.7950   19.0820 N.ar  233  HIS233     -0.2268
    127  CD2       40.8400    9.3770   21.0180 C.ar  233  HIS233      0.1154
    128  CE1       40.4870    9.3930   18.8720 C.ar  233  HIS233      0.1986
    129  NE2       39.9880    9.7590   20.0230 N.ar  233  HIS233     -0.2212
@<TRIPOS>BOND
     1    39    38    2
     2    38    37    1
     3    36    37    1
     4    37    40    1
     5    43    41   ar
     6    43    45   ar
     7    40    41    1
     8    30    29    2
     9    41    42   ar
    10    29    28    1
    11    45    44   ar
    12     3     4    2
    13     3     2    1
    14    17    18    1
    15    17    14    1
    16     5     7    1
    17     5     2    1
    18     5     6    1
    19     1     2    1
    20    18    19    1
    21    28    27    1
    22    28    31    1
    23    42    44   ar
    24    20    19   ar
    25   109   107   ar
    26   109   110   ar
    27   107   105   ar
    28    19    21   ar
    29     9    10    1
    30    15    14    1
    31    15    16    2
    32   103   102    2
    33     6     8    1
    34    14    13    1
    35    13    11   am
    36   110   108   ar
    37    31    32    1
    38   102   101    1
    39   105   104    1
    40   105   106   ar
    41   101   104    1
    42   101   100    1
    43    10    11    1
    44    11    12    2
    45    34    33   ar
    46   108   106   ar
    47    32    33    1
    48    33    35   ar
    49   111   112    1
    50    22    23    1
    51   128   126   ar
    52   128   129   ar
    53   126   125   ar
    54    24    23    1
    55    24    25    2
    56    26    23    1
    57   112   115    1
    58   112   113    1
    59   115   116    1
    60   129   127   ar
    61   125   124    1
    62   125   127   ar
    63    96    95    2
    64   113   114    2
    65   119   117   ar
    66   124   121    1
    67    55    53   ar
    68    55    56   ar
    69   116   117    1
    70   120   121    1
    71   117   118   ar
    72    53    51   ar
    73    95    94    1
    74    56    54   ar
    75    97    99    1
    76    97    94    1
    77    97    98    1
    78   121   122    1
    79    91    90   ar
    80    94    93    1
    81    51    50    1
    82    51    52   ar
    83    64    62    1
    84    54    52   ar
    85    50    47    1
    86    63    61    1
    87    82    83   ar
    88    82    80   ar
    89    83    81   ar
    90    90    89    1
    91    90    92   ar
    92   122   123    2
    93    89    88    1
    94    61    62    1
    95    61    58    1
    96    72    70    1
    97    47    48    1
    98    47    46    1
    99    80    78   ar
   100    87    86    2
   101    81    79   ar
   102    48    49    2
   103    71    70    1
   104    88    85    1
   105    70    69    1
   106    85    86    1
   107    85    84    1
   108    59    60    2
   109    59    58    1
   110    58    57    1
   111    78    79   ar
   112    78    77    1
   113    76    75    2
   114    84    75   am
   115    75    74    1
   116    69    66    1
   117    77    74    1
   118    68    67    2
   119    67    66    1
   120    74    73    1
   121    66    65    1
