@<TRIPOS>MOLECULE
tmp/3q3nA02.pdb
 106 104 0 0 0
SMALL
GASTEIGER

@<TRIPOS>ATOM
      1  N         63.3860   25.8180  -18.5830 N.3   337  TRP337     -0.1241
      2  CA        62.4960   26.8760  -18.1050 C.3   337  TRP337      0.1605
      3  C         61.6600   26.3970  -16.9180 C.2   337  TRP337      0.2264
      4  O         60.5260   26.8410  -16.7290 O.2   337  TRP337     -0.2867
      5  CB        61.5830   27.3760  -19.2390 C.3   337  TRP337      0.0550
      6  CG        62.2500   28.3900  -20.1460 C.ar  337  TRP337      0.0003
      7  CD1       62.1190   29.7500  -20.0970 C.ar  337  TRP337      0.0946
      8  CD2       63.1390   28.1130  -21.2350 C.ar  337  TRP337      0.0152
      9  NE1       62.8830   30.3360  -21.0780 N.ar  337  TRP337     -0.2442
     10  CE2       63.5160   29.3540  -21.7940 C.ar  337  TRP337      0.0810
     11  CE3       63.6530   26.9350  -21.7920 C.ar  337  TRP337      0.0012
     12  CZ2       64.3890   29.4520  -22.8750 C.ar  337  TRP337      0.0191
     13  CZ3       64.5210   27.0340  -22.8690 C.ar  337  TRP337      0.0001
     14  CH2       64.8770   28.2870  -23.4010 C.ar  337  TRP337      0.0015
     15  N         59.1550   28.4050  -14.5260 N.3   340  THR340     -0.1218
     16  CA        57.7980   28.7900  -14.9180 C.3   340  THR340      0.1862
     17  C         56.7790   27.6490  -14.7660 C.2   340  THR340      0.2287
     18  O         55.6010   27.8060  -15.0980 O.2   340  THR340     -0.2866
     19  CB        57.7550   29.2990  -16.3810 C.3   340  THR340      0.1770
     20  OG1       57.9980   28.2090  -17.2870 O.3   340  THR340     -0.2211
     21  CG2       58.7920   30.3860  -16.5930 C.3   340  THR340      0.0375
     22  N         67.3070   30.4250  -17.8760 N.3   389  PRO389     -0.2102
     23  CA        67.0970   31.2370  -19.0780 C.3   389  PRO389      0.1504
     24  C         67.0400   32.7370  -18.7960 C.2   389  PRO389      0.2576
     25  O         66.6750   33.1620  -17.7010 O.2   389  PRO389     -0.2718
     26  CB        65.7370   30.7550  -19.5750 C.3   389  PRO389      0.0282
     27  CG        65.0130   30.3910  -18.3080 C.3   389  PRO389      0.0208
     28  CD        66.0570   29.8040  -17.3950 C.3   389  PRO389      0.0893
     29  N         67.3830   33.5280  -19.8010 N.am  390  GLU390     -0.1966
     30  CA        67.2820   34.9750  -19.7010 C.3   390  GLU390      0.1733
     31  C         66.4390   35.5230  -20.8460 C.2   390  GLU390      0.2617
     32  O         66.5090   36.7040  -21.1820 O.2   390  GLU390     -0.2715
     33  CB        68.6760   35.5980  -19.6790 C.3   390  GLU390      0.0429
     34  CG        69.4810   35.1740  -18.4520 C.3   390  GLU390      0.1163
     35  CD        70.9290   35.6260  -18.5080 C.2   390  GLU390      0.3649
     36  OE1       71.2000   36.7230  -19.0420 O.co2 390  GLU390     -0.2457
     37  OE2       71.7970   34.8740  -18.0170 O.co2 390  GLU390     -0.2457
     38  N         65.6420   34.6470  -21.4480 N.am  391  THR391     -0.1937
     39  CA        64.7050   35.0600  -22.4940 C.3   391  THR391      0.2028
     40  C         63.5710   34.0540  -22.6190 C.2   391  THR391      0.2642
     41  O         63.6160   32.9990  -21.9900 O.2   391  THR391     -0.2714
     42  CB        65.3970   35.2380  -23.8620 C.3   391  THR391      0.1808
     43  OG1       64.4990   35.8960  -24.7650 O.3   391  THR391     -0.2208
     44  CG2       65.8030   33.8850  -24.4500 C.3   391  THR391      0.0379
     45  N         62.5610   34.3840  -23.4270 N.am  392  LEU392     -0.1963
     46  CA        61.4120   33.5070  -23.6450 C.3   392  LEU392      0.1713
     47  C         61.6750   32.5310  -24.7840 C.2   392  LEU392      0.2458
     48  O         62.3890   32.8510  -25.7290 O.2   392  LEU392     -0.2730
     49  CB        60.1760   34.3270  -24.0160 C.3   392  LEU392      0.0310
     50  CG        59.5270   35.2630  -23.0040 C.3   392  LEU392      0.0022
     51  CD1       58.5350   36.1650  -23.7090 C.3   392  LEU392      0.0001
     52  CD2       58.8320   34.4710  -21.9620 C.3   392  LEU392      0.0001
     53  N         61.1000   31.3300  -24.6960 N.am  393  PRO393     -0.2727
     54  CA        61.1150   30.4850  -25.8870 C.3   393  PRO393      0.1402
     55  C         60.0680   30.9930  -26.8580 C.2   393  PRO393      0.2269
     56  O         59.0980   31.6170  -26.4170 O.2   393  PRO393     -0.2865
     57  CB        60.7050   29.1120  -25.3430 C.3   393  PRO393      0.0296
     58  CG        59.9190   29.4060  -24.1230 C.3   393  PRO393      0.0237
     59  CD        60.4660   30.6680  -23.5390 C.3   393  PRO393      0.0939
     60  N         53.3590   39.0330  -24.3490 N.3   453  PHE453     -0.1241
     61  CA        54.5820   39.6670  -23.8550 C.3   453  PHE453      0.1605
     62  C         54.9960   40.7900  -24.8070 C.2   453  PHE453      0.2264
     63  O         55.3100   41.8990  -24.3840 O.2   453  PHE453     -0.2867
     64  CB        55.6920   38.6110  -23.7450 C.3   453  PHE453      0.0534
     65  CG        56.9530   39.1070  -23.1000 C.ar  453  PHE453     -0.0203
     66  CD1       57.1110   39.0520  -21.7190 C.ar  453  PHE453     -0.0042
     67  CD2       57.9890   39.6090  -23.8670 C.ar  453  PHE453     -0.0042
     68  CE1       58.2710   39.5060  -21.1170 C.ar  453  PHE453     -0.0003
     69  CE2       59.1560   40.0610  -23.2660 C.ar  453  PHE453     -0.0003
     70  CZ        59.2940   40.0060  -21.8890 C.ar  453  PHE453     -0.0000
     71  N         58.3070   43.6860  -18.2730 N.3   461  MET461     -0.1230
     72  CA        58.7630   42.7360  -19.2800 C.3   461  MET461      0.1702
     73  C         60.0760   42.0790  -18.8620 C.2   461  MET461      0.2593
     74  O         61.1370   42.3620  -19.4220 O.2   461  MET461     -0.2718
     75  CB        58.8910   43.4340  -20.6400 C.3   461  MET461      0.0401
     76  CG        57.5330   43.7500  -21.2640 C.3   461  MET461      0.0596
     77  SD        57.6130   44.7400  -22.7710 S.3   461  MET461     -0.1393
     78  CE        58.3060   43.5730  -23.9390 C.3   461  MET461      0.0692
     79  N         59.9890   41.2140  -17.8570 N.am  462  THR462     -0.1939
     80  CA        61.1500   40.5570  -17.2660 C.3   462  THR462      0.2028
     81  C         60.7050   39.1820  -16.8120 C.2   462  THR462      0.2642
     82  O         59.5160   38.8760  -16.8450 O.2   462  THR462     -0.2714
     83  CB        61.6330   41.2740  -16.0060 C.3   462  THR462      0.1808
     84  OG1       60.5610   41.3190  -15.0560 O.3   462  THR462     -0.2208
     85  CG2       62.1170   42.7000  -16.3130 C.3   462  THR462      0.0379
     86  N         61.6480   38.3670  -16.3530 N.am  463  LEU463     -0.1977
     87  CA        61.2990   37.0330  -15.8780 C.3   463  LEU463      0.1596
     88  C         60.3360   37.1280  -14.6970 C.2   463  LEU463      0.2287
     89  O         59.3600   36.3850  -14.6290 O.2   463  LEU463     -0.2864
     90  CB        62.5490   36.2330  -15.4990 C.3   463  LEU463      0.0297
     91  CG        62.3210   34.8110  -14.9620 C.3   463  LEU463      0.0022
     92  CD1       61.5670   33.9560  -15.9660 C.3   463  LEU463      0.0001
     93  CD2       63.6480   34.1680  -14.6010 C.3   463  LEU463      0.0001
     94  N         56.8440   38.1060  -15.8240 N.3   466  ALA466     -0.1245
     95  CA        56.1800   36.9730  -16.4530 C.3   466  ALA466      0.1562
     96  C         55.7270   35.9620  -15.4130 C.2   466  ALA466      0.2260
     97  O         54.6340   35.4150  -15.5160 O.2   466  ALA466     -0.2867
     98  CB        57.0920   36.3100  -17.4900 C.3   466  ALA466      0.0290
     99  N         51.9380   34.7970  -14.6710 N.3   470  MET470     -0.1245
    100  CA        51.5310   33.3950  -14.7320 C.3   470  MET470      0.1570
    101  C         50.8440   32.9100  -13.4500 C.2   470  MET470      0.2261
    102  O         50.3310   31.7960  -13.3990 O.2   470  MET470     -0.2867
    103  CB        52.7240   32.4910  -15.0670 C.3   470  MET470      0.0387
    104  CG        53.2880   32.6720  -16.4820 C.3   470  MET470      0.0595
    105  SD        54.5190   31.4080  -16.8670 S.3   470  MET470     -0.1393
    106  CE        55.3070   32.1300  -18.3000 C.3   470  MET470      0.0692
@<TRIPOS>BOND
     1    55    56    2
     2    55    54    1
     3    54    57    1
     4    54    53    1
     5    48    47    2
     6    57    58    1
     7    62    63    2
     8    62    61    1
     9    47    53   am
    10    47    46    1
    11    43    42    1
    12    53    59    1
    13    44    42    1
    14    60    61    1
    15    58    59    1
    16    49    46    1
    17    49    50    1
    18    78    77    1
    19    67    69   ar
    20    67    65   ar
    21    42    39    1
    22    61    64    1
    23    64    65    1
    24    51    50    1
    25    46    45    1
    26    45    40   am
    27    14    12   ar
    28    14    13   ar
    29    69    70   ar
    30    65    66   ar
    31    50    52    1
    32    12    10   ar
    33    13    11   ar
    34    77    76    1
    35    40    39    1
    36    40    41    2
    37    39    38    1
    38    70    68   ar
    39    10     8   ar
    40    10     9   ar
    41    11     8   ar
    42    66    68   ar
    43    38    31   am
    44    76    75    1
    45     8     6   ar
    46    32    31    2
    47     9     7   ar
    48    31    30    1
    49    75    72    1
    50     6     7   ar
    51     6     5    1
    52    29    30    1
    53    29    24   am
    54    30    33    1
    55    33    34    1
    56    26    23    1
    57    26    27    1
    58    74    73    2
    59    72    73    1
    60    72    71    1
    61     5     2    1
    62    23    24    1
    63    23    22    1
    64    36    35   ar
    65    73    79   am
    66    24    25    2
    67     1     2    1
    68    35    34    1
    69    35    37   ar
    70    27    28    1
    71   106   105    1
    72     2     3    1
    73    22    28    1
    74    79    80    1
    75    98    95    1
    76    20    19    1
    77    80    81    1
    78    80    83    1
    79     3     4    2
    80   105   104    1
    81    82    81    2
    82    81    86   am
    83    21    19    1
    84   104   103    1
    85    95    94    1
    86    95    96    1
    87    19    16    1
    88    86    87    1
    89    85    83    1
    90    83    84    1
    91    92    91    1
    92    87    90    1
    93    87    88    1
    94    97    96    2
    95    90    91    1
    96    18    17    2
    97   103   100    1
    98    91    93    1
    99    16    17    1
   100    16    15    1
   101   100    99    1
   102   100   101    1
   103    88    89    2
   104   101   102    2
