@<TRIPOS>MOLECULE
tmp/3q3nA01.pdb
 113 107 0 0 0
SMALL
GASTEIGER

@<TRIPOS>ATOM
      1  N         52.0510   29.0240  -18.5200 N.3   166  TRP166     -0.1241
      2  CA        52.1050   28.6200  -19.9280 C.3   166  TRP166      0.1605
      3  C         51.4960   27.2460  -20.2040 C.2   166  TRP166      0.2264
      4  O         50.8150   27.0620  -21.2140 O.2   166  TRP166     -0.2867
      5  CB        53.5280   28.7030  -20.4940 C.3   166  TRP166      0.0550
      6  CG        54.4300   27.6570  -19.9500 C.ar  166  TRP166      0.0003
      7  CD1       55.2370   27.7530  -18.8440 C.ar  166  TRP166      0.0946
      8  CD2       54.6030   26.3320  -20.4620 C.ar  166  TRP166      0.0152
      9  NE1       55.9070   26.5680  -18.6510 N.ar  166  TRP166     -0.2442
     10  CE2       55.5380   25.6820  -19.6320 C.ar  166  TRP166      0.0810
     11  CE3       54.0680   25.6360  -21.5550 C.ar  166  TRP166      0.0012
     12  CZ2       55.9450   24.3680  -19.8560 C.ar  166  TRP166      0.0191
     13  CZ3       54.4750   24.3330  -21.7740 C.ar  166  TRP166      0.0001
     14  CH2       55.3990   23.7100  -20.9250 C.ar  166  TRP166      0.0015
     15  N         62.9070   21.5720  -22.8060 N.3   333  GLY333     -0.1225
     16  CA        62.3090   22.8870  -22.6630 C.3   333  GLY333      0.1811
     17  C         61.6590   23.1120  -21.3070 C.2   333  GLY333      0.2280
     18  O         61.8500   24.1550  -20.6760 O.2   333  GLY333     -0.2866
     19  N         63.3860   25.8180  -18.5830 N.3   337  TRP337     -0.1241
     20  CA        62.4960   26.8760  -18.1050 C.3   337  TRP337      0.1605
     21  C         61.6600   26.3970  -16.9180 C.2   337  TRP337      0.2264
     22  O         60.5260   26.8410  -16.7290 O.2   337  TRP337     -0.2867
     23  CB        61.5830   27.3760  -19.2390 C.3   337  TRP337      0.0550
     24  CG        62.2500   28.3900  -20.1460 C.ar  337  TRP337      0.0003
     25  CD1       62.1190   29.7500  -20.0970 C.ar  337  TRP337      0.0946
     26  CD2       63.1390   28.1130  -21.2350 C.ar  337  TRP337      0.0152
     27  NE1       62.8830   30.3360  -21.0780 N.ar  337  TRP337     -0.2442
     28  CE2       63.5160   29.3540  -21.7940 C.ar  337  TRP337      0.0810
     29  CE3       63.6530   26.9350  -21.7920 C.ar  337  TRP337      0.0012
     30  CZ2       64.3890   29.4520  -22.8750 C.ar  337  TRP337      0.0191
     31  CZ3       64.5210   27.0340  -22.8690 C.ar  337  TRP337      0.0001
     32  CH2       64.8770   28.2870  -23.4010 C.ar  337  TRP337      0.0015
     33  N         59.1550   28.4050  -14.5260 N.3   340  THR340     -0.1218
     34  CA        57.7980   28.7900  -14.9180 C.3   340  THR340      0.1862
     35  C         56.7790   27.6490  -14.7660 C.2   340  THR340      0.2287
     36  O         55.6010   27.8060  -15.0980 O.2   340  THR340     -0.2866
     37  CB        57.7550   29.2990  -16.3810 C.3   340  THR340      0.1770
     38  OG1       57.9980   28.2090  -17.2870 O.3   340  THR340     -0.2211
     39  CG2       58.7920   30.3860  -16.5930 C.3   340  THR340      0.0375
     40  N         62.5610   34.3840  -23.4270 N.3   392  LEU392     -0.1231
     41  CA        61.4120   33.5070  -23.6450 C.3   392  LEU392      0.1678
     42  C         61.6750   32.5310  -24.7840 C.2   392  LEU392      0.2434
     43  O         62.3890   32.8510  -25.7290 O.2   392  LEU392     -0.2733
     44  CB        60.1760   34.3270  -24.0160 C.3   392  LEU392      0.0284
     45  CG        59.5270   35.2630  -23.0040 C.3   392  LEU392      0.0019
     46  CD1       58.5350   36.1650  -23.7090 C.3   392  LEU392      0.0001
     47  CD2       58.8320   34.4710  -21.9620 C.3   392  LEU392      0.0001
     48  N         61.1000   31.3300  -24.6960 N.am  393  PRO393     -0.2729
     49  CA        61.1150   30.4850  -25.8870 C.3   393  PRO393      0.1401
     50  C         60.0680   30.9930  -26.8580 C.2   393  PRO393      0.2269
     51  O         59.0980   31.6170  -26.4170 O.2   393  PRO393     -0.2865
     52  CB        60.7050   29.1120  -25.3430 C.3   393  PRO393      0.0296
     53  CG        59.9190   29.4060  -24.1230 C.3   393  PRO393      0.0237
     54  CD        60.4660   30.6680  -23.5390 C.3   393  PRO393      0.0939
     55  N         56.9050   30.2740  -29.0780 N.3   395  VAL395     -0.1245
     56  CA        55.7900   29.3780  -28.7460 C.3   395  VAL395      0.1561
     57  C         54.8270   29.1500  -29.9150 C.2   395  VAL395      0.2260
     58  O         54.5460   30.0650  -30.6900 O.2   395  VAL395     -0.2867
     59  CB        55.0060   29.9110  -27.5250 C.3   395  VAL395      0.0252
     60  CG1       53.7160   29.1260  -27.3100 C.3   395  VAL395      0.0019
     61  CG2       55.8750   29.8550  -26.2720 C.3   395  VAL395      0.0019
     62  N         50.5690   26.0610  -28.0310 N.3   400  GLN400     -0.1245
     63  CA        50.9960   26.9100  -26.9150 C.3   400  GLN400      0.1566
     64  C         52.2310   26.3470  -26.2090 C.2   400  GLN400      0.2260
     65  O         52.4890   26.6650  -25.0600 O.2   400  GLN400     -0.2867
     66  CB        49.8600   27.1180  -25.8910 C.3   400  GLN400      0.0367
     67  CG        48.4800   27.4380  -26.5110 C.3   400  GLN400      0.0905
     68  CD        48.4480   28.7400  -27.3000 C.2   400  GLN400      0.2608
     69  OE1       48.7920   29.8090  -26.7800 O.2   400  GLN400     -0.2717
     70  NE2       48.0230   28.6560  -28.5690 N.am  400  GLN400     -0.0878
     71  N         56.5520   25.4890  -26.5350 N.3   402  PRO402     -0.2116
     72  CA        57.7150   26.0080  -27.2740 C.3   402  PRO402      0.1372
     73  C         58.0100   25.3260  -28.6160 C.2   402  PRO402      0.2244
     74  O         57.7050   24.1470  -28.8060 O.2   402  PRO402     -0.2868
     75  CB        58.8570   25.7780  -26.2890 C.3   402  PRO402      0.0268
     76  CG        58.2160   26.0230  -24.9760 C.3   402  PRO402      0.0207
     77  CD        56.8470   25.3750  -25.0940 C.3   402  PRO402      0.0892
     78  N         51.2860   33.3030  -25.1690 N.3   449  ILE449     -0.1231
     79  CA        51.9370   34.0360  -24.0800 C.3   449  ILE449      0.1692
     80  C         53.0220   35.0000  -24.5720 C.2   449  ILE449      0.2591
     81  O         53.1840   36.1020  -24.0270 O.2   449  ILE449     -0.2718
     82  CB        52.4870   33.0510  -23.0070 C.3   449  ILE449      0.0266
     83  CG1       52.9280   33.7970  -21.7490 C.3   449  ILE449      0.0019
     84  CG2       53.6140   32.1940  -23.5640 C.3   449  ILE449      0.0020
     85  CD1       51.7840   34.2160  -20.8850 C.3   449  ILE449      0.0001
     86  N         53.7570   34.5890  -25.6010 N.am  450  VAL450     -0.1980
     87  CA        54.7980   35.4300  -26.1930 C.3   450  VAL450      0.1595
     88  C         54.2050   36.5930  -27.0050 C.2   450  VAL450      0.2287
     89  O         54.7300   37.7080  -26.9720 O.2   450  VAL450     -0.2864
     90  CB        55.7710   34.5910  -27.0580 C.3   450  VAL450      0.0276
     91  CG1       56.7950   35.4810  -27.7300 C.3   450  VAL450      0.0022
     92  CG2       56.4630   33.5240  -26.2020 C.3   450  VAL450      0.0022
     93  N         61.6480   38.3670  -16.3530 N.3   463  LEU463     -0.1245
     94  CA        61.2990   37.0330  -15.8780 C.3   463  LEU463      0.1561
     95  C         60.3360   37.1280  -14.6970 C.2   463  LEU463      0.2260
     96  O         59.3600   36.3850  -14.6290 O.2   463  LEU463     -0.2867
     97  CB        62.5490   36.2330  -15.4990 C.3   463  LEU463      0.0270
     98  CG        62.3210   34.8110  -14.9620 C.3   463  LEU463      0.0019
     99  CD1       61.5670   33.9560  -15.9660 C.3   463  LEU463      0.0001
    100  CD2       63.6480   34.1680  -14.6010 C.3   463  LEU463      0.0001
    101  N         56.8440   38.1060  -15.8240 N.3   466  ALA466     -0.1245
    102  CA        56.1800   36.9730  -16.4530 C.3   466  ALA466      0.1562
    103  C         55.7270   35.9620  -15.4130 C.2   466  ALA466      0.2260
    104  O         54.6340   35.4150  -15.5160 O.2   466  ALA466     -0.2867
    105  CB        57.0920   36.3100  -17.4900 C.3   466  ALA466      0.0290
    106  N         51.9380   34.7970  -14.6710 N.3   470  MET470     -0.1245
    107  CA        51.5310   33.3950  -14.7320 C.3   470  MET470      0.1570
    108  C         50.8440   32.9100  -13.4500 C.2   470  MET470      0.2261
    109  O         50.3310   31.7960  -13.3990 O.2   470  MET470     -0.2867
    110  CB        52.7240   32.4910  -15.0670 C.3   470  MET470      0.0387
    111  CG        53.2880   32.6720  -16.4820 C.3   470  MET470      0.0595
    112  SD        54.5190   31.4080  -16.8670 S.3   470  MET470     -0.1393
    113  CE        55.3070   32.1300  -18.3000 C.3   470  MET470      0.0692
@<TRIPOS>BOND
     1    58    57    2
     2    57    56    1
     3    55    56    1
     4    74    73    2
     5    56    59    1
     6    73    72    1
     7    70    68   am
     8    62    63    1
     9    91    90    1
    10    59    60    1
    11    59    61    1
    12    68    69    2
    13    68    67    1
    14    72    71    1
    15    72    75    1
    16    90    92    1
    17    90    87    1
    18    88    89    2
    19    88    87    1
    20    63    64    1
    21    63    66    1
    22    50    51    2
    23    50    49    1
    24    71    77    1
    25    67    66    1
    26    75    76    1
    27    64    65    2
    28    87    86    1
    29    49    52    1
    30    49    48    1
    31    43    42    2
    32    86    80   am
    33    52    53    1
    34    78    79    1
    35    77    76    1
    36    42    48   am
    37    42    41    1
    38    48    54    1
    39    80    79    1
    40    80    81    2
    41    53    54    1
    42    79    82    1
    43    44    41    1
    44    44    45    1
    45    46    45    1
    46    41    40    1
    47    84    82    1
    48    32    30   ar
    49    32    31   ar
    50    82    83    1
    51    45    47    1
    52    30    28   ar
    53    31    29   ar
    54    15    16    1
    55    16    17    1
    56    28    26   ar
    57    28    27   ar
    58    29    26   ar
    59    13    11   ar
    60    13    14   ar
    61    83    85    1
    62    11     8   ar
    63    17    18    2
    64    26    24   ar
    65     4     3    2
    66    27    25   ar
    67    14    12   ar
    68     5     6    1
    69     5     2    1
    70     8     6   ar
    71     8    10   ar
    72     3     2    1
    73    24    25   ar
    74    24    23    1
    75     6     7   ar
    76     2     1    1
    77    12    10   ar
    78    10     9   ar
    79    23    20    1
    80     7     9   ar
    81    19    20    1
    82   113   112    1
    83    20    21    1
    84   105   102    1
    85    38    37    1
    86    21    22    2
    87   112   111    1
    88    39    37    1
    89   111   110    1
    90   102   101    1
    91   102   103    1
    92    37    34    1
    93    93    94    1
    94    99    98    1
    95    94    97    1
    96    94    95    1
    97   104   103    2
    98    97    98    1
    99    36    35    2
   100   110   107    1
   101    98   100    1
   102    34    35    1
   103    34    33    1
   104   107   106    1
   105   107   108    1
   106    95    96    2
   107   108   109    2
