@<TRIPOS>MOLECULE
tmp/3q3nA00.pdb
 137 128 0 0 0
SMALL
GASTEIGER

@<TRIPOS>ATOM
      1  N         45.0380   18.2220  -14.9050 N.3    99  ILE99      -0.1245
      2  CA        43.8840   17.3480  -15.1350 C.3    99  ILE99       0.1561
      3  C         42.6140   17.7030  -14.3510 C.2    99  ILE99       0.2260
      4  O         41.5250   17.7520  -14.9210 O.2    99  ILE99      -0.2867
      5  CB        44.2470   15.8750  -14.8230 C.3    99  ILE99       0.0252
      6  CG1       45.3220   15.3670  -15.7870 C.3    99  ILE99       0.0019
      7  CG2       43.0090   14.9830  -14.8480 C.3    99  ILE99       0.0019
      8  CD1       44.9030   15.3630  -17.2350 C.3    99  ILE99       0.0001
      9  N         40.2090   20.3520  -15.6030 N.3   102  GLY102     -0.1210
     10  CA        39.8720   19.9790  -16.9720 C.3   102  GLY102      0.1956
     11  C         38.8180   18.8800  -16.9930 C.2   102  GLY102      0.2611
     12  O         37.9140   18.8900  -17.8320 O.2   102  GLY102     -0.2717
     13  N         38.9320   17.9270  -16.0690 N.am  103  GLU103     -0.1979
     14  CA        37.8960   16.9090  -15.8830 C.3   103  GLU103      0.1602
     15  C         36.5750   17.6150  -15.6190 C.2   103  GLU103      0.2287
     16  O         35.5390   17.2390  -16.1610 O.2   103  GLU103     -0.2864
     17  CB        38.2180   15.9920  -14.6900 C.3   103  GLU103      0.0415
     18  CG        39.4800   15.1620  -14.8500 C.3   103  GLU103      0.1163
     19  CD        39.1970   13.7790  -15.3900 C.2   103  GLU103      0.3649
     20  OE1       40.0080   12.8550  -15.1610 O.co2 103  GLU103     -0.2457
     21  OE2       38.1620   13.6170  -16.0510 O.co2 103  GLU103     -0.2457
     22  N         35.1670   18.9320  -18.6170 N.3   106  ALA106     -0.1245
     23  CA        34.5610   17.8840  -19.4520 C.3   106  ALA106      0.1562
     24  C         33.0790   17.6320  -19.1440 C.2   106  ALA106      0.2260
     25  O         32.3470   17.1290  -19.9940 O.2   106  ALA106     -0.2867
     26  CB        35.3570   16.5890  -19.3580 C.3   106  ALA106      0.0290
     27  N         32.3070   12.7850  -15.2420 N.3   133  GLU133     -0.1245
     28  CA        33.3500   13.8110  -15.1850 C.3   133  GLU133      0.1567
     29  C         33.2730   14.6140  -13.8900 C.2   133  GLU133      0.2260
     30  O         34.2820   15.0850  -13.3850 O.2   133  GLU133     -0.2867
     31  CB        33.2960   14.7390  -16.3970 C.3   133  GLU133      0.0388
     32  CG        33.3910   14.0290  -17.7530 C.3   133  GLU133      0.1160
     33  CD        34.7000   13.2610  -17.9730 C.2   133  GLU133      0.3649
     34  OE1       35.5500   13.1320  -17.0500 O.co2 133  GLU133     -0.2457
     35  OE2       34.8740   12.7650  -19.1060 O.co2 133  GLU133     -0.2457
     36  N         35.2440   12.5990  -11.5870 N.3   136  HIS136     -0.1241
     37  CA        36.6720   12.7170  -11.8630 C.3   136  HIS136      0.1621
     38  C         37.2670   14.0170  -11.3620 C.2   136  HIS136      0.2264
     39  O         38.3620   14.0160  -10.8070 O.2   136  HIS136     -0.2867
     40  CB        36.9450   12.5460  -13.3600 C.3   136  HIS136      0.0745
     41  CG        36.4690   11.2290  -13.8870 C.ar  136  HIS136      0.0817
     42  ND1       36.3970   10.9380  -15.2310 N.ar  136  HIS136     -0.2268
     43  CD2       36.0390   10.1190  -13.2390 C.ar  136  HIS136      0.1154
     44  CE1       35.9320    9.7130  -15.3920 C.ar  136  HIS136      0.1986
     45  NE2       35.7030    9.1920  -14.1970 N.ar  136  HIS136     -0.2212
     46  N         41.5980   21.9730  -24.3390 N.3   175  PHE175     -0.1241
     47  CA        40.3110   21.4920  -23.8520 C.3   175  PHE175      0.1605
     48  C         39.1520   22.4050  -24.2460 C.2   175  PHE175      0.2264
     49  O         38.0410   21.9340  -24.5250 O.2   175  PHE175     -0.2867
     50  CB        40.3510   21.2510  -22.3360 C.3   175  PHE175      0.0534
     51  CG        41.1760   20.0530  -21.9490 C.ar  175  PHE175     -0.0203
     52  CD1       40.9960   18.8350  -22.6010 C.ar  175  PHE175     -0.0042
     53  CD2       42.1360   20.1410  -20.9600 C.ar  175  PHE175     -0.0042
     54  CE1       41.7540   17.7250  -22.2610 C.ar  175  PHE175     -0.0003
     55  CE2       42.9080   19.0290  -20.6050 C.ar  175  PHE175     -0.0003
     56  CZ        42.7180   17.8260  -21.2520 C.ar  175  PHE175     -0.0000
     57  N         36.5310   20.3250  -26.1000 N.3   179  ILE179     -0.1245
     58  CA        35.5010   20.0060  -25.1210 C.3   179  ILE179      0.1561
     59  C         34.3920   21.0570  -25.0180 C.2   179  ILE179      0.2260
     60  O         33.2200   20.7550  -25.2110 O.2   179  ILE179     -0.2867
     61  CB        36.1020   19.8360  -23.7100 C.3   179  ILE179      0.0252
     62  CG1       37.1440   18.7120  -23.7080 C.3   179  ILE179      0.0019
     63  CG2       34.9980   19.5800  -22.6980 C.3   179  ILE179      0.0019
     64  CD1       37.6040   18.3090  -22.2880 C.3   179  ILE179      0.0001
     65  N         36.2640   14.7220  -28.5430 N.3   191  LEU191     -0.1245
     66  CA        36.4290   14.3400  -27.1420 C.3   191  LEU191      0.1561
     67  C         36.2200   12.8400  -26.9290 C.2   191  LEU191      0.2260
     68  O         37.1560   12.1250  -26.5670 O.2   191  LEU191     -0.2867
     69  CB        35.4840   15.1480  -26.2510 C.3   191  LEU191      0.0270
     70  CG        35.4290   14.7250  -24.7780 C.3   191  LEU191      0.0019
     71  CD1       36.7960   14.8530  -24.1340 C.3   191  LEU191      0.0001
     72  CD2       34.3860   15.5430  -24.0310 C.3   191  LEU191      0.0001
     73  N         40.0500   11.7570  -28.1860 N.3   195  PHE195     -0.1227
     74  CA        40.7880   11.9370  -26.9550 C.3   195  PHE195      0.1736
     75  C         40.5540   10.7980  -25.9680 C.2   195  PHE195      0.2595
     76  O         41.5030   10.2580  -25.3950 O.2   195  PHE195     -0.2718
     77  CB        40.3990   13.2740  -26.3090 C.3   195  PHE195      0.0547
     78  CG        41.2620   13.6600  -25.1390 C.ar  195  PHE195     -0.0202
     79  CD1       42.6160   13.8770  -25.3060 C.ar  195  PHE195     -0.0042
     80  CD2       40.7100   13.8290  -23.8760 C.ar  195  PHE195     -0.0042
     81  CE1       43.4080   14.2480  -24.2320 C.ar  195  PHE195     -0.0003
     82  CE2       41.5040   14.1940  -22.7990 C.ar  195  PHE195     -0.0003
     83  CZ        42.8560   14.4060  -22.9830 C.ar  195  PHE195     -0.0000
     84  N         39.2930   10.4330  -25.7690 N.am  196  GLU196     -0.1979
     85  CA        38.9400    9.5360  -24.6570 C.3   196  GLU196      0.1602
     86  C         39.0930    8.0450  -24.9680 C.2   196  GLU196      0.2287
     87  O         39.2800    7.2370  -24.0500 O.2   196  GLU196     -0.2864
     88  CB        37.5320    9.8310  -24.1240 C.3   196  GLU196      0.0415
     89  CG        37.3770   11.1990  -23.4370 C.3   196  GLU196      0.1163
     90  CD        35.9620   11.4210  -22.9000 C.2   196  GLU196      0.3649
     91  OE1       34.9950   10.9470  -23.5370 O.co2 196  GLU196     -0.2457
     92  OE2       35.8190   12.0460  -21.8310 O.co2 196  GLU196     -0.2457
     93  N         43.8060    9.2540  -23.5070 N.3   200  THR200     -0.1218
     94  CA        43.7810    9.2800  -22.0420 C.3   200  THR200      0.1862
     95  C         44.3610    8.0050  -21.4360 C.2   200  THR200      0.2287
     96  O         44.9220    8.0430  -20.3450 O.2   200  THR200     -0.2866
     97  CB        42.3870    9.5510  -21.4630 C.3   200  THR200      0.1770
     98  OG1       41.4640    8.5670  -21.9450 O.3   200  THR200     -0.2211
     99  CG2       41.9100   10.9470  -21.8610 C.3   200  THR200      0.0375
    100  N         46.2260    7.7130  -17.7320 N.3   204  PHE204     -0.1241
    101  CA        45.4580    7.0730  -16.6670 C.3   204  PHE204      0.1605
    102  C         45.7250    5.5670  -16.5010 C.2   204  PHE204      0.2264
    103  O         45.3520    4.9790  -15.4870 O.2   204  PHE204     -0.2867
    104  CB        43.9600    7.3270  -16.8580 C.3   204  PHE204      0.0534
    105  CG        43.5580    8.7580  -16.6230 C.ar  204  PHE204     -0.0203
    106  CD1       43.7460    9.7180  -17.6050 C.ar  204  PHE204     -0.0042
    107  CD2       42.9860    9.1420  -15.4220 C.ar  204  PHE204     -0.0042
    108  CE1       43.3830   11.0480  -17.3880 C.ar  204  PHE204     -0.0003
    109  CE2       42.6200   10.4670  -15.2000 C.ar  204  PHE204     -0.0003
    110  CZ        42.8200   11.4160  -16.1710 C.ar  204  PHE204     -0.0000
    111  N         39.1460    5.6350  -12.3560 N.3   226  ILE226     -0.1245
    112  CA        38.6360    6.7010  -13.2110 C.3   226  ILE226      0.1561
    113  C         38.4820    6.2170  -14.6660 C.2   226  ILE226      0.2260
    114  O         37.4770    6.4810  -15.3310 O.2   226  ILE226     -0.2867
    115  CB        39.5790    7.9250  -13.1340 C.3   226  ILE226      0.0252
    116  CG1       39.3290    8.6930  -11.8260 C.3   226  ILE226      0.0019
    117  CG2       39.3710    8.8490  -14.3450 C.3   226  ILE226      0.0019
    118  CD1       40.3150    9.8380  -11.5780 C.3   226  ILE226      0.0001
    119  N         35.6970    6.2370  -18.1200 N.3   230  GLU230     -0.1245
    120  CA        36.0870    6.7130  -19.4500 C.3   230  GLU230      0.1567
    121  C         35.7210    5.6530  -20.4740 C.2   230  GLU230      0.2260
    122  O         35.1730    5.9530  -21.5550 O.2   230  GLU230     -0.2867
    123  CB        37.5980    6.9610  -19.4790 C.3   230  GLU230      0.0388
    124  CG        38.1540    7.4570  -20.8220 C.3   230  GLU230      0.1160
    125  CD        38.1360    8.9610  -20.8960 C.2   230  GLU230      0.3649
    126  OE1       39.2030    9.5830  -21.0780 O.co2 230  GLU230     -0.2457
    127  OE2       37.0410    9.5220  -20.7480 O.co2 230  GLU230     -0.2457
    128  N         31.8410    5.9630  -21.1800 N.3   233  HIS233     -0.1241
    129  CA        31.3020    7.1560  -21.8460 C.3   233  HIS233      0.1621
    130  C         32.0490    7.5270  -23.1330 C.2   233  HIS233      0.2264
    131  O         31.5040    8.2240  -23.9840 O.2   233  HIS233     -0.2867
    132  CB        31.0880    8.3430  -20.8900 C.3   233  HIS233      0.0745
    133  CG        32.3420    8.9390  -20.3250 C.ar  233  HIS233      0.0817
    134  ND1       32.5560    9.0540  -18.9650 N.ar  233  HIS233     -0.2268
    135  CD2       33.4010    9.5370  -20.9240 C.ar  233  HIS233      0.1154
    136  CE1       33.7090    9.6670  -18.7530 C.ar  233  HIS233      0.1986
    137  NE2       34.2410    9.9710  -19.9250 N.ar  233  HIS233     -0.2212
@<TRIPOS>BOND
     1    65    66    1
     2    73    74    1
     3    66    67    1
     4    66    69    1
     5    74    77    1
     6    74    75    1
     7    67    68    2
     8    77    78    1
     9    69    70    1
    10    57    58    1
    11    75    84   am
    12    75    76    2
    13    84    85    1
    14    79    78   ar
    15    79    81   ar
    16    60    59    2
    17    78    80   ar
    18    58    59    1
    19    58    61    1
    20    86    85    1
    21    86    87    2
    22    70    71    1
    23    70    72    1
    24    85    88    1
    25    49    48    2
    26    46    47    1
    27    48    47    1
    28    81    83   ar
    29    88    89    1
    30   131   130    2
    31    80    82   ar
    32    47    50    1
    33    61    62    1
    34    61    63    1
    35    62    64    1
    36    91    90   ar
    37    93    94    1
    38    89    90    1
    39   130   129    1
    40    83    82   ar
    41    90    92   ar
    42    52    54   ar
    43    52    51   ar
    44    50    51    1
    45    54    56   ar
    46    94    97    1
    47    94    95    1
    48    51    53   ar
    49    98    97    1
    50    99    97    1
    51   129   128    1
    52   129   132    1
    53   122   121    2
    54    95    96    2
    55    56    55   ar
    56   126   125   ar
    57    53    55   ar
    58   135   133   ar
    59   135   137   ar
    60   125   124    1
    61   125   127   ar
    62   132   133    1
    63   124   123    1
    64   121   120    1
    65   133   134   ar
    66    25    24    2
    67   137   136   ar
    68   123   120    1
    69    23    26    1
    70    23    24    1
    71    23    22    1
    72   120   119    1
    73    35    33   ar
    74   134   136   ar
    75    33    32    1
    76    33    34   ar
    77    12    11    2
    78    32    31    1
    79   100   101    1
    80   106   108   ar
    81   106   105   ar
    82   108   110   ar
    83     8     6    1
    84    11    10    1
    85    11    13   am
    86    10     9    1
    87   104   101    1
    88   104   105    1
    89   101   102    1
    90   105   107   ar
    91   102   103    2
    92    31    28    1
    93   110   109   ar
    94    16    15    2
    95    13    14    1
    96    21    19   ar
    97    14    15    1
    98    14    17    1
    99     6     5    1
   100   107   109   ar
   101    44    42   ar
   102    44    45   ar
   103    19    20   ar
   104    19    18    1
   105   114   113    2
   106    27    28    1
   107    42    41   ar
   108    28    29    1
   109     2     1    1
   110     2     5    1
   111     2     3    1
   112     4     3    2
   113    18    17    1
   114     7     5    1
   115   113   112    1
   116   117   115    1
   117    45    43   ar
   118    29    30    2
   119    41    40    1
   120    41    43   ar
   121    40    37    1
   122   112   115    1
   123   112   111    1
   124   115   116    1
   125    37    36    1
   126    37    38    1
   127   116   118    1
   128    38    39    2
