@<TRIPOS>MOLECULE
tmp/3q3sA00.pdb
 231 226 0 0 0
SMALL
GASTEIGER

@<TRIPOS>ATOM
      1  N         25.3950   67.0300   11.7980 N.3    66  LEU66      -0.1245
      2  CA        26.6480   66.7560   12.4880 C.3    66  LEU66       0.1561
      3  C         26.4840   65.7000   13.6150 C.2    66  LEU66       0.2260
      4  O         27.2980   64.8120   13.7600 O.2    66  LEU66      -0.2867
      5  CB        27.2200   68.0580   13.0320 C.3    66  LEU66       0.0270
      6  CG        28.6810   67.9810   13.4940 C.3    66  LEU66       0.0019
      7  CD1       29.6650   67.4990   12.3900 C.3    66  LEU66       0.0001
      8  CD2       29.0690   69.3520   14.1040 C.3    66  LEU66       0.0001
      9  N         37.3280   61.6430    7.1790 N.3    81  MET81      -0.1230
     10  CA        36.5050   61.9120    8.3510 C.3    81  MET81       0.1702
     11  C         36.2520   63.4230    8.5130 C.2    81  MET81       0.2592
     12  O         35.1280   63.8410    8.7450 O.2    81  MET81      -0.2718
     13  CB        37.1460   61.3400    9.6340 C.3    81  MET81       0.0401
     14  CG        36.6760   62.0660   10.9080 C.3    81  MET81       0.0596
     15  SD        37.4350   61.6860   12.5140 S.3    81  MET81      -0.1393
     16  CE        39.0330   62.4930   12.4710 C.3    81  MET81       0.0692
     17  N         37.3220   64.2180    8.4170 N.am   82  TRP82      -0.1976
     18  CA        37.2410   65.6790    8.5040 C.3    82  TRP82       0.1640
     19  C         36.4390   66.2450    7.3330 C.2    82  TRP82       0.2290
     20  O         35.5880   67.1190    7.5320 O.2    82  TRP82      -0.2864
     21  CB        38.6520   66.2870    8.5860 C.3    82  TRP82       0.0576
     22  CG        39.2570   66.0340    9.9810 C.ar   82  TRP82       0.0006
     23  CD1       40.3000   65.2300   10.2850 C.ar   82  TRP82       0.0946
     24  CD2       38.7770   66.5720   11.2310 C.ar   82  TRP82       0.0152
     25  NE1       40.5260   65.2400   11.6560 N.ar   82  TRP82      -0.2442
     26  CE2       39.5990   66.0490   12.2550 C.ar   82  TRP82       0.0810
     27  CE3       37.7170   67.4270   11.5820 C.ar   82  TRP82       0.0012
     28  CZ2       39.4150   66.3710   13.6100 C.ar   82  TRP82       0.0191
     29  CZ3       37.5510   67.7700   12.9320 C.ar   82  TRP82       0.0001
     30  CH2       38.4020   67.2460   13.9220 C.ar   82  TRP82       0.0015
     31  N         32.7350   65.9330    7.8860 N.3    85  GLY85      -0.1210
     32  CA        32.1880   66.9280    8.8260 C.3    85  GLY85       0.1956
     33  C         32.0730   68.3110    8.2280 C.2    85  GLY85       0.2611
     34  O         31.0690   69.0070    8.4180 O.2    85  GLY85      -0.2717
     35  N         33.1160   68.7460    7.5330 N.am   86  ILE86      -0.1979
     36  CA        33.0700   70.0460    6.8530 C.3    86  ILE86       0.1595
     37  C         31.9530   70.0880    5.7980 C.2    86  ILE86       0.2287
     38  O         31.2070   71.0730    5.6990 O.2    86  ILE86      -0.2864
     39  CB        34.4550   70.3960    6.2230 C.3    86  ILE86       0.0276
     40  CG1       35.5340   70.5030    7.3260 C.3    86  ILE86       0.0022
     41  CG2       34.3680   71.7150    5.4790 C.3    86  ILE86       0.0022
     42  CD1       36.9620   70.6520    6.7670 C.3    86  ILE86       0.0001
     43  N         28.4360   71.4010    6.5630 N.3    89  PHE89      -0.1241
     44  CA        28.2500   72.8200    6.5270 C.3    89  PHE89       0.1605
     45  C         28.1890   73.3000    5.0840 C.2    89  PHE89       0.2264
     46  O         27.3190   74.0890    4.7290 O.2    89  PHE89      -0.2867
     47  CB        29.3790   73.4770    7.3440 C.3    89  PHE89       0.0534
     48  CG        29.2270   73.2030    8.8130 C.ar   89  PHE89      -0.0203
     49  CD1       29.8700   72.1120    9.4110 C.ar   89  PHE89      -0.0042
     50  CD2       28.2940   73.9210    9.5410 C.ar   89  PHE89      -0.0042
     51  CE1       29.6660   71.8290   10.7780 C.ar   89  PHE89      -0.0003
     52  CE2       28.0890   73.6360   10.9010 C.ar   89  PHE89      -0.0003
     53  CZ        28.7800   72.5800   11.4980 C.ar   89  PHE89      -0.0000
     54  N         24.6060   74.7840    4.3880 N.3    93  PHE93      -0.1241
     55  CA        24.5750   76.2240    4.1880 C.3    93  PHE93       0.1605
     56  C         24.5420   76.5510    2.6720 C.2    93  PHE93       0.2264
     57  O         23.9260   77.5260    2.2500 O.2    93  PHE93      -0.2867
     58  CB        25.7670   76.8740    4.9040 C.3    93  PHE93       0.0534
     59  CG        25.6630   76.8320    6.4110 C.ar   93  PHE93      -0.0203
     60  CD1       26.8020   76.7920    7.1980 C.ar   93  PHE93      -0.0042
     61  CD2       24.4110   76.8500    7.0470 C.ar   93  PHE93      -0.0042
     62  CE1       26.7120   76.7910    8.5770 C.ar   93  PHE93      -0.0003
     63  CE2       24.3060   76.8150    8.4550 C.ar   93  PHE93      -0.0003
     64  CZ        25.4510   76.7890    9.2200 C.ar   93  PHE93      -0.0000
     65  N         21.8510   79.4570    0.8970 N.3    97  LYS97      -0.1245
     66  CA        22.8460   80.5430    0.8160 C.3    97  LYS97       0.1561
     67  C         22.2610   81.9020    1.2020 C.2    97  LYS97       0.2260
     68  O         22.9320   82.7470    1.8430 O.2    97  LYS97      -0.2867
     69  CB        23.3720   80.6500   -0.6270 C.3    97  LYS97       0.0271
     70  CG        24.4620   79.6360   -0.9970 C.3    97  LYS97       0.0035
     71  CD        24.8280   79.8370   -2.4740 C.3    97  LYS97       0.0206
     72  CE        25.8760   78.8720   -2.9800 C.3    97  LYS97       0.1093
     73  NZ        25.3780   77.4750   -3.1500 N.3    97  LYS97      -0.1314
     74  N         21.4010   81.9870    4.9180 N.3   100  THR100     -0.1203
     75  CA        22.6480   81.8470    5.6530 C.3   100  THR100      0.1994
     76  C         23.4400   83.2140    5.5800 C.2   100  THR100      0.2617
     77  O         23.9780   83.7300    6.5680 O.2   100  THR100     -0.2717
     78  CB        23.2840   80.5220    5.1080 C.3   100  THR100      0.1784
     79  OG1       23.5030   79.5950    6.1630 O.3   100  THR100     -0.2211
     80  CG2       24.4760   80.7070    4.2480 C.3   100  THR100      0.0376
     81  N         23.3990   83.8240    4.4100 N.am  101  ARG101     -0.1979
     82  CA        23.9920   85.1220    4.1510 C.3   101  ARG101      0.1597
     83  C         23.2680   86.2780    4.8660 C.2   101  ARG101      0.2287
     84  O         23.9120   87.1520    5.4210 O.2   101  ARG101     -0.2864
     85  CB        23.9990   85.3100    2.6400 C.3   101  ARG101      0.0334
     86  CG        24.1460   86.6900    2.1480 C.3   101  ARG101      0.0492
     87  CD        25.2640   86.7210    1.1170 C.3   101  ARG101      0.2205
     88  NE        24.9620   85.9750   -0.0910 N.pl3 101  ARG101     -0.0865
     89  CZ        24.9930   86.5050   -1.3100 C.cat 101  ARG101      0.5346
     90  NH1       25.3310   87.7810   -1.4870 N.pl3 101  ARG101      0.1354
     91  NH2       24.7040   85.7380   -2.3540 N.pl3 101  ARG101      0.1354
     92  N         24.1360   86.4520    8.5810 N.3   104  GLN104     -0.1245
     93  CA        25.4030   87.1340    8.8560 C.3   104  GLN104      0.1566
     94  C         25.1860   88.6410    8.8580 C.2   104  GLN104      0.2260
     95  O         25.6120   89.3160    9.7870 O.2   104  GLN104     -0.2867
     96  CB        26.5080   86.7520    7.8550 C.3   104  GLN104      0.0367
     97  CG        27.0200   85.3060    7.9830 C.3   104  GLN104      0.0905
     98  CD        27.3500   84.8880    9.4010 C.2   104  GLN104      0.2608
     99  OE1       26.8020   83.9170    9.8900 O.2   104  GLN104     -0.2717
    100  NE2       28.2230   85.6360   10.0770 N.am  104  GLN104     -0.0878
    101  N         23.7080   82.6260   16.5080 N.3   117  TRP117     -0.1241
    102  CA        24.9560   82.2610   15.8200 C.3   117  TRP117      0.1605
    103  C         26.0610   81.8920   16.8220 C.2   117  TRP117      0.2264
    104  O         26.6820   80.8370   16.7370 O.2   117  TRP117     -0.2867
    105  CB        25.4140   83.3480   14.8350 C.3   117  TRP117      0.0550
    106  CG        26.4720   82.7830   13.9110 C.ar  117  TRP117      0.0003
    107  CD1       27.8400   82.9340   13.9970 C.ar  117  TRP117      0.0946
    108  CD2       26.2320   81.8920   12.8100 C.ar  117  TRP117      0.0152
    109  NE1       28.4630   82.2270   12.9580 N.ar  117  TRP117     -0.2442
    110  CE2       27.4960   81.5610   12.2440 C.ar  117  TRP117      0.0810
    111  CE3       25.0670   81.3350   12.2510 C.ar  117  TRP117      0.0012
    112  CZ2       27.6170   80.7080   11.1450 C.ar  117  TRP117      0.0191
    113  CZ3       25.1920   80.4990   11.1330 C.ar  117  TRP117      0.0001
    114  CH2       26.4600   80.2020   10.5930 C.ar  117  TRP117      0.0015
    115  N         28.1230   78.4000   17.1500 N.3   121  MET121     -0.1245
    116  CA        29.5710   78.4310   16.9290 C.3   121  MET121      0.1570
    117  C         30.2970   77.8540   18.1530 C.2   121  MET121      0.2261
    118  O         31.2010   77.0510   18.0270 O.2   121  MET121     -0.2867
    119  CB        30.0270   79.8540   16.5980 C.3   121  MET121      0.0387
    120  CG        29.6370   80.2990   15.2090 C.3   121  MET121      0.0595
    121  SD        30.4580   79.3300   13.8820 S.3   121  MET121     -0.1393
    122  CE        32.1740   79.6950   14.0430 C.3   121  MET121      0.0692
    123  N         29.7990   74.0320   18.0200 N.3   124  TRP124     -0.1241
    124  CA        30.6390   73.4350   16.9530 C.3   124  TRP124      0.1605
    125  C         32.1290   73.4590   17.2530 C.2   124  TRP124      0.2264
    126  O         32.8290   72.4870   17.0030 O.2   124  TRP124     -0.2867
    127  CB        30.3140   74.1090   15.5980 C.3   124  TRP124      0.0550
    128  CG        28.8460   73.8910   15.2250 C.ar  124  TRP124      0.0003
    129  CD1       28.0400   72.8200   15.5850 C.ar  124  TRP124      0.0946
    130  CD2       28.0360   74.7530   14.4370 C.ar  124  TRP124      0.0152
    131  NE1       26.7860   72.9790   15.0470 N.ar  124  TRP124     -0.2442
    132  CE2       26.7470   74.1560   14.3480 C.ar  124  TRP124      0.0810
    133  CE3       28.2680   75.9730   13.7730 C.ar  124  TRP124      0.0012
    134  CZ2       25.7050   74.7550   13.6390 C.ar  124  TRP124      0.0191
    135  CZ3       27.2210   76.5730   13.0940 C.ar  124  TRP124      0.0001
    136  CH2       25.9660   75.9660   13.0240 C.ar  124  TRP124      0.0015
    137  N         32.7810   70.8110   20.0490 N.3   127  TYR127     -0.1227
    138  CA        32.8370   69.4380   19.4570 C.3   127  TYR127      0.1736
    139  C         34.1330   69.2100   18.5890 C.2   127  TYR127      0.2596
    140  O         34.8270   68.1890   18.6970 O.2   127  TYR127     -0.2718
    141  CB        31.5350   69.1510   18.7100 C.3   127  TYR127      0.0548
    142  CG        31.5320   67.7990   18.0820 C.ar  127  TYR127     -0.0200
    143  CD1       31.6560   66.6430   18.8590 C.ar  127  TYR127     -0.0009
    144  CD2       31.4450   67.6650   16.6910 C.ar  127  TYR127     -0.0009
    145  CE1       31.6770   65.3760   18.2490 C.ar  127  TYR127      0.0417
    146  CE2       31.4510   66.4100   16.0750 C.ar  127  TYR127      0.0417
    147  CZ        31.5630   65.2910   16.8440 C.ar  127  TYR127      0.1957
    148  OH        31.6130   64.0710   16.2030 O.3   127  TYR127     -0.2866
    149  N         34.4960   70.1970   17.7720 N.am  128  THR128     -0.1953
    150  CA        35.7560   70.1150   17.0340 C.3   128  THR128      0.1897
    151  C         36.9560   69.8370   17.9450 C.2   128  THR128      0.2313
    152  O         37.7830   68.9790   17.6350 O.2   128  THR128     -0.2863
    153  CB        36.0390   71.4270   16.2540 C.3   128  THR128      0.1794
    154  OG1       34.9720   71.7000   15.3380 O.3   128  THR128     -0.2208
    155  CG2       37.3380   71.2790   15.4530 C.3   128  THR128      0.0378
    156  N         36.9300   66.2160   19.3550 N.3   131  VAL131     -0.1245
    157  CA        37.5580   65.3180   18.3590 C.3   131  VAL131      0.1561
    158  C         39.0760   65.4430   18.2490 C.2   131  VAL131      0.2260
    159  O         39.7610   64.4360   18.1800 O.2   131  VAL131     -0.2867
    160  CB        36.9240   65.4350   16.9160 C.3   131  VAL131      0.0252
    161  CG1       37.5410   64.4090   15.9730 C.3   131  VAL131      0.0019
    162  CG2       35.4120   65.2490   16.9650 C.3   131  VAL131      0.0019
    163  N         37.1770   76.7950   12.5730 N.3   155  ASN155     -0.1240
    164  CA        35.7610   77.0870   12.3650 C.3   155  ASN155      0.1653
    165  C         35.5150   78.5280   11.9110 C.2   155  ASN155      0.2266
    166  O         34.6820   78.7620   11.0390 O.2   155  ASN155     -0.2867
    167  CB        34.9690   76.7890   13.6550 C.3   155  ASN155      0.1155
    168  CG        34.6460   75.3210   13.7930 C.2   155  ASN155      0.2627
    169  OD1       33.6520   74.8450   13.2220 O.2   155  ASN155     -0.2716
    170  ND2       35.4580   74.5980   14.5500 N.am  155  ASN155     -0.0877
    171  N         36.3860   78.5810    8.2630 N.3   158  ASN158     -0.1225
    172  CA        35.3200   78.0150    7.4200 C.3   158  ASN158      0.1785
    173  C         34.1430   78.9210    7.2840 C.2   158  ASN158      0.2597
    174  O         33.5610   79.0030    6.2150 O.2   158  ASN158     -0.2718
    175  CB        34.8790   76.6240    7.9090 C.3   158  ASN158      0.1169
    176  CG        35.9160   75.5760    7.6250 C.2   158  ASN158      0.2627
    177  OD1       37.0990   75.8940    7.4160 O.2   158  ASN158     -0.2716
    178  ND2       35.4960   74.3090    7.6150 N.am  158  ASN158     -0.0877
    179  N         33.7290   79.5410    8.3960 N.am  159  GLU159     -0.1979
    180  CA        32.6470   80.5210    8.3740 C.3   159  GLU159      0.1602
    181  C         32.8690   81.5850    7.2870 C.2   159  GLU159      0.2287
    182  O         31.9950   81.8470    6.4230 O.2   159  GLU159     -0.2864
    183  CB        32.5010   81.1700    9.7610 C.3   159  GLU159      0.0415
    184  CG        31.3440   82.1910    9.7910 C.3   159  GLU159      0.1163
    185  CD        31.4430   83.0940   10.9770 C.2   159  GLU159      0.3649
    186  OE1       31.3300   82.6000   12.0900 O.co2 159  GLU159     -0.2457
    187  OE2       31.6240   84.3060   10.8030 O.co2 159  GLU159     -0.2457
    188  N         33.5730   79.9000    3.4290 N.3   162  LEU162     -0.1231
    189  CA        32.3520   79.3980    2.7840 C.3   162  LEU162      0.1693
    190  C         31.4050   80.5440    2.4750 C.2   162  LEU162      0.2592
    191  O         30.8300   80.5870    1.3910 O.2   162  LEU162     -0.2718
    192  CB        31.6390   78.3540    3.6440 C.3   162  LEU162      0.0284
    193  CG        32.3610   77.0180    3.7900 C.3   162  LEU162      0.0019
    194  CD1       31.4740   76.0990    4.6310 C.3   162  LEU162      0.0001
    195  CD2       32.6250   76.3810    2.4580 C.3   162  LEU162      0.0001
    196  N         31.3220   81.5030    3.3950 N.am  163  PHE163     -0.1976
    197  CA        30.5640   82.7450    3.1680 C.3   163  PHE163      0.1639
    198  C         31.0610   83.4970    1.9130 C.2   163  PHE163      0.2290
    199  O         30.2870   83.7780    0.9840 O.2   163  PHE163     -0.2864
    200  CB        30.5280   83.6490    4.4170 C.3   163  PHE163      0.0560
    201  CG        29.7260   84.9270    4.2060 C.ar  163  PHE163     -0.0200
    202  CD1       28.4650   85.0690    4.7520 C.ar  163  PHE163     -0.0042
    203  CD2       30.1950   85.9310    3.3540 C.ar  163  PHE163     -0.0042
    204  CE1       27.6960   86.2210    4.4960 C.ar  163  PHE163     -0.0003
    205  CE2       29.4350   87.0900    3.1040 C.ar  163  PHE163     -0.0003
    206  CZ        28.2010   87.2160    3.6780 C.ar  163  PHE163     -0.0000
    207  N         30.1040   81.3430   -1.1740 N.3   166  PHE166     -0.1241
    208  CA        28.6600   81.3450   -1.4550 C.3   166  PHE166      0.1605
    209  C         28.1120   82.7240   -1.8600 C.2   166  PHE166      0.2264
    210  O         27.1120   82.8110   -2.5820 O.2   166  PHE166     -0.2867
    211  CB        27.8590   80.8070   -0.2390 C.3   166  PHE166      0.0534
    212  CG        28.1700   79.3490    0.1260 C.ar  166  PHE166     -0.0203
    213  CD1       27.7880   78.8420    1.3560 C.ar  166  PHE166     -0.0042
    214  CD2       28.7940   78.4980   -0.7730 C.ar  166  PHE166     -0.0042
    215  CE1       28.0430   77.5070    1.7030 C.ar  166  PHE166     -0.0003
    216  CE2       29.0250   77.1480   -0.4340 C.ar  166  PHE166     -0.0003
    217  CZ        28.6720   76.6760    0.8230 C.ar  166  PHE166     -0.0000
    218  N         42.6240   72.0020    7.4570 N.3   186  TRP186     -0.1241
    219  CA        42.2210   71.3510    8.7130 C.3   186  TRP186      0.1605
    220  C         43.1150   70.1560    9.0000 C.2   186  TRP186      0.2264
    221  O         43.6240   70.0290   10.1000 O.2   186  TRP186     -0.2867
    222  CB        40.7750   70.8830    8.6770 C.3   186  TRP186      0.0550
    223  CG        39.7460   71.9660    8.9730 C.ar  186  TRP186      0.0003
    224  CD1       39.5930   73.1520    8.3310 C.ar  186  TRP186      0.0946
    225  CD2       38.7020   71.9030    9.9550 C.ar  186  TRP186      0.0152
    226  NE1       38.5170   73.8410    8.8620 N.ar  186  TRP186     -0.2442
    227  CE2       37.9620   73.0920    9.8590 C.ar  186  TRP186      0.0810
    228  CE3       38.3340   70.9550   10.9200 C.ar  186  TRP186      0.0012
    229  CZ2       36.8450   73.3620   10.6910 C.ar  186  TRP186      0.0191
    230  CZ3       37.2480   71.2330   11.7520 C.ar  186  TRP186      0.0001
    231  CH2       36.5230   72.4200   11.6270 C.ar  186  TRP186      0.0015
@<TRIPOS>BOND
     1    73    72    1
     2    72    71    1
     3   210   209    2
     4    71    70    1
     5    91    89    1
     6   209   208    1
     7    90    89    1
     8   208   207    1
     9   208   211    1
    10    89    88    2
    11    70    69    1
    12   214   216   ar
    13   214   212   ar
    14    69    66    1
    15   216   217   ar
    16   211   212    1
    17    88    87    1
    18   212   213   ar
    19    66    65    1
    20    66    67    1
    21   217   215   ar
    22   199   198    2
    23    87    86    1
    24    67    68    2
    25   213   215   ar
    26   191   190    2
    27   198   197    1
    28    86    85    1
    29    57    56    2
    30   195   193    1
    31   190   189    1
    32   190   196   am
    33    85    82    1
    34    56    55    1
    35   189   188    1
    36   189   192    1
    37   205   203   ar
    38   205   206   ar
    39   197   196    1
    40   197   200    1
    41   203   201   ar
    42   192   193    1
    43   206   204   ar
    44   193   194    1
    45    82    81    1
    46    82    83    1
    47    55    54    1
    48    55    58    1
    49   201   200    1
    50   201   202   ar
    51    80    78    1
    52    81    76   am
    53   204   202   ar
    54    46    45    2
    55    83    84    2
    56    58    59    1
    57    74    75    1
    58    45    44    1
    59    78    75    1
    60    78    79    1
    61    41    39    1
    62    76    75    1
    63    76    77    2
    64    38    37    2
    65    37    36    1
    66   174   173    2
    67    39    36    1
    68    39    40    1
    69    59    61   ar
    70    59    60   ar
    71   182   181    2
    72    44    43    1
    73    44    47    1
    74    42    40    1
    75    36    35    1
    76    61    63   ar
    77     9    10    1
    78    60    62   ar
    79   173   172    1
    80   173   179   am
    81   181   180    1
    82    19    20    2
    83    19    18    1
    84    47    48    1
    85   177   176    2
    86   172   175    1
    87   172   171    1
    88   218   219    1
    89    35    33   am
    90   178   176   am
    91   176   175    1
    92    96    97    1
    93    96    93    1
    94    31    32    1
    95    97    98    1
    96    33    34    2
    97    33    32    1
    98   224   226   ar
    99   224   223   ar
   100    10    11    1
   101    10    13    1
   102   180   179    1
   103   180   183    1
   104    17    18    1
   105    17    11   am
   106    63    64   ar
   107    18    21    1
   108    11    12    2
   109    62    64   ar
   110    92    93    1
   111    21    22    1
   112   222   219    1
   113   222   223    1
   114   219   220    1
   115    48    49   ar
   116    48    50   ar
   117    93    94    1
   118    94    95    2
   119   226   227   ar
   120   223   225   ar
   121   220   221    2
   122    98    99    2
   123    98   100   am
   124    49    51   ar
   125    50    52   ar
   126    13    14    1
   127   183   184    1
   128   184   185    1
   129   227   225   ar
   130   227   229   ar
   131   225   228   ar
   132    22    23   ar
   133    22    24   ar
   134    23    25   ar
   135   114   113   ar
   136   114   112   ar
   137   229   231   ar
   138    51    53   ar
   139   187   185   ar
   140    52    53   ar
   141    14    15    1
   142   228   230   ar
   143   185   186   ar
   144   166   165    2
   145   113   111   ar
   146   112   110   ar
   147    24    27   ar
   148    24    26   ar
   149    27    29   ar
   150   231   230   ar
   151    25    26   ar
   152     1     2    1
   153   165   164    1
   154   110   108   ar
   155   110   109   ar
   156   111   108   ar
   157    26    28   ar
   158   164   163    1
   159   164   167    1
   160     7     6    1
   161    16    15    1
   162     2     5    1
   163     2     3    1
   164   108   106   ar
   165    29    30   ar
   166   109   107   ar
   167   136   135   ar
   168   136   134   ar
   169     5     6    1
   170   135   133   ar
   171   169   168    2
   172     6     8    1
   173    28    30   ar
   174     3     4    2
   175   134   132   ar
   176   167   168    1
   177   133   130   ar
   178   168   170   am
   179   121   122    1
   180   121   120    1
   181   106   107   ar
   182   106   105    1
   183   132   130   ar
   184   132   131   ar
   185   130   128   ar
   186   105   102    1
   187   131   129   ar
   188   120   119    1
   189   128   129   ar
   190   128   127    1
   191   154   153    1
   192   155   153    1
   193   127   124    1
   194   102   101    1
   195   102   103    1
   196   161   160    1
   197   146   144   ar
   198   146   147   ar
   199   148   147    1
   200   153   150    1
   201   119   116    1
   202   144   142   ar
   203   104   103    2
   204   147   145   ar
   205   160   162    1
   206   160   157    1
   207   116   115    1
   208   116   117    1
   209   124   125    1
   210   124   123    1
   211   126   125    2
   212   150   149    1
   213   150   151    1
   214   152   151    2
   215   149   139   am
   216   118   117    2
   217   142   141    1
   218   142   143   ar
   219   159   158    2
   220   145   143   ar
   221   158   157    1
   222   157   156    1
   223   139   140    2
   224   139   138    1
   225   141   138    1
   226   138   137    1
