@<TRIPOS>MOLECULE
tmp/3q3tB00.pdb
 192 185 0 0 0
SMALL
GASTEIGER

@<TRIPOS>ATOM
      1  N         40.9840  -27.2170  -18.1650 N.3    15  THR15      -0.1203
      2  CA        40.0220  -26.6560  -19.0550 C.3    15  THR15       0.1994
      3  C         40.5910  -26.1340  -20.3730 C.2    15  THR15       0.2618
      4  O         39.8620  -25.9540  -21.2970 O.2    15  THR15      -0.2717
      5  CB        39.1900  -25.5960  -18.3310 C.3    15  THR15       0.1784
      6  OG1       40.0470  -24.7250  -17.6580 O.3    15  THR15      -0.2211
      7  CG2       38.3370  -26.1790  -17.3220 C.3    15  THR15       0.0376
      8  N         41.8850  -25.8730  -20.4260 N.am   16  GLN16      -0.1965
      9  CA        42.5590  -25.4120  -21.6210 C.3    16  GLN16       0.1733
     10  C         43.7820  -26.2850  -21.8930 C.2    16  GLN16       0.2616
     11  O         44.6160  -26.4030  -21.0580 O.2    16  GLN16      -0.2715
     12  CB        42.9560  -23.9450  -21.4620 C.3    16  GLN16       0.0408
     13  CG        41.8220  -22.9950  -21.2830 C.3    16  GLN16       0.0908
     14  CD        42.1820  -21.5570  -21.4660 C.2    16  GLN16       0.2608
     15  OE1       43.0470  -21.2310  -22.2050 O.2    16  GLN16      -0.2717
     16  NE2       41.4740  -20.6980  -20.8200 N.am   16  GLN16      -0.0878
     17  N         43.8750  -26.9290  -23.0460 N.am   17  TYR17      -0.1974
     18  CA        45.0500  -27.7080  -23.3940 C.3    17  TYR17       0.1639
     19  C         45.6460  -27.1420  -24.6640 C.2    17  TYR17       0.2290
     20  O         44.9620  -26.9370  -25.6080 O.2    17  TYR17      -0.2864
     21  CB        44.7590  -29.1980  -23.5370 C.3    17  TYR17       0.0560
     22  CG        44.3520  -29.9860  -22.3050 C.ar   17  TYR17      -0.0198
     23  CD1       45.2250  -30.8180  -21.6670 C.ar   17  TYR17      -0.0009
     24  CD2       43.0660  -29.9440  -21.8250 C.ar   17  TYR17      -0.0009
     25  CE1       44.8550  -31.5370  -20.5920 C.ar   17  TYR17       0.0417
     26  CE2       42.7080  -30.6440  -20.7360 C.ar   17  TYR17       0.0417
     27  CZ        43.5970  -31.4520  -20.1250 C.ar   17  TYR17       0.1957
     28  OH        43.2260  -32.1610  -19.0530 O.3    17  TYR17      -0.2866
     29  N         45.5560  -24.4600  -29.6230 N.3    33  VAL33      -0.1245
     30  CA        44.7070  -25.5680  -29.2350 C.3    33  VAL33       0.1561
     31  C         44.5160  -26.4140  -30.4550 C.2    33  VAL33       0.2260
     32  O         44.1280  -25.9330  -31.4600 O.2    33  VAL33      -0.2867
     33  CB        43.3300  -25.0790  -28.8210 C.3    33  VAL33       0.0252
     34  CG1       42.3880  -26.1910  -28.6610 C.3    33  VAL33       0.0019
     35  CG2       43.3810  -24.2920  -27.6070 C.3    33  VAL33       0.0019
     36  N         42.1960  -28.5120  -32.2270 N.3    35  ASP35      -0.1239
     37  CA        40.7800  -28.7460  -32.2200 C.3    35  ASP35       0.1674
     38  C         40.2310  -29.6510  -33.3390 C.2    35  ASP35       0.2266
     39  O         40.1070  -29.2330  -34.4160 O.2    35  ASP35      -0.2867
     40  CB        40.2020  -27.3550  -32.3240 C.3    35  ASP35       0.1410
     41  CG        38.7610  -27.3210  -32.2570 C.2    35  ASP35       0.3668
     42  OD1       38.1480  -28.3120  -32.0720 O.co2  35  ASP35      -0.2456
     43  OD2       38.2150  -26.2830  -32.4000 O.co2  35  ASP35      -0.2456
     44  N         37.3260  -30.3570  -33.7970 N.3    37  GLY37      -0.1210
     45  CA        36.0230  -29.8360  -34.0480 C.3    37  GLY37       0.1956
     46  C         35.9940  -28.5880  -34.8790 C.2    37  GLY37       0.2612
     47  O         34.9910  -28.0060  -35.0540 O.2    37  GLY37      -0.2717
     48  N         37.1250  -28.1810  -35.3850 N.am   38  SER38      -0.1952
     49  CA        37.2000  -27.0730  -36.3000 C.3    38  SER38       0.1924
     50  C         38.2610  -27.3820  -37.3060 C.2    38  SER38       0.2314
     51  O         39.0120  -28.2700  -37.1170 O.2    38  SER38      -0.2863
     52  CB        37.3130  -25.7000  -35.5960 C.3    38  SER38       0.2116
     53  OG        38.6070  -25.2840  -35.3590 O.3    38  SER38      -0.2180
     54  N         32.5490  -19.6630  -33.5240 N.3    80  TYR80      -0.1227
     55  CA        32.4050  -20.7390  -32.5950 C.3    80  TYR80       0.1736
     56  C         31.2030  -20.3910  -31.7880 C.2    80  TYR80       0.2596
     57  O         30.5000  -19.4720  -32.1170 O.2    80  TYR80      -0.2718
     58  CB        33.6360  -20.9540  -31.7150 C.3    80  TYR80       0.0548
     59  CG        34.9430  -20.9190  -32.4350 C.ar   80  TYR80      -0.0200
     60  CD1       35.5400  -22.0570  -32.8500 C.ar   80  TYR80      -0.0009
     61  CD2       35.5630  -19.7420  -32.7070 C.ar   80  TYR80      -0.0009
     62  CE1       36.6970  -22.0330  -33.4810 C.ar   80  TYR80       0.0417
     63  CE2       36.7150  -19.7120  -33.3650 C.ar   80  TYR80       0.0417
     64  CZ        37.2920  -20.8720  -33.7560 C.ar   80  TYR80       0.1957
     65  OH        38.4750  -20.8820  -34.4220 O.3    80  TYR80      -0.2866
     66  N         30.9690  -21.1810  -30.7520 N.am   81  SER81      -0.1938
     67  CA        29.8180  -21.1570  -29.8550 C.3    81  SER81       0.2055
     68  C         29.7650  -19.8980  -29.1090 C.2    81  SER81       0.2643
     69  O         28.7640  -19.3450  -28.8100 O.2    81  SER81      -0.2714
     70  CB        30.0490  -22.2340  -28.8470 C.3    81  SER81       0.2130
     71  OG        31.2970  -22.0480  -28.2800 O.3    81  SER81      -0.2179
     72  N         30.9640  -19.5620  -28.7760 N.am   82  THR82      -0.1950
     73  CA        31.4680  -18.4220  -28.1090 C.3    82  THR82       0.1897
     74  C         31.3560  -17.1160  -28.8670 C.2    82  THR82       0.2313
     75  O         31.2970  -16.0520  -28.3010 O.2    82  THR82      -0.2863
     76  CB        32.8710  -18.7570  -27.8650 C.3    82  THR82       0.1794
     77  OG1       33.1580  -18.5620  -26.4950 O.3    82  THR82      -0.2208
     78  CG2       33.7670  -18.0100  -28.7660 C.3    82  THR82       0.0378
     79  N         35.5300  -14.4600  -25.6170 N.3   115  PRO115     -0.2102
     80  CA        36.2150  -15.1280  -24.5420 C.3   115  PRO115      0.1504
     81  C         37.7200  -15.0350  -24.5410 C.2   115  PRO115      0.2575
     82  O         38.2920  -15.6650  -23.7490 O.2   115  PRO115     -0.2718
     83  CB        35.8660  -16.5520  -24.8540 C.3   115  PRO115      0.0282
     84  CG        35.9510  -16.6030  -26.2690 C.3   115  PRO115      0.0208
     85  CD        35.4820  -15.3310  -26.7820 C.3   115  PRO115      0.0893
     86  N         38.3560  -14.3410  -25.4480 N.am  116  PHE116     -0.1977
     87  CA        39.7750  -14.4970  -25.6000 C.3   116  PHE116      0.1639
     88  C         40.6580  -13.8720  -24.5380 C.2   116  PHE116      0.2290
     89  O         41.7800  -14.2010  -24.4140 O.2   116  PHE116     -0.2864
     90  CB        40.2190  -14.2790  -27.0490 C.3   116  PHE116      0.0560
     91  CG        39.5950  -15.2250  -27.9810 C.ar  116  PHE116     -0.0200
     92  CD1       39.9110  -16.5270  -27.9580 C.ar  116  PHE116     -0.0042
     93  CD2       38.6170  -14.8280  -28.8180 C.ar  116  PHE116     -0.0042
     94  CE1       39.2860  -17.3840  -28.7810 C.ar  116  PHE116     -0.0003
     95  CE2       38.0120  -15.6950  -29.6170 C.ar  116  PHE116     -0.0003
     96  CZ        38.3420  -16.9610  -29.6020 C.ar  116  PHE116     -0.0000
     97  N         40.1180  -14.6910  -21.5710 N.3   118  LEU118     -0.1231
     98  CA        40.1340  -15.7870  -20.6600 C.3   118  LEU118      0.1693
     99  C         41.0300  -16.8760  -21.1470 C.2   118  LEU118      0.2591
    100  O         41.0490  -17.9320  -20.6010 O.2   118  LEU118     -0.2718
    101  CB        38.7410  -16.3470  -20.5180 C.3   118  LEU118      0.0284
    102  CG        37.6930  -15.4020  -19.9960 C.3   118  LEU118      0.0019
    103  CD1       36.4070  -16.0510  -19.8060 C.3   118  LEU118      0.0001
    104  CD2       38.1410  -14.7130  -18.7860 C.3   118  LEU118      0.0001
    105  N         41.7740  -16.6080  -22.1910 N.am  119  ALA119     -0.1980
    106  CA        42.5690  -17.6170  -22.8220 C.3   119  ALA119      0.1597
    107  C         44.0340  -17.5760  -22.4970 C.2   119  ALA119      0.2287
    108  O         44.6760  -16.5770  -22.5300 O.2   119  ALA119     -0.2864
    109  CB        42.3780  -17.5580  -24.2480 C.3   119  ALA119      0.0319
    110  N         45.9640  -19.6190  -24.3420 N.3   121  PHE121     -0.1241
    111  CA        46.5100  -19.8700  -25.6430 C.3   121  PHE121      0.1605
    112  C         46.4480  -18.6560  -26.5180 C.2   121  PHE121      0.2264
    113  O         45.6700  -17.7890  -26.3120 O.2   121  PHE121     -0.2867
    114  CB        45.7550  -21.0270  -26.3070 C.3   121  PHE121      0.0534
    115  CG        44.2820  -20.8220  -26.3820 C.ar  121  PHE121     -0.0203
    116  CD1       43.4720  -21.2050  -25.3650 C.ar  121  PHE121     -0.0042
    117  CD2       43.7130  -20.2330  -27.4630 C.ar  121  PHE121     -0.0042
    118  CE1       42.1830  -21.0130  -25.4450 C.ar  121  PHE121     -0.0003
    119  CE2       42.4310  -20.0370  -27.5140 C.ar  121  PHE121     -0.0003
    120  CZ        41.6660  -20.4200  -26.5100 C.ar  121  PHE121     -0.0000
    121  N         44.0740  -21.0540  -32.4710 N.3   124  VAL124     -0.1245
    122  CA        43.6820  -22.4310  -32.6230 C.3   124  VAL124      0.1561
    123  C         44.0830  -23.1130  -33.9370 C.2   124  VAL124      0.2260
    124  O         44.0550  -22.5430  -34.9730 O.2   124  VAL124     -0.2867
    125  CB        42.1860  -22.6260  -32.3220 C.3   124  VAL124      0.0252
    126  CG1       41.5780  -21.3990  -31.8480 C.3   124  VAL124      0.0019
    127  CG2       41.4770  -23.1590  -33.4670 C.3   124  VAL124      0.0019
    128  N         45.5310  -36.3600  -22.8500 N.3   159  TYR159     -0.1241
    129  CA        45.2590  -35.2670  -21.9240 C.3   159  TYR159      0.1605
    130  C         45.4410  -35.7230  -20.4780 C.2   159  TYR159      0.2264
    131  O         44.8400  -36.6560  -20.0570 O.2   159  TYR159     -0.2867
    132  CB        43.8360  -34.7560  -22.1420 C.3   159  TYR159      0.0534
    133  CG        43.6540  -33.8000  -23.2910 C.ar  159  TYR159     -0.0201
    134  CD1       44.7110  -33.2550  -23.9130 C.ar  159  TYR159     -0.0009
    135  CD2       42.4190  -33.4490  -23.7360 C.ar  159  TYR159     -0.0009
    136  CE1       44.5490  -32.4080  -24.9180 C.ar  159  TYR159      0.0417
    137  CE2       42.2650  -32.6000  -24.7370 C.ar  159  TYR159      0.0417
    138  CZ        43.3190  -32.0790  -25.3300 C.ar  159  TYR159      0.1957
    139  OH        43.1470  -31.2090  -26.3440 O.3   159  TYR159     -0.2866
    140  N         35.5740  -34.1290  -29.6890 N.3   219  ASP219     -0.1225
    141  CA        36.1030  -32.7970  -29.8550 C.3   219  ASP219      0.1805
    142  C         37.2800  -32.4740  -28.9610 C.2   219  ASP219      0.2598
    143  O         37.1550  -32.2570  -27.8260 O.2   219  ASP219     -0.2718
    144  CB        34.9580  -31.8030  -29.6810 C.3   219  ASP219      0.1424
    145  CG        35.2290  -30.4970  -30.2930 C.2   219  ASP219      0.3668
    146  OD1       36.3320  -30.1200  -30.4690 O.co2 219  ASP219     -0.2456
    147  OD2       34.3350  -29.8020  -30.5820 O.co2 219  ASP219     -0.2456
    148  N         38.4550  -32.4420  -29.5180 N.am  220  THR220     -0.1939
    149  CA        39.6440  -32.1140  -28.7470 C.3   220  THR220      0.2028
    150  C         39.7950  -30.6880  -28.2540 C.2   220  THR220      0.2643
    151  O         40.4890  -30.4360  -27.3200 O.2   220  THR220     -0.2714
    152  CB        40.8950  -32.6340  -29.3630 C.3   220  THR220      0.1808
    153  OG1       41.1660  -31.9600  -30.5770 O.3   220  THR220     -0.2208
    154  CG2       40.7530  -34.0310  -29.5830 C.3   220  THR220      0.0379
    155  N         39.1510  -29.7820  -28.9640 N.am  221  GLY221     -0.1939
    156  CA        38.9440  -28.4210  -28.5940 C.3   221  GLY221      0.2014
    157  C         37.9980  -28.1280  -27.4750 C.2   221  GLY221      0.2639
    158  O         38.0490  -27.0880  -26.9390 O.2   221  GLY221     -0.2714
    159  N         37.1020  -29.0340  -27.1670 N.am  222  ALA222     -0.1963
    160  CA        36.1420  -28.8210  -26.1110 C.3   222  ALA222      0.1728
    161  C         36.6380  -29.1630  -24.7030 C.2   222  ALA222      0.2616
    162  O         37.2600  -30.1500  -24.4990 O.2   222  ALA222     -0.2715
    163  CB        34.8810  -29.5070  -26.4210 C.3   222  ALA222      0.0334
    164  N         36.4150  -28.2550  -23.7710 N.am  223  SER223     -0.1950
    165  CA        36.7530  -28.4070  -22.3790 C.3   223  SER223      0.1924
    166  C         35.9830  -29.4470  -21.6680 C.2   223  SER223      0.2314
    167  O         36.5080  -30.2260  -20.9730 O.2   223  SER223     -0.2863
    168  CB        36.5810  -27.1070  -21.6540 C.3   223  SER223      0.2116
    169  OG        37.3760  -26.1190  -22.2060 O.3   223  SER223     -0.2180
    170  N         28.5160  -29.4470  -19.5090 N.3   294  HIS294     -0.1241
    171  CA        27.6620  -28.2980  -19.7000 C.3   294  HIS294      0.1621
    172  C         26.8140  -28.4970  -20.9470 C.2   294  HIS294      0.2264
    173  O         27.0040  -29.4430  -21.6140 O.2   294  HIS294     -0.2867
    174  CB        28.4290  -27.0020  -19.6960 C.3   294  HIS294      0.0745
    175  CG        29.1860  -26.7480  -20.9350 C.ar  294  HIS294      0.0817
    176  ND1       28.7850  -25.8440  -21.8730 N.ar  294  HIS294     -0.2268
    177  CD2       30.3450  -27.2510  -21.3770 C.ar  294  HIS294      0.1154
    178  CE1       29.6480  -25.8270  -22.8550 C.ar  294  HIS294      0.1986
    179  NE2       30.6030  -26.6750  -22.5770 N.ar  294  HIS294     -0.2212
    180  N         25.6190  -27.4980  -24.6440 N.3   296  MET296     -0.1245
    181  CA        25.9300  -26.7530  -25.8460 C.3   296  MET296      0.1570
    182  C         25.0090  -27.1320  -26.9710 C.2   296  MET296      0.2261
    183  O         24.9420  -28.2520  -27.3560 O.2   296  MET296     -0.2867
    184  CB        27.3920  -26.9260  -26.2540 C.3   296  MET296      0.0387
    185  CG        27.8510  -25.9450  -27.2600 C.3   296  MET296      0.0595
    186  SD        29.5230  -25.4860  -27.1250 S.3   296  MET296     -0.1393
    187  CE        30.3170  -26.9320  -27.6540 C.3   296  MET296      0.0692
    188  N         37.3980  -32.7920  -23.2160 N.3   310  ALA310     -0.1245
    189  CA        38.5030  -33.0940  -22.3300 C.3   310  ALA310      0.1562
    190  C         38.1340  -34.0300  -21.2090 C.2   310  ALA310      0.2260
    191  O         38.9170  -34.7900  -20.7860 O.2   310  ALA310     -0.2867
    192  CB        39.0890  -31.8660  -21.7940 C.3   310  ALA310      0.0290
@<TRIPOS>BOND
     1    50    51    2
     2    50    49    1
     3    49    52    1
     4    49    48    1
     5    52    53    1
     6    48    46   am
     7    47    46    2
     8   124   123    2
     9    46    45    1
    10    65    64    1
    11    39    38    2
    12    45    44    1
    13   123   122    1
    14    64    62   ar
    15    64    63   ar
    16    54    55    1
    17    62    60   ar
    18   127   125    1
    19    63    61   ar
    20    38    37    1
    21    60    59   ar
    22    61    59   ar
    23   122   121    1
    24   122   125    1
    25    55    56    1
    26    55    58    1
    27    59    58    1
    28    43    41   ar
    29    40    41    1
    30    40    37    1
    31   125   126    1
    32    41    42   ar
    33    36    37    1
    34    57    56    2
    35    56    66   am
    36    32    31    2
    37    66    67    1
    38   147   145   ar
    39   153   152    1
    40   146   145   ar
    41    31    30    1
    42   145   144    1
    43   141   140    1
    44   141   144    1
    45   141   142    1
    46    67    68    1
    47    67    70    1
    48    29    30    1
    49    95    96   ar
    50    95    93   ar
    51    96    94   ar
    52   154   152    1
    53   148   142   am
    54   148   149    1
    55   152   149    1
    56    30    33    1
    57    68    69    2
    58    68    72   am
    59   155   156    1
    60   155   150   am
    61   142   143    2
    62    74    75    2
    63    74    73    1
    64    70    71    1
    65    33    34    1
    66    33    35    1
    67    93    91   ar
    68    94    92   ar
    69    72    73    1
    70    78    76    1
    71   149   150    1
    72   156   157    1
    73   150   151    2
    74    73    76    1
    75    91    92   ar
    76    91    90    1
    77    76    77    1
    78   187   186    1
    79   119   117   ar
    80   119   120   ar
    81   157   159   am
    82   157   158    2
    83   117   115   ar
    84   183   182    2
    85   185   186    1
    86   185   184    1
    87   159   160    1
    88    90    87    1
    89   182   181    1
    90    85    84    1
    91    85    79    1
    92   112   113    2
    93   112   111    1
    94   120   118   ar
    95   163   160    1
    96   115   114    1
    97   115   116   ar
    98   139   138    1
    99   114   111    1
   100    84    83    1
   101   184   181    1
   102   160   161    1
   103   181   180    1
   104   111   110    1
   105    79    80    1
   106    20    19    2
   107    87    86    1
   108    87    88    1
   109    86    81   am
   110   118   116   ar
   111   138   136   ar
   112   138   137   ar
   113   136   134   ar
   114    83    80    1
   115   137   135   ar
   116   161   162    2
   117   161   164   am
   118    19    18    1
   119    80    81    1
   120    81    82    2
   121    88    89    2
   122   109   106    1
   123   134   133   ar
   124   164   165    1
   125   135   133   ar
   126    21    18    1
   127    21    22    1
   128    18    17    1
   129   133   132    1
   130   188   189    1
   131    17    10   am
   132   178   179   ar
   133   178   176   ar
   134   128   129    1
   135   106   107    1
   136   106   105    1
   137   179   177   ar
   138   108   107    2
   139   165   166    1
   140   165   168    1
   141   189   192    1
   142   189   190    1
   143    22    24   ar
   144    22    23   ar
   145   169   168    1
   146    15    14    2
   147   105    99   am
   148   132   129    1
   149   129   130    1
   150    10     9    1
   151    10    11    2
   152   176   175   ar
   153    24    26   ar
   154   166   167    2
   155    23    25   ar
   156     9    12    1
   157     9     8    1
   158   173   172    2
   159    97    98    1
   160    14    13    1
   161    14    16   am
   162    12    13    1
   163   177   175   ar
   164     4     3    2
   165   190   191    2
   166    99    98    1
   167    99   100    2
   168   172   171    1
   169   175   174    1
   170    26    27   ar
   171    98   101    1
   172    25    27   ar
   173   101   102    1
   174   130   131    2
   175     8     3   am
   176     3     2    1
   177    27    28    1
   178   102   103    1
   179   102   104    1
   180   171   174    1
   181   171   170    1
   182     2     5    1
   183     2     1    1
   184     5     6    1
   185     5     7    1
