@<TRIPOS>MOLECULE
tmp/3q3vA00.pdb
 86 83 0 0 0
SMALL
GASTEIGER

@<TRIPOS>ATOM
      1  N         79.6710   93.9920   13.6210 N.3   224  LEU224     -0.1245
      2  CA        79.1650   95.3540   13.5170 C.3   224  LEU224      0.1561
      3  C         80.2610   96.3560   13.8430 C.2   224  LEU224      0.2260
      4  O         80.4310   97.3590   13.1600 O.2   224  LEU224     -0.2867
      5  CB        77.9670   95.5820   14.4450 C.3   224  LEU224      0.0270
      6  CG        76.7020   94.8310   14.0940 C.3   224  LEU224      0.0019
      7  CD1       75.7510   94.9190   15.2930 C.3   224  LEU224      0.0001
      8  CD2       76.0650   95.3760   12.8220 C.3   224  LEU224      0.0001
      9  N         82.6060   96.7920   11.0550 N.3   227  LEU227     -0.1245
     10  CA        82.0190   97.7110   10.0850 C.3   227  LEU227      0.1561
     11  C         81.9490   99.1940   10.5600 C.2   227  LEU227      0.2260
     12  O         81.4410  100.0450    9.8320 O.2   227  LEU227     -0.2867
     13  CB        80.6130   97.2250    9.7210 C.3   227  LEU227      0.0270
     14  CG        80.4890   95.9440    8.8980 C.3   227  LEU227      0.0019
     15  CD1       79.0120   95.4370    8.8580 C.3   227  LEU227      0.0001
     16  CD2       81.0120   96.2270    7.4950 C.3   227  LEU227      0.0001
     17  N         80.4120  100.3450   13.4430 N.3   229  TYR229     -0.1241
     18  CA        79.2480  100.6590   14.2680 C.3   229  TYR229      0.1605
     19  C         79.7030  100.8700   15.7200 C.2   229  TYR229      0.2264
     20  O         80.6080  100.2200   16.1970 O.2   229  TYR229     -0.2867
     21  CB        78.1550   99.5570   14.1810 C.3   229  TYR229      0.0534
     22  CG        77.4400   99.4320   12.8360 C.ar  229  TYR229     -0.0201
     23  CD1       78.1130   99.0120   11.7060 C.ar  229  TYR229     -0.0009
     24  CD2       76.0690   99.6730   12.7140 C.ar  229  TYR229     -0.0009
     25  CE1       77.4750   98.8760   10.4830 C.ar  229  TYR229      0.0417
     26  CE2       75.4090   99.5410   11.4670 C.ar  229  TYR229      0.0417
     27  CZ        76.1320   99.1500   10.3580 C.ar  229  TYR229      0.1957
     28  OH        75.5400   99.0310    9.1060 O.3   229  TYR229     -0.2866
     29  N         83.3320   88.9370    5.9970 N.3   248  LEU248     -0.1245
     30  CA        82.3520   89.7470    5.2640 C.3   248  LEU248      0.1561
     31  C         82.8190   90.0970    3.8710 C.2   248  LEU248      0.2260
     32  O         82.0190   90.1140    2.9200 O.2   248  LEU248     -0.2867
     33  CB        82.0590   91.0500    5.9840 C.3   248  LEU248      0.0270
     34  CG        81.5360   90.9450    7.4000 C.3   248  LEU248      0.0019
     35  CD1       81.5710   92.3410    8.0500 C.3   248  LEU248      0.0001
     36  CD2       80.1160   90.2930    7.4370 C.3   248  LEU248      0.0001
     37  N         74.8770   88.1920    3.3070 N.3   258  ILE258     -0.1231
     38  CA        75.1880   88.1640    4.7230 C.3   258  ILE258      0.1692
     39  C         74.3640   89.2130    5.4140 C.2   258  ILE258      0.2592
     40  O         74.3250   90.3450    4.9690 O.2   258  ILE258     -0.2718
     41  CB        76.6620   88.4020    4.9760 C.3   258  ILE258      0.0266
     42  CG1       77.4790   87.3160    4.2810 C.3   258  ILE258      0.0019
     43  CG2       76.9770   88.3890    6.4630 C.3   258  ILE258      0.0020
     44  CD1       79.0190   87.4410    4.5730 C.3   258  ILE258      0.0001
     45  N         73.6800   88.7880    6.4600 N.am  259  TYR259     -0.1962
     46  CA        72.8060   89.6300    7.2780 C.3   259  TYR259      0.1771
     47  C         73.2580   89.6350    8.7070 C.2   259  TYR259      0.2619
     48  O         73.5050   88.5780    9.3140 O.2   259  TYR259     -0.2715
     49  CB        71.3700   89.1430    7.2310 C.3   259  TYR259      0.0574
     50  CG        70.8700   89.1170    5.8340 C.ar  259  TYR259     -0.0198
     51  CD1       70.2790   90.2420    5.2720 C.ar  259  TYR259     -0.0009
     52  CD2       71.0310   87.9800    5.0320 C.ar  259  TYR259     -0.0009
     53  CE1       69.8440   90.2400    3.9530 C.ar  259  TYR259      0.0417
     54  CE2       70.5810   87.9740    3.6910 C.ar  259  TYR259      0.0417
     55  CZ        69.9910   89.1070    3.1700 C.ar  259  TYR259      0.1957
     56  OH        69.5490   89.1510    1.8490 O.3   259  TYR259     -0.2866
     57  N         73.3670   90.8420    9.2290 N.am  260  LEU260     -0.1964
     58  CA        73.6030   91.1420   10.6310 C.3   260  LEU260      0.1713
     59  C         72.3620   91.8080   11.2480 C.2   260  LEU260      0.2458
     60  O         71.4700   92.2990   10.5400 O.2   260  LEU260     -0.2730
     61  CB        74.8070   92.0780   10.7360 C.3   260  LEU260      0.0310
     62  CG        76.1710   91.4500   10.4400 C.3   260  LEU260      0.0022
     63  CD1       77.2590   92.5500   10.1660 C.3   260  LEU260      0.0001
     64  CD2       76.5970   90.5520   11.6150 C.3   260  LEU260      0.0001
     65  N         72.2660   91.8010   12.5710 N.am  261  PRO261     -0.2716
     66  CA        71.1370   92.4830   13.1780 C.3   261  PRO261      0.1536
     67  C         71.1010   93.9510   12.7600 C.2   261  PRO261      0.2598
     68  O         72.1460   94.5900   12.6910 O.2   261  PRO261     -0.2715
     69  CB        71.4210   92.3490   14.6790 C.3   261  PRO261      0.0310
     70  CG        72.2880   91.1200   14.7950 C.3   261  PRO261      0.0237
     71  CD        73.1730   91.2490   13.5910 C.3   261  PRO261      0.0939
     72  N         69.9150   94.4680   12.4620 N.am  262  VAL262     -0.1978
     73  CA        69.7390   95.8970   12.2200 C.3   262  VAL262      0.1596
     74  C         69.1300   96.5970   13.4330 C.2   262  VAL262      0.2287
     75  O         69.0490   97.7990   13.4550 O.2   262  VAL262     -0.2864
     76  CB        68.8370   96.1220   11.0090 C.3   262  VAL262      0.0276
     77  CG1       69.4580   95.3690    9.7410 C.3   262  VAL262      0.0022
     78  CG2       67.3960   95.6430   11.3390 C.3   262  VAL262      0.0022
     79  N         63.2650   90.6400    9.2720 N.3   298  LEU298     -0.1245
     80  CA        64.2000   90.5280    8.1650 C.3   298  LEU298      0.1561
     81  C         64.6890   89.0820    7.9990 C.2   298  LEU298      0.2260
     82  O         64.6320   88.5120    6.8790 O.2   298  LEU298     -0.2867
     83  CB        65.4150   91.4170    8.4280 C.3   298  LEU298      0.0270
     84  CG        66.5280   91.4130    7.3740 C.3   298  LEU298      0.0019
     85  CD1       65.9740   91.6770    5.9760 C.3   298  LEU298      0.0001
     86  CD2       67.6370   92.4100    7.7230 C.3   298  LEU298      0.0001
@<TRIPOS>BOND
     1    56    55    1
     2    32    31    2
     3    55    54   ar
     4    55    53   ar
     5    37    38    1
     6    54    52   ar
     7    31    30    1
     8    53    51   ar
     9    42    44    1
    10    42    41    1
    11    38    41    1
    12    38    39    1
    13    40    39    2
    14    41    43    1
    15    52    50   ar
    16    30    33    1
    17    30    29    1
    18    51    50   ar
    19    39    45   am
    20    50    49    1
    21    85    84    1
    22    33    34    1
    23    45    46    1
    24    82    81    2
    25    49    46    1
    26    46    47    1
    27    84    86    1
    28    84    83    1
    29    34    36    1
    30    34    35    1
    31    16    14    1
    32    81    80    1
    33    80    83    1
    34    80    79    1
    35    47    57   am
    36    47    48    2
    37    15    14    1
    38    14    13    1
    39    28    27    1
    40    57    58    1
    41    13    10    1
    42    77    76    1
    43    12    11    2
    44    10    11    1
    45    10     9    1
    46    63    62    1
    47    27    25   ar
    48    27    26   ar
    49    62    61    1
    50    62    64    1
    51    25    23   ar
    52    60    59    2
    53    58    61    1
    54    58    59    1
    55    76    78    1
    56    76    73    1
    57    59    65   am
    58    26    24   ar
    59    23    22   ar
    60    73    72    1
    61    73    74    1
    62    72    67   am
    63    65    66    1
    64    65    71    1
    65    68    67    2
    66    24    22   ar
    67    67    66    1
    68     8     6    1
    69    22    21    1
    70     4     3    2
    71    66    69    1
    72    74    75    2
    73    17    18    1
    74     2     1    1
    75     2     3    1
    76     2     5    1
    77    71    70    1
    78     6     5    1
    79     6     7    1
    80    21    18    1
    81    18    19    1
    82    69    70    1
    83    19    20    2
