@<TRIPOS>MOLECULE
tmp/3q3yA00.pdb
 157 152 0 0 0
SMALL
GASTEIGER

@<TRIPOS>ATOM
      1  N        -11.1480   25.7190  -30.1520 N.3    25  GLU25      -0.1231
      2  CA       -10.2280   24.6030  -29.9960 C.3    25  GLU25       0.1699
      3  C        -11.0360   23.3830  -29.6280 C.2    25  GLU25       0.2592
      4  O        -11.8910   23.4520  -28.7690 O.2    25  GLU25      -0.2718
      5  CB        -9.1800   24.9160  -28.9240 C.3    25  GLU25       0.0402
      6  CG        -8.0970   23.8620  -28.8540 C.3    25  GLU25       0.1161
      7  CD        -7.0120   24.1750  -27.8440 C.2    25  GLU25       0.3649
      8  OE1       -7.1140   25.1650  -27.0940 O.co2  25  GLU25      -0.2457
      9  OE2       -6.0510   23.3950  -27.7800 O.co2  25  GLU25      -0.2457
     10  N        -10.7310   22.2920  -30.3080 N.am   26  PHE26      -0.1976
     11  CA       -11.4950   21.0700  -30.2660 C.3    26  PHE26       0.1639
     12  C        -10.6060   19.8240  -30.1920 C.2    26  PHE26       0.2290
     13  O         -9.4780   19.8270  -30.6230 O.2    26  PHE26      -0.2864
     14  CB       -12.3650   20.9490  -31.5260 C.3    26  PHE26       0.0560
     15  CG       -13.2900   22.1080  -31.7220 C.ar   26  PHE26      -0.0200
     16  CD1      -14.5190   22.1330  -31.1150 C.ar   26  PHE26      -0.0042
     17  CD2      -12.8920   23.2110  -32.4440 C.ar   26  PHE26      -0.0042
     18  CE1      -15.3560   23.2210  -31.2720 C.ar   26  PHE26      -0.0003
     19  CE2      -13.7290   24.3080  -32.5950 C.ar   26  PHE26      -0.0003
     20  CZ       -14.9460   24.3130  -32.0200 C.ar   26  PHE26      -0.0000
     21  N        -20.3750   23.0840  -35.0690 N.3    41  HIS41      -0.1241
     22  CA       -20.0990   24.4670  -34.6350 C.3    41  HIS41       0.1621
     23  C        -18.6220   24.8390  -34.7110 C.2    41  HIS41       0.2264
     24  O        -18.2850   25.9930  -34.6060 O.2    41  HIS41      -0.2867
     25  CB       -20.6880   24.7370  -33.2610 C.3    41  HIS41       0.0745
     26  CG       -20.1620   23.8440  -32.1900 C.ar   41  HIS41       0.0817
     27  ND1      -20.8780   22.7690  -31.6800 N.ar   41  HIS41      -0.2268
     28  CD2      -19.0040   23.8890  -31.4960 C.ar   41  HIS41       0.1154
     29  CE1      -20.1720   22.2080  -30.7190 C.ar   41  HIS41       0.1986
     30  NE2      -19.0220   22.8440  -30.6000 N.ar   41  HIS41      -0.2212
     31  N        -25.3680   17.9340  -35.9440 N.3    72  GLU72      -0.1245
     32  CA       -24.2900   18.6620  -35.2280 C.3    72  GLU72       0.1567
     33  C        -22.8880   18.0470  -35.4210 C.2    72  GLU72       0.2260
     34  O        -22.0120   18.1920  -34.5730 O.2    72  GLU72      -0.2867
     35  CB       -24.6420   18.8570  -33.7360 C.3    72  GLU72       0.0388
     36  CG       -23.8340   19.9620  -33.0120 C.3    72  GLU72       0.1160
     37  CD       -24.0100   21.3430  -33.5860 C.2    72  GLU72       0.3649
     38  OE1      -25.0860   21.6080  -34.1380 O.co2  72  GLU72      -0.2457
     39  OE2      -23.0600   22.1430  -33.5230 O.co2  72  GLU72      -0.2457
     40  N        -33.3460   17.3890  -29.4990 N.3   126  LEU126     -0.1231
     41  CA       -32.9960   18.5050  -28.6200 C.3   126  LEU126      0.1693
     42  C        -32.9060   19.7900  -29.4340 C.2   126  LEU126      0.2592
     43  O        -32.3210   19.7880  -30.5290 O.2   126  LEU126     -0.2718
     44  CB       -31.6420   18.2360  -27.9790 C.3   126  LEU126      0.0284
     45  CG       -31.2450   19.2730  -26.9330 C.3   126  LEU126      0.0019
     46  CD1      -32.2150   19.1920  -25.7650 C.3   126  LEU126      0.0001
     47  CD2      -29.7910   19.0840  -26.4680 C.3   126  LEU126      0.0001
     48  N        -33.4270   20.8950  -28.8970 N.am  127  ASN127     -0.1960
     49  CA       -33.1590   22.1820  -29.5040 C.3   127  ASN127      0.1819
     50  C        -31.8280   22.6570  -28.8920 C.2   127  ASN127      0.2621
     51  O        -31.7690   23.0150  -27.7240 O.2   127  ASN127     -0.2715
     52  CB       -34.3160   23.1730  -29.2820 C.3   127  ASN127      0.1195
     53  CG       -34.1670   24.3960  -30.1530 C.2   127  ASN127      0.2630
     54  OD1      -33.1470   25.0620  -30.0950 O.2   127  ASN127     -0.2716
     55  ND2      -35.1320   24.6480  -31.0180 N.am  127  ASN127     -0.0877
     56  N        -30.7630   22.5660  -29.6790 N.am  128  LEU128     -0.1963
     57  CA       -29.3880   22.7610  -29.2140 C.3   128  LEU128      0.1728
     58  C        -28.8670   24.0680  -29.8130 C.2   128  LEU128      0.2616
     59  O        -28.7270   24.2000  -31.0390 O.2   128  LEU128     -0.2715
     60  CB       -28.4830   21.5960  -29.6710 C.3   128  LEU128      0.0311
     61  CG       -27.0020   21.7590  -29.3370 C.3   128  LEU128      0.0022
     62  CD1      -26.7810   21.7270  -27.8630 C.3   128  LEU128      0.0001
     63  CD2      -26.1900   20.6960  -30.0050 C.3   128  LEU128      0.0001
     64  N        -28.5520   25.0410  -28.9780 N.am  129  GLY129     -0.1955
     65  CA       -28.0430   26.3050  -29.4880 C.3   129  GLY129      0.1869
     66  C        -28.9900   26.9390  -30.4940 C.2   129  GLY129      0.2309
     67  O        -28.5300   27.5910  -31.4450 O.2   129  GLY129     -0.2863
     68  N        -20.2840   19.7400  -16.8550 N.3   143  THR143     -0.1203
     69  CA       -19.8050   20.0880  -18.2110 C.3   143  THR143      0.1994
     70  C        -18.9800   21.3740  -18.2360 C.2   143  THR143      0.2618
     71  O        -19.1090   22.1860  -17.3290 O.2   143  THR143     -0.2717
     72  CB       -20.9870   20.3000  -19.1970 C.3   143  THR143      0.1784
     73  OG1      -21.6690   21.5420  -18.9130 O.3   143  THR143     -0.2211
     74  CG2      -21.9730   19.1580  -19.1240 C.3   143  THR143      0.0376
     75  N        -18.1550   21.5540  -19.2800 N.am  144  ARG144     -0.1965
     76  CA       -17.3040   22.7550  -19.4890 C.3   144  ARG144      0.1729
     77  C        -17.0470   23.0980  -21.0030 C.2   144  ARG144      0.2616
     78  O        -16.8640   22.1810  -21.8270 O.2   144  ARG144     -0.2715
     79  CB       -15.9420   22.5580  -18.7970 C.3   144  ARG144      0.0348
     80  CG       -15.9820   22.3010  -17.2820 C.3   144  ARG144      0.0492
     81  CD       -16.5230   23.5240  -16.5480 C.3   144  ARG144      0.2205
     82  NE       -16.4480   23.4320  -15.0870 N.pl3 144  ARG144     -0.0865
     83  CZ       -17.4650   23.0870  -14.2930 C.cat 144  ARG144      0.5346
     84  NH1      -18.6420   22.7750  -14.8050 N.pl3 144  ARG144      0.1354
     85  NH2      -17.3150   23.0510  -12.9750 N.pl3 144  ARG144      0.1354
     86  N        -16.9940   24.4030  -21.3520 N.am  145  ALA145     -0.1963
     87  CA       -16.5090   24.8720  -22.6130 C.3   145  ALA145      0.1728
     88  C        -15.1120   24.2940  -22.8430 C.2   145  ALA145      0.2616
     89  O        -14.3200   24.1240  -21.9160 O.2   145  ALA145     -0.2715
     90  CB       -16.4590   26.3960  -22.6060 C.3   145  ALA145      0.0334
     91  N        -14.8190   23.9860  -24.0840 N.am  146  GLY146     -0.1955
     92  CA       -13.5360   23.4200  -24.4110 C.3   146  GLY146      0.1869
     93  C        -13.5480   21.9050  -24.5010 C.2   146  GLY146      0.2309
     94  O        -12.5760   21.3260  -24.9380 O.2   146  GLY146     -0.2863
     95  N        -15.8190   20.2070  -26.4210 N.3   148  CYS148     -0.1235
     96  CA       -16.4110   19.7620  -27.6700 C.3   148  CYS148      0.1677
     97  C        -15.4370   19.0750  -28.6220 C.2   148  CYS148      0.2270
     98  O        -14.2630   19.4040  -28.7170 O.2   148  CYS148     -0.2867
     99  CB       -17.1430   20.9040  -28.3550 C.3   148  CYS148      0.0956
    100  SG       -18.6510   21.3700  -27.4760 S.3   148  CYS148     -0.0801
    101  N        -18.8080   14.7470  -28.2200 N.3   162  HIS162     -0.1226
    102  CA       -19.4250   15.7610  -27.3770 C.3   162  HIS162      0.1752
    103  C        -19.6460   17.0750  -28.1460 C.2   162  HIS162      0.2596
    104  O        -18.7120   17.6250  -28.7410 O.2   162  HIS162     -0.2718
    105  CB       -18.5530   16.0260  -26.1320 C.3   162  HIS162      0.0759
    106  CG       -19.2230   16.9320  -25.1470 C.ar  162  HIS162      0.0818
    107  ND1      -20.1420   16.4640  -24.2320 N.ar  162  HIS162     -0.2268
    108  CD2      -19.1690   18.2780  -24.9700 C.ar  162  HIS162      0.1154
    109  CE1      -20.6100   17.4710  -23.5270 C.ar  162  HIS162      0.1986
    110  NE2      -20.0400   18.5800  -23.9530 N.ar  162  HIS162     -0.2212
    111  N        -20.8890   17.5480  -28.1530 N.am  163  VAL163     -0.1966
    112  CA       -21.2270   18.7470  -28.9080 C.3   163  VAL163      0.1727
    113  C        -21.9100   19.8290  -28.0800 C.2   163  VAL163      0.2617
    114  O        -21.9640   20.9860  -28.5090 O.2   163  VAL163     -0.2715
    115  CB       -22.1010   18.4470  -30.1290 C.3   163  VAL163      0.0290
    116  CG1      -21.3670   17.5700  -31.1370 C.3   163  VAL163      0.0023
    117  CG2      -23.4350   17.8300  -29.7330 C.3   163  VAL163      0.0023
    118  N        -22.3830   19.5230  -26.8690 N.am  164  GLY164     -0.1940
    119  CA       -23.1040   20.5510  -26.1480 C.3   164  GLY164      0.2014
    120  C        -23.5420   20.1490  -24.7560 C.2   164  GLY164      0.2639
    121  O        -23.2800   19.0350  -24.2850 O.2   164  GLY164     -0.2714
    122  N        -24.2140   21.0790  -24.1040 N.am  165  GLY165     -0.1939
    123  CA       -24.6500   20.8840  -22.7350 C.3   165  GLY165      0.2014
    124  C        -24.8720   22.1980  -22.0430 C.2   165  GLY165      0.2639
    125  O        -24.7080   23.2540  -22.6130 O.2   165  GLY165     -0.2714
    126  N        -25.2620   22.0650  -20.7850 N.am  166  ASN166     -0.1958
    127  CA       -25.5120   23.1830  -19.8890 C.3   166  ASN166      0.1819
    128  C        -25.5010   22.6290  -18.4750 C.2   166  ASN166      0.2621
    129  O        -26.0770   21.5720  -18.2170 O.2   166  ASN166     -0.2715
    130  CB       -26.8720   23.8350  -20.1790 C.3   166  ASN166      0.1195
    131  CG       -27.0900   25.1110  -19.3690 C.2   166  ASN166      0.2630
    132  OD1      -27.4910   25.0510  -18.2190 O.2   166  ASN166     -0.2716
    133  ND2      -26.7900   26.2610  -19.9640 N.am  166  ASN166     -0.0877
    134  N        -24.8040   23.2990  -17.5690 N.am  167  GLY167     -0.1954
    135  CA       -24.7770   22.8720  -16.1750 C.3   167  GLY167      0.1869
    136  C        -24.1720   21.4940  -16.0180 C.2   167  GLY167      0.2309
    137  O        -23.0250   21.2970  -16.3630 O.2   167  GLY167     -0.2863
    138  N        -25.4040   18.6550  -17.4250 N.3   169  GLN169     -0.1245
    139  CA       -25.9350   17.7910  -18.4630 C.3   169  GLN169      0.1566
    140  C        -25.1370   17.9880  -19.7510 C.2   169  GLN169      0.2260
    141  O        -24.9470   19.1250  -20.2030 O.2   169  GLN169     -0.2867
    142  CB       -27.4140   18.1220  -18.6740 C.3   169  GLN169      0.0367
    143  CG       -28.1820   17.2030  -19.5890 C.3   169  GLN169      0.0905
    144  CD       -29.6320   17.6620  -19.7670 C.2   169  GLN169      0.2608
    145  OE1      -29.9050   18.8210  -20.1340 O.2   169  GLN169     -0.2717
    146  NE2      -30.5590   16.7570  -19.5550 N.am  169  GLN169     -0.0878
    147  N        -24.2390   16.3820  -23.8760 N.3   171  PHE171     -0.1241
    148  CA       -24.8220   15.7420  -25.0600 C.3   171  PHE171      0.1605
    149  C        -23.7470   15.4550  -26.0840 C.2   171  PHE171      0.2264
    150  O        -22.9310   16.3250  -26.4140 O.2   171  PHE171     -0.2867
    151  CB       -25.8810   16.6300  -25.7100 C.3   171  PHE171      0.0534
    152  CG       -27.0630   16.8820  -24.8350 C.ar  171  PHE171     -0.0203
    153  CD1      -28.1090   15.9730  -24.7680 C.ar  171  PHE171     -0.0042
    154  CD2      -27.1450   18.0340  -24.0720 C.ar  171  PHE171     -0.0042
    155  CE1      -29.2010   16.1950  -23.9570 C.ar  171  PHE171     -0.0003
    156  CE2      -28.2440   18.2870  -23.2580 C.ar  171  PHE171     -0.0003
    157  CZ       -29.2690   17.3590  -23.1870 C.ar  171  PHE171     -0.0000
@<TRIPOS>BOND
     1    31    32    1
     2    33    32    1
     3    33    34    2
     4    32    35    1
     5    21    22    1
     6    23    22    1
     7    23    24    2
     8    22    25    1
     9    38    37   ar
    10    35    36    1
    11    37    39   ar
    12    37    36    1
    13    25    26    1
    14    19    17   ar
    15    19    20   ar
    16    17    15   ar
    17    26    27   ar
    18    26    28   ar
    19    20    18   ar
    20    15    14    1
    21    15    16   ar
    22    27    29   ar
    23    14    11    1
    24    28    30   ar
    25    67    66    2
    26    18    16   ar
    27   116   115    1
    28    59    58    2
    29    55    53   am
    30    29    30   ar
    31    13    12    2
    32    43    42    2
    33    66    65    1
    34    10    11    1
    35    10     3   am
    36    11    12    1
    37    53    54    2
    38    53    52    1
    39     1     2    1
    40   115   117    1
    41   115   112    1
    42    63    61    1
    43     2     3    1
    44     2     5    1
    45    58    57    1
    46    58    64   am
    47    56    57    1
    48    56    50   am
    49    60    61    1
    50    60    57    1
    51     3     4    2
    52    49    52    1
    53    49    48    1
    54    49    50    1
    55    40    41    1
    56    65    64    1
    57    42    48   am
    58    42    41    1
    59    61    62    1
    60     5     6    1
    61   112   111    1
    62   112   113    1
    63    50    51    2
    64     6     7    1
    65   104   103    2
    66    98    97    2
    67    97    96    1
    68    41    44    1
    69   114   113    2
    70    99    96    1
    71    99   100    1
    72   101   102    1
    73   111   103   am
    74   103   102    1
    75   113   118   am
    76    44    45    1
    77     7     9   ar
    78     7     8   ar
    79    96    95    1
    80   102   105    1
    81    45    47    1
    82    45    46    1
    83   118   119    1
    84   150   149    2
    85   119   120    1
    86   105   106    1
    87   149   148    1
    88   151   148    1
    89   151   152    1
    90   106   108   ar
    91   106   107   ar
    92   148   147    1
    93   108   110   ar
    94    94    93    2
    95   152   153   ar
    96   152   154   ar
    97   153   155   ar
    98   120   121    2
    99   120   122   am
   100    93    92    1
   101    92    91    1
   102   107   109   ar
   103   122   123    1
   104    91    88   am
   105   154   156   ar
   106   155   157   ar
   107   110   109   ar
   108   156   157   ar
   109    88    87    1
   110    88    89    2
   111   123   124    1
   112    87    90    1
   113    87    86    1
   114   125   124    2
   115   124   126   am
   116    78    77    2
   117    86    77   am
   118    77    76    1
   119   126   127    1
   120   141   140    2
   121   130   127    1
   122   130   131    1
   123   145   144    2
   124   133   131   am
   125   127   128    1
   126   144   143    1
   127   144   146   am
   128   140   139    1
   129   143   142    1
   130    76    75    1
   131    76    79    1
   132   131   132    2
   133    75    70   am
   134    72    74    1
   135    72    73    1
   136    72    69    1
   137    79    80    1
   138   142   139    1
   139   128   129    2
   140   128   134   am
   141   139   138    1
   142    70    69    1
   143    70    71    2
   144    69    68    1
   145   134   135    1
   146    80    81    1
   147    81    82    1
   148   137   136    2
   149   135   136    1
   150    82    83    2
   151    84    83    1
   152    83    85    1
