@<TRIPOS>MOLECULE
tmp/3q44A00.pdb
 199 188 0 0 0
SMALL
GASTEIGER

@<TRIPOS>ATOM
      1  N         14.2240   20.5860   19.8210 N.3   122  GLN122     -0.1245
      2  CA        13.7640   19.3430   19.2660 C.3   122  GLN122      0.1566
      3  C         12.3730   19.0270   19.8300 C.2   122  GLN122      0.2260
      4  O         12.1950   18.8150   21.0690 O.2   122  GLN122     -0.2867
      5  CB        14.7710   18.2420   19.5310 C.3   122  GLN122      0.0367
      6  CG        14.2900   16.8150   19.1300 C.3   122  GLN122      0.0905
      7  CD        13.9150   16.7510   17.6540 C.2   122  GLN122      0.2608
      8  OE1       14.5980   17.3510   16.8010 O.2   122  GLN122     -0.2717
      9  NE2       12.8620   15.9830   17.3240 N.am  122  GLN122     -0.0878
     10  N          9.7070   16.9810   18.0140 N.3   124  GLU124     -0.1231
     11  CA         9.1120   15.6430   17.7600 C.3   124  GLU124      0.1699
     12  C          9.6370   14.6330   18.8100 C.2   124  GLU124      0.2592
     13  O         10.8380   14.6140   19.0840 O.2   124  GLU124     -0.2718
     14  CB         9.3830   15.1380   16.3140 C.3   124  GLU124      0.0402
     15  CG         8.5720   13.8570   16.0070 C.3   124  GLU124      0.1161
     16  CD         8.7960   13.3530   14.5720 C.2   124  GLU124      0.3649
     17  OE1        9.6150   13.9500   13.8640 O.co2 124  GLU124     -0.2457
     18  OE2        8.1270   12.3870   14.1620 O.co2 124  GLU124     -0.2457
     19  N          8.7450   13.8430   19.4340 N.am  125  ALA125     -0.1966
     20  CA         7.3190   13.8810   19.2050 C.3   125  ALA125      0.1728
     21  C          6.5750   14.7700   20.1880 C.2   125  ALA125      0.2616
     22  O          5.6350   15.4690   19.7830 O.2   125  ALA125     -0.2715
     23  CB         6.7370   12.4740   19.2750 C.3   125  ALA125      0.0334
     24  N          7.0230   14.7380   21.4540 N.am  126  THR126     -0.1951
     25  CA         6.3250   15.4300   22.5250 C.3   126  THR126      0.1897
     26  C          7.2310   16.4120   23.2170 C.2   126  THR126      0.2313
     27  O          7.1220   16.6060   24.4300 O.2   126  THR126     -0.2863
     28  CB         5.7850   14.4060   23.5440 C.3   126  THR126      0.1794
     29  OG1        6.8750   13.6760   24.0790 O.3   126  THR126     -0.2208
     30  CG2        4.9040   13.4100   22.8410 C.3   126  THR126      0.0378
     31  N         19.0730   11.8600   17.5190 N.3   264  VAL264     -0.1231
     32  CA        18.9670   10.9960   16.3380 C.3   264  VAL264      0.1692
     33  C         19.7990   11.5190   15.1830 C.2   264  VAL264      0.2593
     34  O         20.8480   12.1040   15.4270 O.2   264  VAL264     -0.2718
     35  CB        17.4870   10.6820   16.0140 C.3   264  VAL264      0.0266
     36  CG1       16.8890    9.9030   17.1710 C.3   264  VAL264      0.0020
     37  CG2       16.6100   11.9920   15.6590 C.3   264  VAL264      0.0020
     38  N         19.3740   11.2670   13.9490 N.am  265  GLY265     -0.1942
     39  CA        20.1080   11.7510   12.7710 C.3   265  GLY265      0.2014
     40  C         19.7190   13.1800   12.3640 C.2   265  GLY265      0.2639
     41  O         20.5810   13.9850   12.0920 O.2   265  GLY265     -0.2714
     42  N         18.4360   13.4700   12.2380 N.am  266  ALA266     -0.1963
     43  CA        17.9820   14.8430   11.8720 C.3   266  ALA266      0.1728
     44  C         16.4800   14.9900   12.0540 C.2   266  ALA266      0.2616
     45  O         15.7950   14.0430   12.4070 O.2   266  ALA266     -0.2715
     46  CB        18.3900   15.1710   10.4050 C.3   266  ALA266      0.0334
     47  N         15.9490   16.1800   11.7930 N.am  267  MET267     -0.1963
     48  CA        14.5430   16.4700   12.0720 C.3   267  MET267      0.1736
     49  C         14.0160   17.4470   11.0660 C.2   267  MET267      0.2616
     50  O         14.6610   18.4920   10.8140 O.2   267  MET267     -0.2715
     51  CB        14.4230   17.0660   13.4730 C.3   267  MET267      0.0427
     52  CG        13.0370   17.5010   13.8470 C.3   267  MET267      0.0599
     53  SD        11.8600   16.1260   13.8510 S.3   267  MET267     -0.1393
     54  CE        10.3950   16.9840   13.2940 C.3   267  MET267      0.0692
     55  N         12.8510   17.1240   10.4930 N.am  268  GLU268     -0.1977
     56  CA        12.3100   17.8590    9.3550 C.3   268  GLU268      0.1602
     57  C         11.5020   19.1320    9.7340 C.2   268  GLU268      0.2287
     58  O         10.5280   19.4600    9.0560 O.2   268  GLU268     -0.2864
     59  CB        11.4230   16.9590    8.4970 C.3   268  GLU268      0.0415
     60  CG        10.0680   16.5250    9.1860 C.3   268  GLU268      0.1163
     61  CD        10.1620   15.2690   10.0820 C.2   268  GLU268      0.3649
     62  OE1       11.2890   14.9970   10.5460 O.co2 268  GLU268     -0.2457
     63  OE2        9.0860   14.5960   10.3300 O.co2 268  GLU268     -0.2457
     64  N         25.5150    8.8440    3.9100 N.3   294  ARG294     -0.1245
     65  CA        24.6710    9.1630    5.0590 C.3   294  ARG294      0.1563
     66  C         24.0540   10.5320    4.9040 C.2   294  ARG294      0.2260
     67  O         22.8970   10.7070    5.1960 O.2   294  ARG294     -0.2867
     68  CB        25.5200    9.1260    6.3420 C.3   294  ARG294      0.0307
     69  CG        24.7910    9.5700    7.6120 C.3   294  ARG294      0.0489
     70  CD        23.6290    8.6310    7.9480 C.3   294  ARG294      0.2205
     71  NE        22.9670    9.0930    9.1850 N.pl3 294  ARG294     -0.0865
     72  CZ        21.8620    8.5830    9.6930 C.cat 294  ARG294      0.5346
     73  NH1       21.2510    7.5690    9.0920 N.pl3 294  ARG294      0.1354
     74  NH2       21.3360    9.1010   10.8010 N.pl3 294  ARG294      0.1354
     75  N         21.4260   10.4940    2.2070 N.3   297  THR297     -0.1203
     76  CA        20.2450    9.8740    2.7920 C.3   297  THR297      0.1994
     77  C         19.4880   10.8300    3.7050 C.2   297  THR297      0.2617
     78  O         18.2530   10.9230    3.6050 O.2   297  THR297     -0.2717
     79  CB        20.6310    8.5770    3.5820 C.3   297  THR297      0.1784
     80  OG1       20.9730    7.6010    2.6240 O.3   297  THR297     -0.2211
     81  CG2       19.4880    8.0410    4.4710 C.3   297  THR297      0.0376
     82  N         20.2030   11.4990    4.6170 N.am  298  VAL298     -0.1979
     83  CA        19.4700   12.1670    5.6710 C.3   298  VAL298      0.1595
     84  C         18.9510   13.5050    5.1490 C.2   298  VAL298      0.2287
     85  O         17.8100   13.8660    5.4060 O.2   298  VAL298     -0.2864
     86  CB        20.3080   12.3510    6.9410 C.3   298  VAL298      0.0276
     87  CG1       19.4580   13.1010    7.9760 C.3   298  VAL298      0.0022
     88  CG2       20.6480   10.9800    7.5260 C.3   298  VAL298      0.0022
     89  N         15.9870   12.4300    2.9330 N.3   301  HIS301     -0.1226
     90  CA        14.8900   11.9950    3.7750 C.3   301  HIS301      0.1752
     91  C         14.1560   13.1870    4.4580 C.2   301  HIS301      0.2595
     92  O         12.9630   13.3180    4.3140 O.2   301  HIS301     -0.2718
     93  CB        15.4170   11.0210    4.8210 C.3   301  HIS301      0.0759
     94  CG        14.3810   10.5650    5.7940 C.ar  301  HIS301      0.0818
     95  ND1       13.9220    9.2670    5.8210 N.ar  301  HIS301     -0.2268
     96  CD2       13.7480   11.2230    6.7980 C.ar  301  HIS301      0.1154
     97  CE1       13.0480    9.1420    6.8070 C.ar  301  HIS301      0.1986
     98  NE2       12.9230   10.3140    7.4070 N.ar  301  HIS301     -0.2212
     99  N         14.8600   14.0970    5.1210 N.am  302  GLU302     -0.1979
    100  CA        14.1510   15.1950    5.7950 C.3   302  GLU302      0.1602
    101  C         13.5260   16.1330    4.7490 C.2   302  GLU302      0.2287
    102  O         12.4500   16.6920    4.9740 O.2   302  GLU302     -0.2864
    103  CB        15.0630   15.9600    6.7250 C.3   302  GLU302      0.0415
    104  CG        15.9100   15.1100    7.6910 C.3   302  GLU302      0.1163
    105  CD        15.1090   14.0760    8.5370 C.2   302  GLU302      0.3649
    106  OE1       13.8710   14.1860    8.7460 O.co2 302  GLU302     -0.2457
    107  OE2       15.7710   13.1160    8.9390 O.co2 302  GLU302     -0.2457
    108  N         10.1560   14.7400    3.6330 N.3   305  HIS305     -0.1241
    109  CA         9.0960   14.9650    4.5740 C.3   305  HIS305      0.1621
    110  C          8.3250   16.2390    4.2860 C.2   305  HIS305      0.2264
    111  O          7.1860   16.4050    4.7570 O.2   305  HIS305     -0.2867
    112  CB         9.6610   15.1150    5.9810 C.3   305  HIS305      0.0745
    113  CG         9.8380   13.8280    6.7090 C.ar  305  HIS305      0.0817
    114  ND1        8.8400   12.8710    6.7790 N.ar  305  HIS305     -0.2268
    115  CD2       10.8480   13.3790    7.4970 C.ar  305  HIS305      0.1154
    116  CE1        9.2540   11.8600    7.5260 C.ar  305  HIS305      0.1986
    117  NE2       10.4630   12.1460    7.9870 N.ar  305  HIS305     -0.2212
    118  N          7.0580    8.1610    8.2800 N.3   324  GLU324     -0.1245
    119  CA         8.4270    7.6440    8.2720 C.3   324  GLU324      0.1567
    120  C          8.6840    6.5060    7.2640 C.2   324  GLU324      0.2260
    121  O          9.6570    6.5630    6.5120 O.2   324  GLU324     -0.2867
    122  CB         8.8850    7.2250    9.6700 C.3   324  GLU324      0.0388
    123  CG         8.8520    8.3490   10.6730 C.3   324  GLU324      0.1160
    124  CD         9.7740    9.5120   10.2660 C.2   324  GLU324      0.3649
    125  OE1       10.7020    9.3490    9.4080 O.co2 324  GLU324     -0.2457
    126  OE2        9.5450   10.6150   10.7680 O.co2 324  GLU324     -0.2457
    127  N         11.1140    7.0420    4.1470 N.3   328  VAL328     -0.1245
    128  CA        12.2770    6.1470    3.9260 C.3   328  VAL328      0.1561
    129  C         12.2090    5.6160    2.4810 C.2   328  VAL328      0.2260
    130  O         13.2070    5.6780    1.7360 O.2   328  VAL328     -0.2867
    131  CB        12.3470    5.0450    4.9400 C.3   328  VAL328      0.0252
    132  CG1       13.4160    3.9650    4.5590 C.3   328  VAL328      0.0019
    133  CG2       12.7130    5.5970    6.3180 C.3   328  VAL328      0.0019
    134  N         13.2300    8.2720    0.0890 N.3   331  GLU331     -0.1245
    135  CA        14.6930    8.4590    0.1270 C.3   331  GLU331      0.1567
    136  C         15.4490    7.2710   -0.5310 C.2   331  GLU331      0.2260
    137  O         16.4950    7.4620   -1.1410 O.2   331  GLU331     -0.2867
    138  CB        15.1830    8.6540    1.5750 C.3   331  GLU331      0.0388
    139  CG        16.7560    8.7250    1.6600 C.3   331  GLU331      0.1160
    140  CD        17.4260    7.3240    1.6590 C.2   331  GLU331      0.3649
    141  OE1       16.8630    6.3740    2.2900 O.co2 331  GLU331     -0.2457
    142  OE2       18.5010    7.1970    1.0230 O.co2 331  GLU331     -0.2457
    143  N          6.9490    6.4050   23.1970 N.3   376  MET376     -0.1230
    144  CA         7.2450    6.5700   21.7590 C.3   376  MET376      0.1702
    145  C          8.2850    5.5560   21.2050 C.2   376  MET376      0.2592
    146  O          8.3950    5.3870   19.9730 O.2   376  MET376     -0.2718
    147  CB         7.6760    8.0110   21.4520 C.3   376  MET376      0.0401
    148  CG         6.6180    9.1020   21.8570 C.3   376  MET376      0.0596
    149  SD         5.3530    9.2660   20.5930 S.3   376  MET376     -0.1393
    150  CE         3.9810   10.0540   21.4090 C.3   376  MET376      0.0692
    151  N          9.0450    4.9040   22.0770 N.am  377  GLU377     -0.1979
    152  CA         9.8470    3.7610   21.6450 C.3   377  GLU377      0.1602
    153  C          9.0420    2.7270   20.8990 C.2   377  GLU377      0.2287
    154  O          9.6100    1.8870   20.1810 O.2   377  GLU377     -0.2864
    155  CB        10.4600    3.0300   22.8510 C.3   377  GLU377      0.0415
    156  CG        11.2970    3.8880   23.7520 C.3   377  GLU377      0.1163
    157  CD        12.6010    4.2720   23.1300 C.2   377  GLU377      0.3649
    158  OE1       12.9430    3.7320   22.0270 O.co2 377  GLU377     -0.2457
    159  OE2       13.2650    5.1340   23.7460 O.co2 377  GLU377     -0.2457
    160  N          9.1100    4.5750   17.2060 N.3   380  TYR380     -0.1241
    161  CA        10.2540    5.0210   16.4100 C.3   380  TYR380      0.1605
    162  C         11.2740    3.8920   16.2470 C.2   380  TYR380      0.2264
    163  O         12.2950    3.8450   16.9260 O.2   380  TYR380     -0.2867
    164  CB        10.9030    6.2700   16.9850 C.3   380  TYR380      0.0534
    165  CG        10.0160    7.4840   16.8130 C.ar  380  TYR380     -0.0201
    166  CD1        9.0000    7.7410   17.7190 C.ar  380  TYR380     -0.0009
    167  CD2       10.1590    8.3310   15.7170 C.ar  380  TYR380     -0.0009
    168  CE1        8.1290    8.8320   17.5390 C.ar  380  TYR380      0.0417
    169  CE2        9.3050    9.4580   15.5310 C.ar  380  TYR380      0.0417
    170  CZ         8.3030    9.6780   16.4660 C.ar  380  TYR380      0.1957
    171  OH         7.4470   10.7170   16.3440 O.3   380  TYR380     -0.2866
    172  N          9.8920    2.1840   10.5710 N.3   385  TYR385     -0.1241
    173  CA        10.6400    2.8440    9.4870 C.3   385  TYR385      0.1605
    174  C         10.9510    1.9350    8.2890 C.2   385  TYR385      0.2264
    175  O         10.6840    2.3000    7.1310 O.2   385  TYR385     -0.2867
    176  CB        11.9500    3.3570   10.0160 C.3   385  TYR385      0.0534
    177  CG        11.9060    4.6890   10.6810 C.ar  385  TYR385     -0.0201
    178  CD1       12.6380    5.7540   10.1600 C.ar  385  TYR385     -0.0009
    179  CD2       11.1160    4.9020   11.8190 C.ar  385  TYR385     -0.0009
    180  CE1       12.6320    7.0040   10.8080 C.ar  385  TYR385      0.0417
    181  CE2       11.1010    6.1520   12.4620 C.ar  385  TYR385      0.0417
    182  CZ        11.8610    7.1750   11.9780 C.ar  385  TYR385      0.1957
    183  OH        11.8590    8.4090   12.6040 O.3   385  TYR385     -0.2866
    184  N         16.3150    8.8120   26.2720 N.3   839  MET839     -0.1245
    185  CA        16.2580    8.3880   24.8580 C.3   839  MET839      0.1570
    186  C         17.5190    7.6630   24.4280 C.2   839  MET839      0.2261
    187  O         17.4370    6.5880   23.8470 O.2   839  MET839     -0.2867
    188  CB        15.9670    9.5330   23.9220 C.3   839  MET839      0.0387
    189  CG        14.4600    9.8130   23.8810 C.3   839  MET839      0.0595
    190  SD        14.1050   11.3870   23.1220 S.3   839  MET839     -0.1393
    191  CE        13.7350   12.3250   24.5700 C.3   839  MET839      0.0692
    192  N         10.9980    6.0020   30.2350 N.3   878  ASN878     -0.1240
    193  CA        11.3010    5.4820   28.9300 C.3   878  ASN878      0.1653
    194  C         12.0720    4.1670   29.0520 C.2   878  ASN878      0.2266
    195  O         11.7070    3.1840   28.3880 O.2   878  ASN878     -0.2867
    196  CB        12.1170    6.4590   28.1200 C.3   878  ASN878      0.1155
    197  CG        11.9510    6.2400   26.6700 C.2   878  ASN878      0.2627
    198  OD1       10.9000    6.5550   26.0960 O.2   878  ASN878     -0.2716
    199  ND2       12.9780    5.6830   26.0370 N.am  878  ASN878     -0.0877
@<TRIPOS>BOND
     1   137   136    2
     2   136   135    1
     3   134   135    1
     4   135   138    1
     5   142   140   ar
     6   138   139    1
     7   140   139    1
     8   140   141   ar
     9   130   129    2
    10    75    76    1
    11   129   128    1
    12    80    79    1
    13    76    79    1
    14    76    77    1
    15    89    90    1
    16    79    81    1
    17    78    77    2
    18   108   109    1
    19    77    82   am
    20    90    91    1
    21    90    93    1
    22    64    65    1
    23   128   127    1
    24   128   131    1
    25   110   109    1
    26   110   111    2
    27    92    91    2
    28    91    99   am
    29   132   131    1
    30   109   112    1
    31    82    83    1
    32   101   102    2
    33   101   100    1
    34    93    94    1
    35    66    65    1
    36    66    67    2
    37   131   133    1
    38    65    68    1
    39    99   100    1
    40    84    85    2
    41    84    83    1
    42    83    86    1
    43    94    95   ar
    44    94    96   ar
    45   100   103    1
    46    95    97   ar
    47   112   113    1
    48    68    69    1
    49   121   120    2
    50   113   114   ar
    51   113   115   ar
    52   103   104    1
    53   114   116   ar
    54    96    98   ar
    55    97    98   ar
    56    86    88    1
    57    86    87    1
    58   175   174    2
    59   120   119    1
    60   115   117   ar
    61   116   117   ar
    62    69    70    1
    63   104   105    1
    64    70    71    1
    65   119   118    1
    66   119   122    1
    67   174   173    1
    68    59    60    1
    69    59    56    1
    70   105   106   ar
    71   105   107   ar
    72    58    57    2
    73    73    72    1
    74    71    72    2
    75    60    61    1
    76    56    57    1
    77    56    55    1
    78   125   124   ar
    79   173   176    1
    80   173   172    1
    81   122   123    1
    82    72    74    1
    83   176   177    1
    84    61    63   ar
    85    61    62   ar
    86   178   177   ar
    87   178   180   ar
    88   124   123    1
    89   124   126   ar
    90    46    43    1
    91    55    49   am
    92   177   179   ar
    93   180   182   ar
    94    50    49    2
    95    49    48    1
    96    47    44   am
    97    47    48    1
    98   179   181   ar
    99    43    44    1
   100    43    42    1
   101   182   181   ar
   102   182   183    1
   103    44    45    2
   104    48    51    1
   105    41    40    2
   106    42    40   am
   107    40    39    1
   108    39    38    1
   109    54    53    1
   110    51    52    1
   111    52    53    1
   112    17    16   ar
   113    38    33   am
   114    18    16   ar
   115    16    15    1
   116    33    34    2
   117    33    32    1
   118   169   167   ar
   119   169   170   ar
   120    37    35    1
   121   167   165   ar
   122    15    14    1
   123    35    32    1
   124    35    36    1
   125   162   161    1
   126   162   163    2
   127    14    11    1
   128    32    31    1
   129   171   170    1
   130   161   164    1
   131   161   160    1
   132   170   168   ar
   133     8     7    2
   134   165   164    1
   135   165   166   ar
   136     9     7   am
   137   168   166   ar
   138     7     6    1
   139    11    10    1
   140    11    12    1
   141    12    13    2
   142    12    19   am
   143     6     5    1
   144    20    23    1
   145    20    19    1
   146    20    21    1
   147     2     5    1
   148     2     1    1
   149     2     3    1
   150    22    21    2
   151     3     4    2
   152   146   145    2
   153   154   153    2
   154    21    24   am
   155   149   150    1
   156   149   148    1
   157   153   152    1
   158   145   144    1
   159   145   151   am
   160   147   144    1
   161   147   148    1
   162    24    25    1
   163   152   151    1
   164   152   155    1
   165   144   143    1
   166   158   157   ar
   167    25    26    1
   168    25    28    1
   169    30    28    1
   170   155   156    1
   171   190   189    1
   172   190   191    1
   173   157   159   ar
   174   157   156    1
   175    26    27    2
   176    28    29    1
   177   187   186    2
   178   189   188    1
   179   188   185    1
   180   186   185    1
   181   185   184    1
   182   199   197   am
   183   198   197    2
   184   197   196    1
   185   196   193    1
   186   195   194    2
   187   193   194    1
   188   193   192    1
