@<TRIPOS>MOLECULE
tmp/3q45I00.pdb
 136 126 0 0 0
SMALL
GASTEIGER

@<TRIPOS>ATOM
      1  N        -36.6480   31.9940   47.9090 N.3    19  PHE19      -0.1241
      2  CA       -35.9400   31.3210   46.8240 C.3    19  PHE19       0.1605
      3  C        -34.8090   30.4720   47.4090 C.2    19  PHE19       0.2264
      4  O        -33.9290   30.9820   48.1090 O.2    19  PHE19      -0.2867
      5  CB       -35.3940   32.3710   45.8490 C.3    19  PHE19       0.0534
      6  CG       -34.6880   31.7960   44.6590 C.ar   19  PHE19      -0.0203
      7  CD1      -35.4000   31.1030   43.6690 C.ar   19  PHE19      -0.0042
      8  CD2      -33.3140   31.9700   44.5110 C.ar   19  PHE19      -0.0042
      9  CE1      -34.7520   30.5770   42.5580 C.ar   19  PHE19      -0.0003
     10  CE2      -32.6520   31.4520   43.4030 C.ar   19  PHE19      -0.0003
     11  CZ       -33.3750   30.7480   42.4210 C.ar   19  PHE19      -0.0000
     12  N        -31.7770   27.5200   47.0640 N.3    21  ILE21      -0.1245
     13  CA       -30.8250   26.6730   46.3520 C.3    21  ILE21       0.1561
     14  C        -29.9120   25.9490   47.3520 C.2    21  ILE21       0.2260
     15  O        -29.9570   26.2220   48.5640 O.2    21  ILE21      -0.2867
     16  CB       -29.9740   27.4770   45.3490 C.3    21  ILE21       0.0252
     17  CG1      -29.1470   28.5320   46.0640 C.3    21  ILE21       0.0019
     18  CG2      -30.8460   28.1570   44.3190 C.3    21  ILE21       0.0019
     19  CD1      -28.1550   29.2190   45.1400 C.3    21  ILE21       0.0001
     20  N        -24.7460   38.3200   44.4990 N.3    51  PHE51      -0.1241
     21  CA       -25.0690   37.0540   45.1510 C.3    51  PHE51       0.1605
     22  C        -23.8310   36.6040   45.9500 C.2    51  PHE51       0.2264
     23  O        -22.8360   36.1310   45.3720 O.2    51  PHE51      -0.2867
     24  CB       -25.4490   36.0100   44.0930 C.3    51  PHE51       0.0534
     25  CG       -26.2350   34.8660   44.6320 C.ar   51  PHE51      -0.0203
     26  CD1      -25.5880   33.7370   45.1550 C.ar   51  PHE51      -0.0042
     27  CD2      -27.6250   34.9050   44.6120 C.ar   51  PHE51      -0.0042
     28  CE1      -26.3310   32.6530   45.6700 C.ar   51  PHE51      -0.0003
     29  CE2      -28.3820   33.8390   45.1210 C.ar   51  PHE51      -0.0003
     30  CZ       -27.7380   32.7060   45.6530 C.ar   51  PHE51      -0.0000
     31  N        -21.5370   33.4560   45.4940 N.3    54  ILE54      -0.1245
     32  CA       -21.0460   33.1840   44.1440 C.3    54  ILE54       0.1561
     33  C        -20.2160   34.3490   43.5790 C.2    54  ILE54       0.2260
     34  O        -19.1250   34.1560   43.0050 O.2    54  ILE54      -0.2867
     35  CB       -22.2080   32.8520   43.1710 C.3    54  ILE54       0.0252
     36  CG1      -23.0710   31.7270   43.7400 C.3    54  ILE54       0.0019
     37  CG2      -21.6640   32.4610   41.7900 C.3    54  ILE54       0.0019
     38  CD1      -24.0270   31.1320   42.7110 C.3    54  ILE54       0.0001
     39  N        -36.8880   24.1100   35.7750 N.3   160  LYS160     -0.1245
     40  CA       -35.5370   23.9830   36.3040 C.3   160  LYS160      0.1561
     41  C        -35.5820   23.6070   37.7950 C.2   160  LYS160      0.2260
     42  O        -36.1450   24.3510   38.6170 O.2   160  LYS160     -0.2867
     43  CB       -34.7720   25.2850   36.0850 C.3   160  LYS160      0.0271
     44  CG       -33.3970   25.3140   36.7060 C.3   160  LYS160      0.0035
     45  CD       -32.6210   26.5000   36.1890 C.3   160  LYS160      0.0206
     46  CE       -31.4640   26.8200   37.1010 C.3   160  LYS160      0.1093
     47  NZ       -30.6210   27.8850   36.5030 N.3   160  LYS160     -0.1314
     48  N        -33.8590   22.7530   41.4410 N.3   162  LYS162     -0.1245
     49  CA       -32.6890   22.9310   42.3070 C.3   162  LYS162      0.1561
     50  C        -32.3960   21.6830   43.1470 C.2   162  LYS162      0.2260
     51  O        -33.1220   21.3660   44.1000 O.2   162  LYS162     -0.2867
     52  CB       -32.8620   24.1480   43.2230 C.3   162  LYS162      0.0271
     53  CG       -32.8730   25.4710   42.4840 C.3   162  LYS162      0.0035
     54  CD       -31.5430   25.7090   41.7920 C.3   162  LYS162      0.0206
     55  CE       -31.5240   27.0410   41.0600 C.3   162  LYS162      0.1093
     56  NZ       -30.1400   27.3690   40.6080 N.3   162  LYS162     -0.1314
     57  N        -30.0650   21.7300   38.5830 N.3   190  ASP190     -0.1239
     58  CA       -28.9930   22.6180   39.0000 C.3   190  ASP190      0.1674
     59  C        -28.6140   22.3230   40.4570 C.2   190  ASP190      0.2266
     60  O        -29.4480   22.4370   41.3700 O.2   190  ASP190     -0.2867
     61  CB       -29.4460   24.0730   38.8420 C.3   190  ASP190      0.1410
     62  CG       -28.3140   25.0750   39.0400 C.2   190  ASP190      0.3668
     63  OD1      -27.2150   24.7000   39.5200 O.co2 190  ASP190     -0.2456
     64  OD2      -28.5330   26.2580   38.7080 O.co2 190  ASP190     -0.2456
     65  N        -25.8170   23.6850   42.0370 N.3   192  ASN192     -0.1240
     66  CA       -25.0740   24.7950   42.6320 C.3   192  ASN192      0.1653
     67  C        -23.9180   24.2820   43.4930 C.2   192  ASN192      0.2266
     68  O        -23.8210   24.6150   44.6950 O.2   192  ASN192     -0.2867
     69  CB       -26.0140   25.7080   43.4450 C.3   192  ASN192      0.1155
     70  CG       -27.0040   26.4640   42.5590 C.2   192  ASN192      0.2627
     71  OD1      -26.6040   27.2340   41.6760 O.2   192  ASN192     -0.2716
     72  ND2      -28.2960   26.2380   42.7840 N.am  192  ASN192     -0.0877
     73  N        -21.6940   26.4560   35.3310 N.3   241  ASP241     -0.1225
     74  CA       -22.1880   27.7760   35.7150 C.3   241  ASP241      0.1805
     75  C        -21.1200   28.5520   36.5010 C.2   241  ASP241      0.2597
     76  O        -20.3430   29.3170   35.9190 O.2   241  ASP241     -0.2718
     77  CB       -23.4890   27.6630   36.5120 C.3   241  ASP241      0.1424
     78  CG       -24.1860   28.9970   36.6730 C.2   241  ASP241      0.3668
     79  OD1      -23.4920   30.0450   36.6780 O.co2 241  ASP241     -0.2456
     80  OD2      -25.4300   29.0020   36.7900 O.co2 241  ASP241     -0.2456
     81  N        -21.0820   28.3520   37.8190 N.am  242  GLU242     -0.1979
     82  CA       -20.0780   28.9970   38.6720 C.3   242  GLU242      0.1602
     83  C        -18.6630   28.7500   38.1540 C.2   242  GLU242      0.2287
     84  O        -17.7640   29.5740   38.3470 O.2   242  GLU242     -0.2864
     85  CB       -20.1880   28.5170   40.1270 C.3   242  GLU242      0.0415
     86  CG       -21.4400   28.9860   40.8450 C.3   242  GLU242      0.1163
     87  CD       -22.6320   28.0440   40.6640 C.2   242  GLU242      0.3649
     88  OE1      -23.0730   27.8280   39.5050 O.co2 242  GLU242     -0.2457
     89  OE2      -23.1400   27.5380   41.7020 O.co2 242  GLU242     -0.2457
     90  N        -23.8550   34.2990   32.1470 N.3   265  LYS265     -0.1245
     91  CA       -24.4980   35.3500   32.9430 C.3   265  LYS265      0.1561
     92  C        -23.6530   36.6300   32.8630 C.2   265  LYS265      0.2260
     93  O        -22.4150   36.5800   33.0510 O.2   265  LYS265     -0.2867
     94  CB       -24.6320   34.9250   34.4090 C.3   265  LYS265      0.0271
     95  CG       -25.4090   33.6380   34.6390 C.3   265  LYS265      0.0035
     96  CD       -25.6920   33.4580   36.1240 C.3   265  LYS265      0.0206
     97  CE       -25.8650   31.9790   36.4770 C.3   265  LYS265      0.1093
     98  NZ       -27.1940   31.6540   37.0940 N.3   265  LYS265     -0.1314
     99  N        -29.0380   34.2600   34.8540 N.3   293  GLY293     -0.1210
    100  CA       -28.7820   35.3900   35.7280 C.3   293  GLY293      0.1956
    101  C        -29.0110   35.0660   37.1940 C.2   293  GLY293      0.2612
    102  O        -29.0490   33.8940   37.5800 O.2   293  GLY293     -0.2717
    103  N        -29.1580   36.1020   38.0170 N.am  294  PHE294     -0.1962
    104  CA       -29.3700   35.9070   39.4490 C.3   294  PHE294      0.1771
    105  C        -30.7370   36.4300   39.8390 C.2   294  PHE294      0.2619
    106  O        -31.7560   35.8640   39.4240 O.2   294  PHE294     -0.2715
    107  CB       -28.2390   36.5330   40.2640 C.3   294  PHE294      0.0574
    108  CG       -26.9010   35.8510   40.0410 C.ar  294  PHE294     -0.0200
    109  CD1      -26.4770   34.8240   40.8900 C.ar  294  PHE294     -0.0042
    110  CD2      -26.0910   36.2040   38.9510 C.ar  294  PHE294     -0.0042
    111  CE1      -25.2580   34.1720   40.6820 C.ar  294  PHE294     -0.0003
    112  CE2      -24.8700   35.5610   38.7270 C.ar  294  PHE294     -0.0003
    113  CZ       -24.4500   34.5400   39.5950 C.ar  294  PHE294     -0.0000
    114  N        -30.7880   37.5050   40.6130 N.am  295  LEU295     -0.1977
    115  CA       -32.0980   38.0450   40.9630 C.3   295  LEU295      0.1596
    116  C        -32.3380   39.4450   40.3880 C.2   295  LEU295      0.2287
    117  O        -33.0520   40.2670   40.9770 O.2   295  LEU295     -0.2864
    118  CB       -32.3260   37.9950   42.4720 C.3   295  LEU295      0.0297
    119  CG       -32.7650   36.6180   42.9730 C.3   295  LEU295      0.0022
    120  CD1      -31.6400   35.6050   42.8370 C.3   295  LEU295      0.0001
    121  CD2      -33.2320   36.6950   44.4260 C.3   295  LEU295      0.0001
    122  N        -32.9670   30.9910   31.0200 N.3   318  ASP318     -0.1239
    123  CA       -33.3840   30.9620   32.4130 C.3   318  ASP318      0.1674
    124  C        -33.5800   32.4210   32.8960 C.2   318  ASP318      0.2266
    125  O        -32.6640   33.0530   33.4400 O.2   318  ASP318     -0.2867
    126  CB       -32.3480   30.1950   33.2540 C.3   318  ASP318      0.1410
    127  CG       -32.7060   30.1310   34.7370 C.2   318  ASP318      0.3668
    128  OD1      -31.7590   30.1240   35.5540 O.co2 318  ASP318     -0.2456
    129  OD2      -33.9130   30.0860   35.0930 O.co2 318  ASP318     -0.2456
    130  N        -36.6320   34.6600   37.5580 N.3   321  THR321     -0.1218
    131  CA       -36.6810   35.3370   38.8690 C.3   321  THR321      0.1862
    132  C        -37.5140   36.6380   38.9570 C.2   321  THR321      0.2287
    133  O        -38.1390   36.9120   39.9900 O.2   321  THR321     -0.2866
    134  CB       -35.2730   35.5960   39.4250 C.3   321  THR321      0.1770
    135  OG1      -34.3910   35.9020   38.3390 O.3   321  THR321     -0.2211
    136  CG2      -34.7570   34.3650   40.1340 C.3   321  THR321      0.0375
@<TRIPOS>BOND
     1   122   123    1
     2    90    91    1
     3   123   124    1
     4   123   126    1
     5    92    91    1
     6    92    93    2
     7   124   125    2
     8    91    94    1
     9   126   127    1
    10    94    95    1
    11    95    96    1
    12   127   129   ar
    13   127   128   ar
    14    99   100    1
    15    73    74    1
    16    74    75    1
    17    74    77    1
    18   100   101    1
    19    39    40    1
    20    76    75    2
    21    43    40    1
    22    43    44    1
    23    96    97    1
    24    45    44    1
    25    45    46    1
    26    40    41    1
    27    97    98    1
    28    75    81   am
    29    47    46    1
    30    77    78    1
    31    78    79   ar
    32    78    80   ar
    33   101   102    2
    34   101   103   am
    35   130   131    1
    36    41    42    2
    37    81    82    1
    38   103   104    1
    39    83    84    2
    40    83    82    1
    41   135   134    1
    42    57    58    1
    43    82    85    1
    44    64    62   ar
    45   112   110   ar
    46   112   113   ar
    47    61    58    1
    48    61    62    1
    49   131   132    1
    50   131   134    1
    51   110   108   ar
    52   132   133    2
    53    58    59    1
    54    62    63   ar
    55   106   105    2
    56   134   136    1
    57   104   105    1
    58   104   107    1
    59    88    87   ar
    60   113   111   ar
    61   105   114   am
    62   108   107    1
    63   108   109   ar
    64    85    86    1
    65   116   115    1
    66   116   117    2
    67    59    60    2
    68    56    55    1
    69   114   115    1
    70    87    86    1
    71    87    89   ar
    72   111   109   ar
    73   115   118    1
    74    55    54    1
    75    48    49    1
    76    71    70    2
    77    37    35    1
    78    54    53    1
    79    65    66    1
    80    49    50    1
    81    49    52    1
    82    11     9   ar
    83    11    10   ar
    84   118   119    1
    85    53    52    1
    86     9     7   ar
    87    70    72   am
    88    70    69    1
    89    66    69    1
    90    66    67    1
    91    38    36    1
    92   120   119    1
    93   119   121    1
    94    34    33    2
    95    50    51    2
    96    35    36    1
    97    35    32    1
    98    10     8   ar
    99    67    68    2
   100    33    32    1
   101     7     6   ar
   102    24    25    1
   103    24    21    1
   104    32    31    1
   105    18    16    1
   106    20    21    1
   107     8     6   ar
   108    27    25   ar
   109    27    29   ar
   110    25    26   ar
   111     6     5    1
   112    29    30   ar
   113    19    17    1
   114    21    22    1
   115    26    28   ar
   116    16    17    1
   117    16    13    1
   118    23    22    2
   119    30    28   ar
   120     5     2    1
   121    13    12    1
   122    13    14    1
   123     2     3    1
   124     2     1    1
   125    14    15    2
   126     3     4    2
