@<TRIPOS>MOLECULE
tmp/3q46A00.pdb
 97 89 0 0 0
SMALL
GASTEIGER

@<TRIPOS>ATOM
      1  N         45.2290   17.0970    0.8520 N.3    32  GLU32      -0.1245
      2  CA        44.3220   17.0760    1.9770 C.3    32  GLU32       0.1567
      3  C         44.9450   17.8780    3.1040 C.2    32  GLU32       0.2260
      4  O         46.1430   17.8990    3.2790 O.2    32  GLU32      -0.2867
      5  CB        44.0410   15.6720    2.5040 C.3    32  GLU32       0.0388
      6  CG        43.2520   14.8120    1.5070 C.3    32  GLU32       0.1160
      7  CD        42.8820   13.4370    2.0180 C.2    32  GLU32       0.3649
      8  OE1       41.8510   12.9020    1.5350 O.co2  32  GLU32      -0.2457
      9  OE2       43.5930   12.8670    2.8860 O.co2  32  GLU32      -0.2457
     10  N         48.0730   13.7710   -0.3960 N.3    43  ASP43      -0.1225
     11  CA        47.5340   12.4270   -0.0800 C.3    43  ASP43       0.1805
     12  C         47.9610   11.4390   -1.1380 C.2    43  ASP43       0.2597
     13  O         48.5570   10.3850   -0.8330 O.2    43  ASP43      -0.2718
     14  CB        46.0050   12.4890   -0.0210 C.3    43  ASP43       0.1424
     15  CG        45.3180   11.1180    0.0790 C.2    43  ASP43       0.3668
     16  OD1       45.8210   10.3790    0.9690 O.co2  43  ASP43      -0.2456
     17  OD2       44.2650   10.8570   -0.5370 O.co2  43  ASP43      -0.2456
     18  N         47.7310   11.7690   -2.4320 N.am   44  ARG44      -0.1979
     19  CA        48.3670   10.9510   -3.5310 C.3    44  ARG44       0.1597
     20  C         48.1660   11.7960   -4.7800 C.2    44  ARG44       0.2287
     21  O         47.6390   12.8820   -4.7850 O.2    44  ARG44      -0.2864
     22  CB        47.7100    9.5720   -3.7560 C.3    44  ARG44       0.0334
     23  CG        46.2370    9.9620   -4.0280 C.3    44  ARG44       0.0492
     24  CD        45.4160    8.8400   -3.8130 C.3    44  ARG44       0.2205
     25  NE        44.1300    8.8570   -4.5610 N.pl3  44  ARG44      -0.0865
     26  CZ        42.9700    9.3260   -4.1220 C.cat  44  ARG44       0.5346
     27  NH1       42.8800   10.1010   -3.0670 N.pl3  44  ARG44       0.1354
     28  NH2       41.9490    9.1440   -4.9800 N.pl3  44  ARG44       0.1354
     29  N         31.5740    9.8190    7.5230 N.3    65  ASP65      -0.1225
     30  CA        31.6730    8.3620    7.6270 C.3    65  ASP65       0.1805
     31  C         32.9870    7.8060    7.1480 C.2    65  ASP65       0.2598
     32  O         33.3220    6.6800    7.5090 O.2    65  ASP65      -0.2718
     33  CB        30.5660    7.6920    6.8150 C.3    65  ASP65       0.1424
     34  CG        29.1800    8.1070    7.2760 C.2    65  ASP65       0.3668
     35  OD1       28.8390    9.2790    7.2340 O.co2  65  ASP65      -0.2456
     36  OD2       28.4140    7.2350    7.6570 O.co2  65  ASP65      -0.2456
     37  N         33.7140    8.5350    6.2910 N.am   66  ASP66      -0.1960
     38  CA        35.0240    8.1020    5.8330 C.3    66  ASP66       0.1840
     39  C         36.1340    8.5300    6.7580 C.2    66  ASP66       0.2622
     40  O         37.3200    8.3760    6.4080 O.2    66  ASP66      -0.2715
     41  CB        35.2860    8.5430    4.4000 C.3    66  ASP66       0.1450
     42  CG        35.3580   10.0580    4.2210 C.2    66  ASP66       0.3671
     43  OD1       34.8740   10.7830    5.1010 O.co2  66  ASP66      -0.2456
     44  OD2       35.8790   10.4700    3.1390 O.co2  66  ASP66      -0.2456
     45  N         35.8140    8.9740    7.9630 N.am   67  GLY67      -0.1954
     46  CA        36.8740    9.2600    8.9100 C.3    67  GLY67       0.1869
     47  C         37.6560   10.5070    8.5960 C.2    67  GLY67       0.2309
     48  O         38.8880   10.5420    8.7530 O.2    67  GLY67      -0.2863
     49  N         32.3940    5.6190   -1.2390 N.3    98  ASP98      -0.1225
     50  CA        33.8120    5.5740   -1.5920 C.3    98  ASP98       0.1805
     51  C         34.4680    4.4680   -0.7790 C.2    98  ASP98       0.2598
     52  O         34.5470    4.5910    0.4420 O.2    98  ASP98      -0.2718
     53  CB        34.4610    6.9230   -1.3000 C.3    98  ASP98       0.1424
     54  CG        35.8870    7.0400   -1.7320 C.2    98  ASP98       0.3668
     55  OD1       36.4030    6.0510   -2.3190 O.co2  98  ASP98      -0.2456
     56  OD2       36.5470    8.0570   -1.5130 O.co2  98  ASP98      -0.2456
     57  N         34.8650    3.3910   -1.4140 N.am   99  SER99      -0.1952
     58  CA        35.5290    2.2800   -0.7130 C.3    99  SER99       0.1924
     59  C         34.6590    1.7550    0.4210 C.2    99  SER99       0.2314
     60  O         35.1640    1.2890    1.4450 O.2    99  SER99      -0.2863
     61  CB        36.9280    2.7410   -0.2340 C.3    99  SER99       0.2116
     62  OG        37.7240    3.1810   -1.3090 O.3    99  SER99      -0.2180
     63  N         32.4430    3.4920    2.2620 N.3   101  ASP101     -0.1239
     64  CA        32.0030    4.5230    3.1820 C.3   101  ASP101      0.1674
     65  C         31.0700    5.4960    2.4840 C.2   101  ASP101      0.2266
     66  O         31.3450    5.9830    1.3790 O.2   101  ASP101     -0.2867
     67  CB        33.1810    5.3400    3.7030 C.3   101  ASP101      0.1410
     68  CG        34.2010    4.5680    4.4450 C.2   101  ASP101      0.3668
     69  OD1       33.8190    3.6330    5.1790 O.co2 101  ASP101     -0.2456
     70  OD2       35.4030    4.9890    4.3180 O.co2 101  ASP101     -0.2456
     71  N         39.3340    6.3740   -9.4440 N.3   141  LYS141     -0.1245
     72  CA        40.0800    5.4020   -8.6170 C.3   141  LYS141      0.1561
     73  C         40.1540    4.0590   -9.3050 C.2   141  LYS141      0.2260
     74  O         40.6270    3.0900   -8.7220 O.2   141  LYS141     -0.2867
     75  CB        39.4540    5.2440   -7.2080 C.3   141  LYS141      0.0271
     76  CG        39.6100    6.4640   -6.3240 C.3   141  LYS141      0.0035
     77  CD        39.1190    6.2020   -4.8460 C.3   141  LYS141      0.0206
     78  CE        39.1890    7.4980   -4.0210 C.3   141  LYS141      0.1093
     79  NZ        39.1540    7.1780   -2.5200 N.3   141  LYS141     -0.1314
     80  N         43.5460    2.4420   -9.0190 N.3   144  GLN144     -0.1245
     81  CA        43.8970    2.0450   -7.6650 C.3   144  GLN144      0.1566
     82  C         43.2210    0.7860   -7.1990 C.2   144  GLN144      0.2260
     83  O         43.5220    0.2530   -6.1410 O.2   144  GLN144     -0.2867
     84  CB        43.5430    3.1290   -6.6810 C.3   144  GLN144      0.0367
     85  CG        44.2720    4.4220   -6.8980 C.3   144  GLN144      0.0905
     86  CD        43.8510    5.5450   -5.9140 C.2   144  GLN144      0.2608
     87  OE1       43.3420    6.6350   -6.2670 O.2   144  GLN144     -0.2717
     88  NE2       44.1160    5.2890   -4.6610 N.am  144  GLN144     -0.0878
     89  N         40.1010    0.5660   -6.2650 N.3   146  LYS146     -0.1245
     90  CA        39.1860    0.9150   -5.2060 C.3   146  LYS146      0.1561
     91  C         37.8230    1.1960   -5.7860 C.2   146  LYS146      0.2260
     92  O         37.7230    1.8450   -6.7920 O.2   146  LYS146     -0.2867
     93  CB        39.6710    2.0640   -4.4030 C.3   146  LYS146      0.0271
     94  CG        41.0030    1.7140   -3.6840 C.3   146  LYS146      0.0035
     95  CD        41.5240    2.8330   -2.8240 C.3   146  LYS146      0.0206
     96  CE        42.6390    2.3600   -1.9580 C.3   146  LYS146      0.1093
     97  NZ        43.1060    3.4270   -1.0410 N.3   146  LYS146     -0.1314
@<TRIPOS>BOND
     1    71    72    1
     2    73    74    2
     3    73    72    1
     4    80    81    1
     5    72    75    1
     6    81    82    1
     7    81    84    1
     8    75    76    1
     9    82    83    2
    10    85    84    1
    11    85    86    1
    12    92    91    2
    13    76    77    1
    14    87    86    2
    15    89    90    1
    16    86    88   am
    17    91    90    1
    18    90    93    1
    19    28    26    1
    20    77    78    1
    21    21    20    2
    22    20    19    1
    23    25    26    2
    24    25    24    1
    25    93    94    1
    26    26    27    1
    27    23    24    1
    28    23    22    1
    29    78    79    1
    30    22    19    1
    31    94    95    1
    32    19    18    1
    33    95    96    1
    34    18    12   am
    35    55    54   ar
    36    96    97    1
    37    54    56   ar
    38    54    53    1
    39    50    53    1
    40    50    49    1
    41    50    51    1
    42    57    51   am
    43    57    58    1
    44    62    61    1
    45    12    13    2
    46    12    11    1
    47    51    52    2
    48    58    61    1
    49    58    59    1
    50    17    15   ar
    51    10    11    1
    52    11    14    1
    53    14    15    1
    54    15    16   ar
    55    59    60    2
    56     1     2    1
    57    66    65    2
    58     6     7    1
    59     6     5    1
    60     8     7   ar
    61     2     5    1
    62     2     3    1
    63     7     9   ar
    64    63    64    1
    65    65    64    1
    66     3     4    2
    67    44    42   ar
    68    64    67    1
    69    67    68    1
    70    42    41    1
    71    42    43   ar
    72    70    68   ar
    73    41    38    1
    74    68    69   ar
    75    38    37    1
    76    38    39    1
    77    37    31   am
    78    40    39    2
    79    39    45   am
    80    33    34    1
    81    33    30    1
    82    31    32    2
    83    31    30    1
    84    35    34   ar
    85    34    36   ar
    86    29    30    1
    87    45    46    1
    88    47    48    2
    89    47    46    1
