@<TRIPOS>MOLECULE
tmp/3q47A00.pdb
 159 152 0 0 0
SMALL
GASTEIGER

@<TRIPOS>ATOM
      1  N         25.6440   20.3660    4.9190 N.3     8  LYS8       -0.1245
      2  CA        24.7270   19.2700    5.1430 C.3     8  LYS8        0.1561
      3  C         24.9840   18.1830    4.1090 C.2     8  LYS8        0.2260
      4  O         25.0110   17.0000    4.4370 O.2     8  LYS8       -0.2867
      5  CB        23.2490   19.7060    5.1080 C.3     8  LYS8        0.0271
      6  CG        22.3220   18.5740    5.5780 C.3     8  LYS8        0.0035
      7  CD        20.9150   18.7090    5.0310 C.3     8  LYS8        0.0206
      8  CE        20.8660   18.4020    3.5510 C.3     8  LYS8        0.1093
      9  NZ        19.4480   18.4360    3.0590 N.3     8  LYS8       -0.1314
     10  N         26.2060   14.3370    4.7000 N.3    12  ASN12      -0.1240
     11  CA        25.4660   13.2030    4.1400 C.3    12  ASN12       0.1653
     12  C         26.4010   12.2390    3.4040 C.2    12  ASN12       0.2266
     13  O         26.2570   11.0300    3.5190 O.2    12  ASN12      -0.2867
     14  CB        24.3300   13.6690    3.2260 C.3    12  ASN12       0.1155
     15  CG        23.1730   14.3150    3.9930 C.2    12  ASN12       0.2627
     16  OD1       23.1560   14.3480    5.2270 O.2    12  ASN12      -0.2716
     17  ND2       22.2030   14.8370    3.2540 N.am   12  ASN12      -0.0877
     18  N         28.3270   10.3140    5.8820 N.3    15  PHE15      -0.1227
     19  CA        27.4420    9.3240    6.4830 C.3    15  PHE15       0.1736
     20  C         27.3910    8.0650    5.6140 C.2    15  PHE15       0.2595
     21  O         27.5340    6.9340    6.1100 O.2    15  PHE15      -0.2718
     22  CB        26.0440    9.9100    6.6960 C.3    15  PHE15       0.0547
     23  CG        25.0990    8.9580    7.3750 C.ar   15  PHE15      -0.0202
     24  CD1       24.2590    8.1420    6.6260 C.ar   15  PHE15      -0.0042
     25  CD2       25.0690    8.8670    8.7620 C.ar   15  PHE15      -0.0042
     26  CE1       23.3930    7.2530    7.2500 C.ar   15  PHE15      -0.0003
     27  CE2       24.1970    7.9680    9.3900 C.ar   15  PHE15      -0.0003
     28  CZ        23.3710    7.1680    8.6310 C.ar   15  PHE15      -0.0000
     29  N         27.2050    8.2660    4.3150 N.am   16  VAL16      -0.1980
     30  CA        27.2500    7.1550    3.3670 C.3    16  VAL16       0.1595
     31  C         28.5880    6.4200    3.5100 C.2    16  VAL16       0.2287
     32  O         28.6600    5.1920    3.3900 O.2    16  VAL16      -0.2864
     33  CB        27.0620    7.6560    1.9130 C.3    16  VAL16       0.0276
     34  CG1       27.3300    6.5420    0.8970 C.3    16  VAL16       0.0022
     35  CG2       25.6820    8.2350    1.7280 C.3    16  VAL16       0.0022
     36  N         27.6050   18.3510   10.3140 N.3    27  TYR27      -0.1241
     37  CA        26.2600   18.8290   10.6540 C.3    27  TYR27       0.1605
     38  C         26.3690   19.9330   11.7080 C.2    27  TYR27       0.2264
     39  O         25.5970   20.8810   11.7090 O.2    27  TYR27      -0.2867
     40  CB        25.3730   17.6790   11.1320 C.3    27  TYR27       0.0534
     41  CG        25.1410   16.6080   10.0930 C.ar   27  TYR27      -0.0201
     42  CD1       24.7140   16.9300    8.8010 C.ar   27  TYR27      -0.0009
     43  CD2       25.3260   15.2610   10.4070 C.ar   27  TYR27      -0.0009
     44  CE1       24.4860   15.9280    7.8460 C.ar   27  TYR27       0.0417
     45  CE2       25.0960   14.2720    9.4720 C.ar   27  TYR27       0.0417
     46  CZ        24.6810   14.6040    8.1970 C.ar   27  TYR27       0.1957
     47  OH        24.4780   13.5940    7.2760 O.3    27  TYR27      -0.2866
     48  N         16.3400   19.3810   10.4870 N.3    39  VAL39      -0.1245
     49  CA        17.0080   18.2500    9.8430 C.3    39  VAL39       0.1561
     50  C         18.5040   18.1460   10.1730 C.2    39  VAL39       0.2260
     51  O         19.0620   17.0440   10.1620 O.2    39  VAL39      -0.2867
     52  CB        16.8120   18.2700    8.3160 C.3    39  VAL39       0.0252
     53  CG1       17.8390   17.3840    7.6340 C.3    39  VAL39       0.0019
     54  CG2       15.3960   17.8030    7.9620 C.3    39  VAL39       0.0019
     55  N         18.4190   16.2180   13.5040 N.3    42  THR42      -0.1203
     56  CA        18.0690   14.7930   13.3880 C.3    42  THR42       0.1994
     57  C         19.1420   14.0030   12.6310 C.2    42  THR42       0.2617
     58  O         19.4240   12.8570   12.9880 O.2    42  THR42      -0.2717
     59  CB        16.6400   14.5800   12.8270 C.3    42  THR42       0.1784
     60  OG1       16.4730   15.2950   11.5960 O.3    42  THR42      -0.2211
     61  CG2       15.6560   15.1300   13.8300 C.3    42  THR42       0.0376
     62  N         19.7380   14.5820   11.6090 N.am   43  ASN43      -0.1974
     63  CA        20.8550   13.9500   10.9460 C.3    43  ASN43       0.1688
     64  C         21.9860   13.7140   11.9480 C.2    43  ASN43       0.2292
     65  O         22.5660   12.6980   11.9460 O.2    43  ASN43      -0.2864
     66  CB        21.3720   14.8050    9.7990 C.3    43  ASN43       0.1181
     67  CG        20.5110   14.7200    8.5550 C.2    43  ASN43       0.2629
     68  OD1       19.5410   14.0340    8.5380 O.2    43  ASN43      -0.2716
     69  ND2       20.9060   15.4180    7.5210 N.am   43  ASN43      -0.0877
     70  N         21.3260   10.8320   14.3490 N.3    46  LEU46      -0.1245
     71  CA        21.5570    9.4990   13.7850 C.3    46  LEU46       0.1561
     72  C         23.0490    9.1560   13.8360 C.2    46  LEU46       0.2260
     73  O         23.4370    8.0140   14.1160 O.2    46  LEU46      -0.2867
     74  CB        21.0040    9.3900   12.3610 C.3    46  LEU46       0.0270
     75  CG        21.1220    8.0360   11.6620 C.3    46  LEU46       0.0019
     76  CD1       20.5340    6.9410   12.5530 C.3    46  LEU46       0.0001
     77  CD2       20.4310    8.1070   10.3150 C.3    46  LEU46       0.0001
     78  N         24.8920    6.0250   15.8820 N.3    50  LYS50      -0.1245
     79  CA        25.8930    5.1310   15.3020 C.3    50  LYS50       0.1561
     80  C         27.1830    5.1200   16.1220 C.2    50  LYS50       0.2260
     81  O         27.8960    4.1040   16.1510 O.2    50  LYS50      -0.2867
     82  CB        26.1810    5.4860   13.8330 C.3    50  LYS50       0.0271
     83  CG        24.9700    5.4070   12.8870 C.3    50  LYS50       0.0035
     84  CD        24.6070    3.9850   12.4990 C.3    50  LYS50       0.0206
     85  CE        23.3430    3.9780   11.6450 C.3    50  LYS50       0.1093
     86  NZ        22.7240    2.6330   11.6020 N.3    50  LYS50      -0.1314
     87  N          8.7210   13.4170   12.2180 N.3    72  VAL72      -0.1231
     88  CA         8.6560   11.9570   12.3690 C.3    72  VAL72       0.1692
     89  C         10.0130   11.4290   12.8130 C.2    72  VAL72       0.2591
     90  O         10.1160   10.6460   13.7720 O.2    72  VAL72      -0.2718
     91  CB         8.2690   11.2680   11.0410 C.3    72  VAL72       0.0266
     92  CG1        8.4380    9.7480   11.1500 C.3    72  VAL72       0.0020
     93  CG2        6.8380   11.6080   10.6610 C.3    72  VAL72       0.0020
     94  N         11.0720   11.8520   12.1240 N.am   73  LYS73      -0.1980
     95  CA        12.3840   11.2940   12.4410 C.3    73  LYS73       0.1596
     96  C         12.8700   11.6930   13.8280 C.2    73  LYS73       0.2287
     97  O         13.5160   10.9010   14.5190 O.2    73  LYS73      -0.2864
     98  CB        13.4150   11.6390   11.3640 C.3    73  LYS73       0.0298
     99  CG        13.2050   10.8230   10.0990 C.3    73  LYS73       0.0038
    100  CD        14.4210   10.9140    9.1820 C.3    73  LYS73       0.0206
    101  CE        14.1790   10.1840    7.8720 C.3    73  LYS73       0.1093
    102  NZ        15.2980   10.4310    6.9200 N.3    73  LYS73      -0.1314
    103  N         11.2040    9.2830   16.1260 N.3    76  PHE76      -0.1227
    104  CA        11.7480    7.9430   15.9150 C.3    76  PHE76       0.1736
    105  C         13.1510    7.8010   16.5330 C.2    76  PHE76       0.2595
    106  O         13.4030    6.8700   17.3010 O.2    76  PHE76      -0.2718
    107  CB        11.7690    7.6130   14.4150 C.3    76  PHE76       0.0547
    108  CG        12.2700    6.2180   14.1060 C.ar   76  PHE76      -0.0202
    109  CD1       11.3940    5.1310   14.1180 C.ar   76  PHE76      -0.0042
    110  CD2       13.6020    5.9910   13.8220 C.ar   76  PHE76      -0.0042
    111  CE1       11.8550    3.8510   13.8410 C.ar   76  PHE76      -0.0003
    112  CE2       14.0630    4.7080   13.5620 C.ar   76  PHE76      -0.0003
    113  CZ        13.1850    3.6470   13.5660 C.ar   76  PHE76      -0.0000
    114  N         14.0550    8.7220   16.2030 N.am   77  PHE77      -0.1976
    115  CA        15.3960    8.6960   16.7850 C.3    77  PHE77       0.1639
    116  C         15.3380    8.9020   18.3090 C.2    77  PHE77       0.2290
    117  O         16.0950    8.3000   19.0380 O.2    77  PHE77      -0.2864
    118  CB        16.3380    9.7210   16.1050 C.3    77  PHE77       0.0560
    119  CG        16.5790    9.4650   14.6350 C.ar   77  PHE77      -0.0200
    120  CD1       16.6350    8.1730   14.1330 C.ar   77  PHE77      -0.0042
    121  CD2       16.7710   10.5250   13.7580 C.ar   77  PHE77      -0.0042
    122  CE1       16.8400    7.9440   12.7800 C.ar   77  PHE77      -0.0003
    123  CE2       16.9800   10.3140   12.4000 C.ar   77  PHE77      -0.0003
    124  CZ        17.0110    9.0170   11.9070 C.ar   77  PHE77      -0.0000
    125  N          5.5740    7.1780    3.8580 N.3   108  ASN108     -0.1225
    126  CA         5.6540    5.7510    3.7450 C.3   108  ASN108      0.1785
    127  C          7.0510    5.2800    4.0130 C.2   108  ASN108      0.2597
    128  O          7.8970    5.5040    3.2250 O.2   108  ASN108     -0.2718
    129  CB         5.2280    5.3230    2.3320 C.3   108  ASN108      0.1169
    130  CG         5.3710    3.8540    2.1010 C.2   108  ASN108      0.2627
    131  OD1        5.6500    3.1210    2.9920 O.2   108  ASN108     -0.2716
    132  ND2        5.1810    3.4330    0.8770 N.am  108  ASN108     -0.0877
    133  N          7.2760    4.6000    5.1290 N.am  109  PHE109     -0.1976
    134  CA         8.5820    4.0580    5.4830 C.3   109  PHE109      0.1639
    135  C          8.5160    2.5610    5.5180 C.2   109  PHE109      0.2290
    136  O          9.2860    1.9320    6.1930 O.2   109  PHE109     -0.2864
    137  CB         9.0670    4.5560    6.8690 C.3   109  PHE109      0.0560
    138  CG         9.2590    6.0410    6.9520 C.ar  109  PHE109     -0.0200
    139  CD1        8.2620    6.8410    7.4440 C.ar  109  PHE109     -0.0042
    140  CD2       10.4000    6.6450    6.4790 C.ar  109  PHE109     -0.0042
    141  CE1        8.4120    8.1890    7.4950 C.ar  109  PHE109     -0.0003
    142  CE2       10.5250    7.9800    6.5310 C.ar  109  PHE109     -0.0003
    143  CZ         9.5510    8.7380    7.0500 C.ar  109  PHE109     -0.0000
    144  N          9.3620   -0.1490    8.5900 N.3   112  ASP112     -0.1225
    145  CA        10.4330    0.2770    9.4870 C.3   112  ASP112      0.1805
    146  C          9.9470    0.6330   10.8870 C.2   112  ASP112      0.2597
    147  O         10.5290    0.1930   11.8840 O.2   112  ASP112     -0.2718
    148  CB        11.1980    1.4650    8.9020 C.3   112  ASP112      0.1424
    149  CG        12.1140    1.0680    7.7650 C.2   112  ASP112      0.3668
    150  OD1       12.1320   -0.1240    7.3980 O.co2 112  ASP112     -0.2456
    151  OD2       12.8210    1.9540    7.2350 O.co2 112  ASP112     -0.2456
    152  N          8.8910    1.4330   10.9710 N.am  113  ILE113     -0.1980
    153  CA         8.4090    1.8510   12.2810 C.3   113  ILE113      0.1595
    154  C          7.7370    0.7220   13.0770 C.2   113  ILE113      0.2287
    155  O          8.0640    0.5320   14.2500 O.2   113  ILE113     -0.2864
    156  CB         7.5320    3.1160   12.2120 C.3   113  ILE113      0.0276
    157  CG1        8.2760    4.2400   11.4770 C.3   113  ILE113      0.0022
    158  CG2        7.1720    3.5720   13.6130 C.3   113  ILE113      0.0022
    159  CD1        7.4440    5.5440   11.3710 C.3   113  ILE113      0.0001
@<TRIPOS>BOND
     1   132   130   am
     2    34    33    1
     3    35    33    1
     4    33    30    1
     5   130   129    1
     6   130   131    2
     7   129   126    1
     8     9     8    1
     9   128   127    2
    10    14    15    1
    11    14    11    1
    12    17    15   am
    13    30    31    1
    14    30    29    1
    15    32    31    2
    16    12    13    2
    17    12    11    1
    18     8     7    1
    19   126   125    1
    20   126   127    1
    21    15    16    2
    22   127   133   am
    23     3     4    2
    24     3     2    1
    25    11    10    1
    26    29    20   am
    27     1     2    1
    28     7     6    1
    29     5     2    1
    30     5     6    1
    31   133   134    1
    32   134   135    1
    33   134   137    1
    34   135   136    2
    35    20    21    2
    36    20    19    1
    37    18    19    1
    38   140   142   ar
    39   140   138   ar
    40    19    22    1
    41   142   143   ar
    42    24    26   ar
    43    24    23   ar
    44    22    23    1
    45   137   138    1
    46   102   101    1
    47   138   139   ar
    48   143   141   ar
    49   151   149   ar
    50    26    28   ar
    51    47    46    1
    52    23    25   ar
    53   150   149   ar
    54   139   141   ar
    55    69    67   am
    56    53    52    1
    57   149   148    1
    58    44    46   ar
    59    44    42   ar
    60   101   100    1
    61    54    52    1
    62    46    45   ar
    63    52    49    1
    64    68    67    2
    65    67    66    1
    66   144   145    1
    67    28    27   ar
    68    25    27   ar
    69    42    41   ar
    70   148   145    1
    71   100    99    1
    72    45    43   ar
    73   145   146    1
    74    66    63    1
    75    49    50    1
    76    49    48    1
    77    41    43   ar
    78    41    40    1
    79    99    98    1
    80    51    50    2
    81    36    37    1
    82    77    75    1
    83    37    40    1
    84    37    38    1
    85    93    91    1
    86   146   152   am
    87   146   147    2
    88    63    62    1
    89    63    64    1
    90   152   153    1
    91    91    92    1
    92    91    88    1
    93    98    95    1
    94   159   157    1
    95   157   156    1
    96    60    59    1
    97    86    85    1
    98    62    57   am
    99    85    84    1
   100    75    74    1
   101    75    76    1
   102    38    39    2
   103   124   123   ar
   104   124   122   ar
   105    65    64    2
   106    94    95    1
   107    94    89   am
   108   156   153    1
   109   156   158    1
   110    87    88    1
   111   153   154    1
   112    74    71    1
   113    88    89    1
   114   123   121   ar
   115    95    96    1
   116    84    83    1
   117    57    58    2
   118    57    56    1
   119   122   120   ar
   120    89    90    2
   121    59    56    1
   122    59    61    1
   123    83    82    1
   124   154   155    2
   125    56    55    1
   126   112   113   ar
   127   112   110   ar
   128   113   111   ar
   129   121   119   ar
   130    71    72    1
   131    71    70    1
   132   110   108   ar
   133    96    97    2
   134    82    79    1
   135    72    73    2
   136   111   109   ar
   137   108   109   ar
   138   108   107    1
   139   120   119   ar
   140   107   104    1
   141   119   118    1
   142    79    78    1
   143    79    80    1
   144   104   103    1
   145   104   105    1
   146   118   115    1
   147    80    81    2
   148   114   105   am
   149   114   115    1
   150   105   106    2
   151   115   116    1
   152   116   117    2
