@<TRIPOS>MOLECULE
tmp/3q4aA00.pdb
 151 144 0 0 0
SMALL
GASTEIGER

@<TRIPOS>ATOM
      1  N         25.7070   20.3900    5.0850 N.3     8  LYS8       -0.1245
      2  CA        24.8060   19.2690    5.2790 C.3     8  LYS8        0.1561
      3  C         25.0810   18.1750    4.2420 C.2     8  LYS8        0.2260
      4  O         25.1100   17.0010    4.5640 O.2     8  LYS8       -0.2867
      5  CB        23.3360   19.7170    5.2010 C.3     8  LYS8        0.0271
      6  CG        22.3630   18.6080    5.6030 C.3     8  LYS8        0.0035
      7  CD        20.9550   18.8670    5.1260 C.3     8  LYS8        0.0206
      8  CE        20.7980   18.5970    3.6610 C.3     8  LYS8        0.1093
      9  NZ        19.3300   18.5880    3.3130 N.3     8  LYS8       -0.1314
     10  N         26.2600   14.3860    4.8770 N.3    12  ASN12      -0.1240
     11  CA        25.5590   13.2410    4.3010 C.3    12  ASN12       0.1653
     12  C         26.5060   12.2890    3.5630 C.2    12  ASN12       0.2266
     13  O         26.3770   11.0700    3.6720 O.2    12  ASN12      -0.2867
     14  CB        24.4360   13.7090    3.3780 C.3    12  ASN12       0.1155
     15  CG        23.2670   14.3340    4.1360 C.2    12  ASN12       0.2627
     16  OD1       23.2520   14.3910    5.3690 O.2    12  ASN12      -0.2716
     17  ND2       22.2850   14.8080    3.3940 N.am   12  ASN12      -0.0877
     18  N         28.4300   10.4150    6.0890 N.3    15  PHE15      -0.1227
     19  CA        27.5510    9.4120    6.6720 C.3    15  PHE15       0.1736
     20  C         27.4790    8.1630    5.7900 C.2    15  PHE15       0.2595
     21  O         27.5500    7.0370    6.2930 O.2    15  PHE15      -0.2718
     22  CB        26.1520    9.9930    6.8970 C.3    15  PHE15       0.0547
     23  CG        25.2270    9.0670    7.6380 C.ar   15  PHE15      -0.0202
     24  CD1       24.4180    8.1750    6.9470 C.ar   15  PHE15      -0.0042
     25  CD2       25.1720    9.0830    9.0260 C.ar   15  PHE15      -0.0042
     26  CE1       23.5650    7.3070    7.6290 C.ar   15  PHE15      -0.0003
     27  CE2       24.3240    8.2240    9.7170 C.ar   15  PHE15      -0.0003
     28  CZ        23.5240    7.3290    9.0160 C.ar   15  PHE15      -0.0000
     29  N         27.3300    8.3680    4.4820 N.am   16  VAL16      -0.1980
     30  CA        27.3660    7.2700    3.5150 C.3    16  VAL16       0.1595
     31  C         28.6900    6.5140    3.6310 C.2    16  VAL16       0.2287
     32  O         28.7230    5.2810    3.5610 O.2    16  VAL16      -0.2864
     33  CB        27.1570    7.7870    2.0690 C.3    16  VAL16       0.0276
     34  CG1       27.5090    6.7200    1.0340 C.3    16  VAL16       0.0022
     35  CG2       25.7230    8.2700    1.8810 C.3    16  VAL16       0.0022
     36  N         27.6050   18.4100   10.4280 N.3    27  TYR27      -0.1241
     37  CA        26.2760   18.8960   10.7940 C.3    27  TYR27       0.1605
     38  C         26.3770   20.0130   11.8320 C.2    27  TYR27       0.2264
     39  O         25.6000   20.9630   11.8020 O.2    27  TYR27      -0.2867
     40  CB        25.3850   17.7580   11.2850 C.3    27  TYR27       0.0534
     41  CG        25.1490   16.6820   10.2500 C.ar   27  TYR27      -0.0201
     42  CD1       24.7500   17.0050    8.9480 C.ar   27  TYR27      -0.0009
     43  CD2       25.3300   15.3400   10.5690 C.ar   27  TYR27      -0.0009
     44  CE1       24.5370   16.0070    7.9920 C.ar   27  TYR27       0.0417
     45  CE2       25.1210   14.3400    9.6250 C.ar   27  TYR27       0.0417
     46  CZ        24.7300   14.6760    8.3440 C.ar   27  TYR27       0.1957
     47  OH        24.5250   13.6670    7.4260 O.3    27  TYR27      -0.2866
     48  N         16.4530   19.3790   10.4070 N.3    39  VAL39      -0.1245
     49  CA        17.1330   18.2360    9.7850 C.3    39  VAL39       0.1561
     50  C         18.6040   18.1350   10.1840 C.2    39  VAL39       0.2260
     51  O         19.1500   17.0320   10.2690 O.2    39  VAL39      -0.2867
     52  CB        17.0190   18.2300    8.2390 C.3    39  VAL39       0.0252
     53  CG1       17.6810   16.9950    7.6680 C.3    39  VAL39       0.0019
     54  CG2       15.5750   18.2310    7.8100 C.3    39  VAL39       0.0019
     55  N         18.4120   16.2210   13.4750 N.3    42  THR42      -0.1203
     56  CA        18.0230   14.8140   13.3540 C.3    42  THR42       0.1994
     57  C         19.1120   13.9990   12.6430 C.2    42  THR42       0.2617
     58  O         19.3860   12.8520   13.0210 O.2    42  THR42      -0.2717
     59  CB        16.6380   14.6340   12.7000 C.3    42  THR42       0.1784
     60  OG1       16.6260   15.2400   11.4040 O.3    42  THR42      -0.2211
     61  CG2       15.5730   15.2820   13.5650 C.3    42  THR42       0.0376
     62  N         19.7550   14.5850   11.6490 N.am   43  ASN43      -0.1974
     63  CA        20.8930   13.9210   11.0260 C.3    43  ASN43       0.1688
     64  C         22.0090   13.6810   12.0410 C.2    43  ASN43       0.2292
     65  O         22.5780   12.6250   12.0960 O.2    43  ASN43      -0.2864
     66  CB        21.4920   14.7400    9.8720 C.3    43  ASN43       0.1181
     67  CG        20.6580   14.7070    8.6030 C.2    43  ASN43       0.2629
     68  OD1       19.6680   14.0470    8.5430 O.2    43  ASN43      -0.2716
     69  ND2       21.1080   15.4210    7.5900 N.am   43  ASN43      -0.0877
     70  N         21.2760   10.8710   14.4880 N.3    46  LEU46      -0.1245
     71  CA        21.5190    9.5480   13.9170 C.3    46  LEU46       0.1561
     72  C         23.0110    9.1900   13.9860 C.2    46  LEU46       0.2260
     73  O         23.3630    8.0620   14.3190 O.2    46  LEU46      -0.2867
     74  CB        20.9840    9.4540   12.4860 C.3    46  LEU46       0.0270
     75  CG        21.1790    8.1070   11.7810 C.3    46  LEU46       0.0019
     76  CD1       20.6270    6.9420   12.6140 C.3    46  LEU46       0.0001
     77  CD2       20.5600    8.1430   10.3950 C.3    46  LEU46       0.0001
     78  N         24.8560    6.0220   15.9980 N.3    50  LYS50      -0.1245
     79  CA        25.8550    5.1240   15.4140 C.3    50  LYS50       0.1561
     80  C         27.1460    5.1200   16.2380 C.2    50  LYS50       0.2260
     81  O         27.8670    4.1130   16.2790 O.2    50  LYS50      -0.2867
     82  CB        26.1660    5.5170   13.9640 C.3    50  LYS50       0.0271
     83  CG        24.9800    5.4420   12.9990 C.3    50  LYS50       0.0035
     84  CD        24.6220    4.0110   12.6340 C.3    50  LYS50       0.0206
     85  CE        23.4080    3.9680   11.7160 C.3    50  LYS50       0.1093
     86  NZ        23.0670    2.5820   11.2980 N.3    50  LYS50      -0.1314
     87  N          8.6550   13.3450   12.4400 N.3    72  VAL72      -0.1231
     88  CA         8.6140   11.8920   12.5920 C.3    72  VAL72       0.1692
     89  C          9.9850   11.3780   13.0120 C.2    72  VAL72       0.2591
     90  O         10.1060   10.6150   13.9750 O.2    72  VAL72      -0.2718
     91  CB         8.1730   11.1880   11.2870 C.3    72  VAL72       0.0266
     92  CG1        8.3530    9.6780   11.3980 C.3    72  VAL72       0.0020
     93  CG2        6.7280   11.5390   10.9460 C.3    72  VAL72       0.0020
     94  N         11.0240   11.8100   12.3000 N.am   73  LYS73      -0.1980
     95  CA        12.3690   11.3060   12.5820 C.3    73  LYS73       0.1596
     96  C         12.8850   11.6970   13.9740 C.2    73  LYS73       0.2287
     97  O         13.5630   10.9020   14.6240 O.2    73  LYS73      -0.2864
     98  CB        13.3650   11.6930   11.4780 C.3    73  LYS73       0.0298
     99  CG        13.3220   10.7440   10.2800 C.3    73  LYS73       0.0038
    100  CD        14.3440   11.1250    9.2190 C.3    73  LYS73       0.0206
    101  CE        14.3210   10.1260    8.0740 C.3    73  LYS73       0.1093
    102  NZ        15.2930   10.4910    7.0110 N.3    73  LYS73      -0.1314
    103  N         11.2150    9.3230   16.3300 N.3    76  PHE76      -0.1227
    104  CA        11.7520    7.9810   16.1340 C.3    76  PHE76       0.1736
    105  C         13.1400    7.8390   16.7600 C.2    76  PHE76       0.2595
    106  O         13.3970    6.9090   17.5310 O.2    76  PHE76      -0.2718
    107  CB        11.7960    7.6280   14.6450 C.3    76  PHE76       0.0547
    108  CG        12.2920    6.2390   14.3690 C.ar   76  PHE76      -0.0202
    109  CD1       11.4150    5.1610   14.3890 C.ar   76  PHE76      -0.0042
    110  CD2       13.6370    6.0080   14.0990 C.ar   76  PHE76      -0.0042
    111  CE1       11.8680    3.8800   14.1360 C.ar   76  PHE76      -0.0003
    112  CE2       14.0950    4.7250   13.8500 C.ar   76  PHE76      -0.0003
    113  CZ        13.2060    3.6640   13.8690 C.ar   76  PHE76      -0.0000
    114  N         14.0300    8.7700   16.4360 N.am   77  PHE77      -0.1976
    115  CA        15.3750    8.7190   16.9930 C.3    77  PHE77       0.1639
    116  C         15.3430    8.9370   18.5050 C.2    77  PHE77       0.2290
    117  O         16.1450    8.3650   19.2300 O.2    77  PHE77      -0.2864
    118  CB        16.3200    9.7150   16.3070 C.3    77  PHE77       0.0560
    119  CG        16.5510    9.4350   14.8410 C.ar   77  PHE77      -0.0200
    120  CD1       16.6030    8.1290   14.3540 C.ar   77  PHE77      -0.0042
    121  CD2       16.7410   10.4870   13.9500 C.ar   77  PHE77      -0.0042
    122  CE1       16.8100    7.8860   12.9980 C.ar   77  PHE77      -0.0003
    123  CE2       16.9590   10.2520   12.5990 C.ar   77  PHE77      -0.0003
    124  CZ        16.9850    8.9500   12.1220 C.ar   77  PHE77      -0.0000
    125  N          7.4250    4.6440    5.4970 N.3   109  PHE109     -0.1241
    126  CA         8.7370    4.1280    5.8880 C.3   109  PHE109      0.1605
    127  C          8.7480    2.6020    5.9270 C.2   109  PHE109      0.2264
    128  O          9.5510    1.9960    6.6430 O.2   109  PHE109     -0.2867
    129  CB         9.1590    4.6870    7.2540 C.3   109  PHE109      0.0534
    130  CG         9.4050    6.1690    7.2550 C.ar  109  PHE109     -0.0203
    131  CD1        8.4900    7.0350    7.8430 C.ar  109  PHE109     -0.0042
    132  CD2       10.5480    6.7000    6.6650 C.ar  109  PHE109     -0.0042
    133  CE1        8.7110    8.4110    7.8450 C.ar  109  PHE109     -0.0003
    134  CE2       10.7780    8.0730    6.6650 C.ar  109  PHE109     -0.0003
    135  CZ         9.8590    8.9280    7.2570 C.ar  109  PHE109     -0.0000
    136  N          9.6290   -0.1310    9.0240 N.3   112  ASP112     -0.1225
    137  CA        10.6720    0.3330    9.9290 C.3   112  ASP112      0.1805
    138  C         10.1560    0.6980   11.3160 C.2   112  ASP112      0.2597
    139  O         10.7480    0.3150   12.3260 O.2   112  ASP112     -0.2718
    140  CB        11.4130    1.5260    9.3260 C.3   112  ASP112      0.1424
    141  CG        12.3940    1.1220    8.2430 C.2   112  ASP112      0.3668
    142  OD1       12.5460   -0.0900    7.9760 O.co2 112  ASP112     -0.2456
    143  OD2       13.0230    2.0300    7.6610 O.co2 112  ASP112     -0.2456
    144  N          9.0610    1.4470   11.3700 N.am  113  ILE113     -0.1980
    145  CA         8.5510    1.8900   12.6640 C.3   113  ILE113      0.1595
    146  C          7.9280    0.7410   13.4680 C.2   113  ILE113      0.2287
    147  O          8.2780    0.5540   14.6360 O.2   113  ILE113     -0.2864
    148  CB         7.6400    3.1420   12.5640 C.3   113  ILE113      0.0276
    149  CG1        8.3740    4.2670   11.8160 C.3   113  ILE113      0.0022
    150  CG2        7.2570    3.6180   13.9520 C.3   113  ILE113      0.0022
    151  CD1        7.5830    5.5640   11.6750 C.3   113  ILE113      0.0001
@<TRIPOS>BOND
     1    34    33    1
     2    35    33    1
     3    33    30    1
     4     9     8    1
     5    14    15    1
     6    14    11    1
     7    17    15   am
     8    30    31    1
     9    30    29    1
    10    32    31    2
    11    12    13    2
    12    12    11    1
    13     8     7    1
    14    15    16    2
    15     3     4    2
    16     3     2    1
    17    11    10    1
    18    29    20   am
    19     1     2    1
    20     7     6    1
    21     5     2    1
    22     5     6    1
    23   125   126    1
    24    20    21    2
    25    20    19    1
    26   126   127    1
    27   126   129    1
    28   127   128    2
    29    18    19    1
    30   134   132   ar
    31   134   135   ar
    32   132   130   ar
    33    19    22    1
    34    22    23    1
    35    24    26   ar
    36    24    23   ar
    37   102   101    1
    38   129   130    1
    39   130   131   ar
    40   135   133   ar
    41    47    46    1
    42    69    67   am
    43    26    28   ar
    44    23    25   ar
    45   143   141   ar
    46    53    52    1
    47    54    52    1
    48   131   133   ar
    49   142   141   ar
    50    44    46   ar
    51    44    42   ar
    52   101   100    1
    53    52    49    1
    54   141   140    1
    55    46    45   ar
    56    68    67    2
    57    67    66    1
    58    42    41   ar
    59    28    27   ar
    60   136   137    1
    61    25    27   ar
    62   100    99    1
    63   140   137    1
    64    45    43   ar
    65    49    50    1
    66    49    48    1
    67    66    63    1
    68   137   138    1
    69    50    51    2
    70    41    43   ar
    71    41    40    1
    72    99    98    1
    73    77    75    1
    74    36    37    1
    75    37    40    1
    76    37    38    1
    77    93    91    1
    78    63    62    1
    79    63    64    1
    80    91    92    1
    81    91    88    1
    82    86    85    1
    83   138   144   am
    84   138   139    2
    85   144   145    1
    86    60    59    1
    87    98    95    1
    88    62    57   am
    89   151   149    1
    90    85    84    1
    91    75    74    1
    92    75    76    1
    93    39    38    2
    94   149   148    1
    95    64    65    2
    96   124   123   ar
    97   124   122   ar
    98    94    95    1
    99    94    89   am
   100    87    88    1
   101    74    71    1
   102   148   145    1
   103   148   150    1
   104    95    96    1
   105    88    89    1
   106   123   121   ar
   107    84    83    1
   108    57    58    2
   109    57    56    1
   110   145   146    1
   111    59    56    1
   112    59    61    1
   113   122   120   ar
   114    83    82    1
   115    89    90    2
   116    56    55    1
   117   146   147    2
   118   112   113   ar
   119   112   110   ar
   120   113   111   ar
   121    71    72    1
   122    71    70    1
   123   121   119   ar
   124    82    79    1
   125    96    97    2
   126    72    73    2
   127   110   108   ar
   128   111   109   ar
   129   120   119   ar
   130   108   109   ar
   131   108   107    1
   132   107   104    1
   133   119   118    1
   134    79    78    1
   135    79    80    1
   136   104   103    1
   137   104   105    1
   138    80    81    2
   139   118   115    1
   140   114   105   am
   141   114   115    1
   142   105   106    2
   143   115   116    1
   144   116   117    2
