@<TRIPOS>MOLECULE
tmp/3q4bA00.pdb
 200 192 0 0 0
SMALL
GASTEIGER

@<TRIPOS>ATOM
      1  N         26.8530   -2.3240  -19.6480 N.3    15  THR15      -0.1203
      2  CA        27.0180   -3.5220  -18.8250 C.3    15  THR15       0.1994
      3  C         27.8950   -3.3330  -17.6080 C.2    15  THR15       0.2618
      4  O         27.8170   -4.1180  -16.6690 O.2    15  THR15      -0.2717
      5  CB        27.6490   -4.6460  -19.6170 C.3    15  THR15       0.1784
      6  OG1       28.8670   -4.1560  -20.1910 O.3    15  THR15      -0.2211
      7  CG2       26.6460   -5.1280  -20.7130 C.3    15  THR15       0.0376
      8  N         28.7580   -2.3230  -17.6110 N.am   16  GLN16      -0.1965
      9  CA        29.5380   -2.0530  -16.4100 C.3    16  GLN16       0.1733
     10  C         29.4950   -0.5870  -16.0750 C.2    16  GLN16       0.2616
     11  O         29.8770    0.2270  -16.9200 O.2    16  GLN16      -0.2715
     12  CB        31.0260   -2.5200  -16.5580 C.3    16  GLN16       0.0408
     13  CG        31.1610   -4.0270  -16.8610 C.3    16  GLN16       0.0908
     14  CD        32.6050   -4.4360  -17.0470 C.2    16  GLN16       0.2608
     15  OE1       33.4900   -3.8750  -16.4310 O.2    16  GLN16      -0.2717
     16  NE2       32.8420   -5.4230  -17.9120 N.am   16  GLN16      -0.0878
     17  N         29.0580   -0.2640  -14.8600 N.am   17  TYR17      -0.1974
     18  CA        29.0150    1.1140  -14.3680 C.3    17  TYR17       0.1639
     19  C         29.8180    1.1650  -13.0820 C.2    17  TYR17       0.2290
     20  O         29.6660    0.3080  -12.1870 O.2    17  TYR17      -0.2864
     21  CB        27.5690    1.5850  -14.0350 C.3    17  TYR17       0.0560
     22  CG        26.5710    1.6550  -15.2040 C.ar   17  TYR17      -0.0198
     23  CD1       25.9520    0.5040  -15.6640 C.ar   17  TYR17      -0.0009
     24  CD2       26.2260    2.8620  -15.7900 C.ar   17  TYR17      -0.0009
     25  CE1       25.0420    0.5470  -16.7160 C.ar   17  TYR17       0.0417
     26  CE2       25.3130    2.9550  -16.8440 C.ar   17  TYR17       0.0417
     27  CZ        24.7120    1.7840  -17.3270 C.ar   17  TYR17       0.1957
     28  OH        23.7470    1.7880  -18.3510 O.3    17  TYR17      -0.2866
     29  N         32.5970   -0.8350   -8.5770 N.3    33  VAL33      -0.1245
     30  CA        31.1640   -0.9610   -8.7930 C.3    33  VAL33       0.1561
     31  C         30.4500   -0.8090   -7.4630 C.2    33  VAL33       0.2260
     32  O         30.7880   -1.4840   -6.5260 O.2    33  VAL33      -0.2867
     33  CB        30.8070   -2.3050   -9.4860 C.3    33  VAL33       0.0252
     34  CG1       29.2830   -2.5110   -9.5540 C.3    33  VAL33       0.0019
     35  CG2       31.4040   -2.3270  -10.8780 C.3    33  VAL33       0.0019
     36  N         27.4220   -1.7940   -5.5090 N.3    35  ASP35      -0.1239
     37  CA        26.6270   -3.0020   -5.6840 C.3    35  ASP35       0.1674
     38  C         25.6050   -3.1310   -4.5680 C.2    35  ASP35       0.2266
     39  O         25.9720   -3.4530   -3.4170 O.2    35  ASP35      -0.2867
     40  CB        27.5390   -4.2550   -5.7020 C.3    35  ASP35       0.1410
     41  CG        26.7770   -5.5490   -5.9980 C.2    35  ASP35       0.3668
     42  OD1       25.6200   -5.5030   -6.4740 O.co2  35  ASP35      -0.2456
     43  OD2       27.3090   -6.6390   -5.7340 O.co2  35  ASP35      -0.2456
     44  N         23.5380   -5.5230   -4.3190 N.3    37  GLY37      -0.1210
     45  CA        23.3350   -6.9560   -4.0620 C.3    37  GLY37       0.1956
     46  C         24.4610   -7.5360   -3.2610 C.2    37  GLY37       0.2612
     47  O         24.5280   -8.7530   -3.0820 O.2    37  GLY37      -0.2717
     48  N         25.3580   -6.7020   -2.7520 N.am   38  SER38      -0.1952
     49  CA        26.3910   -7.2170   -1.8620 C.3    38  SER38       0.1924
     50  C         26.7570   -6.1630   -0.8340 C.2    38  SER38       0.2314
     51  O         26.2320   -5.0290   -0.9010 O.2    38  SER38      -0.2863
     52  CB        27.6240   -7.7710   -2.6240 C.3    38  SER38       0.2116
     53  OG        28.3610   -6.7420   -3.2690 O.3    38  SER38      -0.2180
     54  N         30.7110  -14.5770   -5.4520 N.3    80  TYR80      -0.1227
     55  CA        29.6190  -14.0240   -6.1850 C.3    80  TYR80       0.1736
     56  C         29.1540  -15.0300   -7.2320 C.2    80  TYR80       0.2596
     57  O         29.7230  -16.1130   -7.3550 O.2    80  TYR80      -0.2718
     58  CB        30.0630  -12.7330   -6.8480 C.3    80  TYR80       0.0548
     59  CG        30.5630  -11.6540   -5.9040 C.ar   80  TYR80      -0.0200
     60  CD1       29.6780  -10.8360   -5.2370 C.ar   80  TYR80      -0.0009
     61  CD2       31.9320  -11.4490   -5.7240 C.ar   80  TYR80      -0.0009
     62  CE1       30.1380   -9.8100   -4.4060 C.ar   80  TYR80       0.0417
     63  CE2       32.4110  -10.4590   -4.8750 C.ar   80  TYR80       0.0417
     64  CZ        31.5180   -9.6330   -4.2400 C.ar   80  TYR80       0.1957
     65  OH        32.0120   -8.6560   -3.4000 O.3    80  TYR80      -0.2866
     66  N         28.1400  -14.6360   -8.0000 N.am   81  SER81      -0.1938
     67  CA        27.7190  -15.3340   -9.1980 C.3    81  SER81       0.2055
     68  C         28.9040  -15.4700  -10.1620 C.2    81  SER81       0.2643
     69  O         29.0750  -16.5020  -10.7950 O.2    81  SER81      -0.2714
     70  CB        26.6310  -14.5030   -9.8580 C.3    81  SER81       0.2130
     71  OG        27.1550  -13.2180  -10.2150 O.3    81  SER81      -0.2179
     72  N         29.7340  -14.4340  -10.2580 N.am   82  THR82      -0.1950
     73  CA        30.8950  -14.4150  -11.1880 C.3    82  THR82       0.1897
     74  C         32.1070  -15.2530  -10.7730 C.2    82  THR82       0.2313
     75  O         32.9390  -15.5820  -11.5940 O.2    82  THR82      -0.2863
     76  CB        31.4850  -12.9730  -11.3670 C.3    82  THR82       0.1794
     77  OG1       31.7950  -12.4030  -10.0850 O.3    82  THR82      -0.2208
     78  CG2       30.5730  -12.0690  -12.1120 C.3    82  THR82       0.0378
     79  N         35.8330  -14.1390  -14.0410 N.3   115  PRO115     -0.2102
     80  CA        35.7110  -13.2920  -15.1710 C.3   115  PRO115      0.1504
     81  C         36.4240  -11.9360  -14.9860 C.2   115  PRO115      0.2575
     82  O         36.1820  -11.0230  -15.7730 O.2   115  PRO115     -0.2718
     83  CB        34.2130  -13.0660  -15.1800 C.3   115  PRO115      0.0282
     84  CG        33.9930  -12.7190  -13.6990 C.3   115  PRO115      0.0208
     85  CD        34.9630  -13.6460  -12.9600 C.3   115  PRO115      0.0893
     86  N         37.3050  -11.8090  -13.9920 N.am  116  PHE116     -0.1977
     87  CA        37.9370  -10.4980  -13.7030 C.3   116  PHE116      0.1639
     88  C         38.8280   -9.9600  -14.7800 C.2   116  PHE116      0.2290
     89  O         39.0720   -8.7430  -14.8270 O.2   116  PHE116     -0.2864
     90  CB        38.5940  -10.4410  -12.3230 C.3   116  PHE116      0.0560
     91  CG        37.5800  -10.5000  -11.2170 C.ar  116  PHE116     -0.0200
     92  CD1       36.8440   -9.3660  -10.8680 C.ar  116  PHE116     -0.0042
     93  CD2       37.2580  -11.7230  -10.6100 C.ar  116  PHE116     -0.0042
     94  CE1       35.8000   -9.4310   -9.8950 C.ar  116  PHE116     -0.0003
     95  CE2       36.2210  -11.8030   -9.6320 C.ar  116  PHE116     -0.0003
     96  CZ        35.5110  -10.6670   -9.2700 C.ar  116  PHE116     -0.0000
     97  N         37.7950   -9.4730  -17.5130 N.3   118  LEU118     -0.1231
     98  CA        36.8340   -8.7180  -18.3280 C.3   118  LEU118      0.1693
     99  C         36.2730   -7.5630  -17.5380 C.2   118  LEU118      0.2591
    100  O         35.4360   -6.8350  -18.0810 O.2   118  LEU118     -0.2718
    101  CB        35.6480   -9.5850  -18.7950 C.3   118  LEU118      0.0284
    102  CG        35.9120  -10.8990  -19.5770 C.3   118  LEU118      0.0019
    103  CD1       34.7140  -11.8020  -19.5830 C.3   118  LEU118      0.0001
    104  CD2       36.4110  -10.6420  -21.0250 C.3   118  LEU118      0.0001
    105  N         36.6380   -7.4360  -16.2500 N.am  119  ALA119     -0.1980
    106  CA        36.1450   -6.2890  -15.4910 C.3   119  ALA119      0.1597
    107  C         36.9280   -5.0770  -15.9050 C.2   119  ALA119      0.2287
    108  O         38.1880   -5.0720  -15.8350 O.2   119  ALA119     -0.2864
    109  CB        36.3090   -6.4930  -13.9660 C.3   119  ALA119      0.0319
    110  N         36.5010   -2.4800  -14.0340 N.3   121  PHE121     -0.1241
    111  CA        36.6520   -1.9210  -12.6990 C.3   121  PHE121      0.1605
    112  C         37.7300   -2.6750  -11.8860 C.2   121  PHE121      0.2264
    113  O         38.1080   -3.8180  -12.2140 O.2   121  PHE121     -0.2867
    114  CB        35.2710   -1.9830  -11.9950 C.3   121  PHE121      0.0534
    115  CG        34.6240   -3.3610  -12.0260 C.ar  121  PHE121     -0.0203
    116  CD1       33.8960   -3.7760  -13.1340 C.ar  121  PHE121     -0.0042
    117  CD2       34.7440   -4.2060  -10.9440 C.ar  121  PHE121     -0.0042
    118  CE1       33.3000   -5.0640  -13.1430 C.ar  121  PHE121     -0.0003
    119  CE2       34.1890   -5.4490  -10.9330 C.ar  121  PHE121     -0.0003
    120  CZ        33.4520   -5.9080  -12.0300 C.ar  121  PHE121     -0.0000
    121  N         34.7670   -3.6180   -5.6880 N.3   124  VAL124     -0.1245
    122  CA        33.3350   -3.5180   -5.4220 C.3   124  VAL124      0.1561
    123  C         33.1390   -2.8120   -4.1150 C.2   124  VAL124      0.2260
    124  O         33.9040   -3.0070   -3.1740 O.2   124  VAL124     -0.2867
    125  CB        32.7170   -4.9060   -5.3260 C.3   124  VAL124      0.0252
    126  CG1       31.2280   -4.8320   -4.9530 C.3   124  VAL124      0.0019
    127  CG2       32.9130   -5.6110   -6.6640 C.3   124  VAL124      0.0019
    128  N         21.4480    5.5520  -13.9640 N.3   159  TYR159     -0.1241
    129  CA        22.3020    4.8570  -14.9160 C.3   159  TYR159      0.1605
    130  C         21.8930    5.2890  -16.3290 C.2   159  TYR159      0.2264
    131  O         20.7540    5.0410  -16.7310 O.2   159  TYR159     -0.2867
    132  CB        22.1190    3.3370  -14.8360 C.3   159  TYR159      0.0534
    133  CG        22.9070    2.5510  -13.7630 C.ar  159  TYR159     -0.0201
    134  CD1       23.8850    3.1580  -12.9870 C.ar  159  TYR159     -0.0009
    135  CD2       22.6900    1.1590  -13.5970 C.ar  159  TYR159     -0.0009
    136  CE1       24.6020    2.4460  -12.0550 C.ar  159  TYR159      0.0417
    137  CE2       23.4110    0.4200  -12.6310 C.ar  159  TYR159      0.0417
    138  CZ        24.3560    1.0700  -11.8660 C.ar  159  TYR159      0.1957
    139  OH        25.0960    0.3750  -10.9290 O.3   159  TYR159     -0.2866
    140  N         14.9850   -8.5680   -6.4130 N.3   221  LEU221     -0.1245
    141  CA        16.1020   -7.9730   -5.7420 C.3   221  LEU221      0.1561
    142  C         16.4310   -6.7890   -6.6360 C.2   221  LEU221      0.2260
    143  O         16.4930   -6.9630   -7.8390 O.2   221  LEU221     -0.2867
    144  CB        17.2610   -8.9770   -5.7660 C.3   221  LEU221      0.0270
    145  CG        18.6590   -8.4880   -5.4120 C.3   221  LEU221      0.0019
    146  CD1       18.6330   -8.1390   -3.9500 C.3   221  LEU221      0.0001
    147  CD2       19.7640   -9.5820   -5.6630 C.3   221  LEU221      0.0001
    148  N         19.2040   -4.8000   -7.9160 N.3   223  ASP223     -0.1225
    149  CA        20.6370   -5.0910   -7.8820 C.3   223  ASP223      0.1805
    150  C         21.4570   -4.1700   -8.7910 C.2   223  ASP223      0.2598
    151  O         21.5600   -4.4370   -9.9810 O.2   223  ASP223     -0.2718
    152  CB        20.9310   -6.5540   -8.3060 C.3   223  ASP223      0.1424
    153  CG        22.3580   -6.9490   -7.9630 C.2   223  ASP223      0.3668
    154  OD1       23.1620   -6.0420   -7.6160 O.co2 223  ASP223     -0.2456
    155  OD2       22.6640   -8.1290   -8.0000 O.co2 223  ASP223     -0.2456
    156  N         22.0720   -3.1600   -8.2210 N.am  224  THR224     -0.1939
    157  CA        22.8210   -2.2110   -9.0010 C.3   224  THR224      0.2028
    158  C         24.1410   -2.8310   -9.5360 C.2   224  THR224      0.2643
    159  O         24.7590   -2.2440  -10.4370 O.2   224  THR224     -0.2714
    160  CB        23.1010   -0.9060   -8.2080 C.3   224  THR224      0.1808
    161  OG1       23.8710   -1.2060   -7.0390 O.3   224  THR224     -0.2208
    162  CG2       21.8000   -0.1860   -7.8200 C.3   224  THR224      0.0379
    163  N         24.5420   -4.0130   -9.0230 N.am  225  GLY225     -0.1939
    164  CA        25.7040   -4.6880   -9.5620 C.3   225  GLY225      0.2014
    165  C         25.3640   -5.6590  -10.7120 C.2   225  GLY225      0.2639
    166  O         26.2830   -6.2990  -11.2990 O.2   225  GLY225     -0.2714
    167  N         24.0710   -5.7940  -11.0180 N.am  226  ALA226     -0.1963
    168  CA        23.6180   -6.6740  -12.1050 C.3   226  ALA226      0.1728
    169  C         23.4960   -5.9090  -13.4320 C.2   226  ALA226      0.2616
    170  O         22.8190   -4.8290  -13.4930 O.2   226  ALA226     -0.2715
    171  CB        22.2470   -7.3720  -11.7850 C.3   226  ALA226      0.0334
    172  N         24.1030   -6.4510  -14.4940 N.am  227  SER227     -0.1950
    173  CA        24.0180   -5.7480  -15.7750 C.3   227  SER227      0.1924
    174  C         22.6080   -5.8500  -16.3490 C.2   227  SER227      0.2314
    175  O         22.0780   -4.8760  -16.8950 O.2   227  SER227     -0.2863
    176  CB        25.0280   -6.3050  -16.8060 C.3   227  SER227      0.2116
    177  OG        26.3220   -6.3630  -16.2170 O.3   227  SER227     -0.2180
    178  N         18.7780  -12.3760  -18.7760 N.3   298  HIS298     -0.1241
    179  CA        19.3250  -13.7430  -18.7530 C.3   298  HIS298      0.1621
    180  C         18.7850  -14.4730  -17.5160 C.2   298  HIS298      0.2264
    181  O         18.1170  -13.8590  -16.6630 O.2   298  HIS298     -0.2867
    182  CB        20.8690  -13.7580  -18.7530 C.3   298  HIS298      0.0745
    183  CG        21.5060  -13.1430  -17.5310 C.ar  298  HIS298      0.0817
    184  ND1       22.7050  -13.5970  -17.0100 N.ar  298  HIS298     -0.2268
    185  CD2       21.1280  -12.1050  -16.7380 C.ar  298  HIS298      0.1154
    186  CE1       23.0270  -12.8810  -15.9460 C.ar  298  HIS298      0.1986
    187  NE2       22.0930  -11.9670  -15.7580 N.ar  298  HIS298     -0.2212
    188  N         19.3750  -16.5310  -13.9950 N.3   300  MET300     -0.1245
    189  CA        20.2840  -16.6540  -12.8590 C.3   300  MET300      0.1570
    190  C         19.5420  -17.3350  -11.7140 C.2   300  MET300      0.2261
    191  O         18.5880  -16.7770  -11.1800 O.2   300  MET300     -0.2867
    192  CB        20.7360  -15.2860  -12.3830 C.3   300  MET300      0.0387
    193  CG        21.9140  -14.7230  -13.1190 C.3   300  MET300      0.0595
    194  SD        23.4280  -14.8380  -12.1350 S.3   300  MET300     -0.1393
    195  CE        22.7370  -14.6270  -10.5060 C.3   300  MET300      0.0692
    196  N         20.7850   -3.1940  -14.3520 N.3   314  ALA314     -0.1245
    197  CA        20.9050   -1.9150  -15.0970 C.3   314  ALA314      0.1562
    198  C         19.8770   -1.7690  -16.2460 C.2   314  ALA314      0.2260
    199  O         19.4400   -0.6740  -16.5090 O.2   314  ALA314     -0.2867
    200  CB        22.3050   -1.7090  -15.6210 C.3   314  ALA314      0.0290
@<TRIPOS>BOND
     1   104   102    1
     2     7     5    1
     3     6     5    1
     4     1     2    1
     5     5     2    1
     6   103   102    1
     7   102   101    1
     8     2     3    1
     9   101    98    1
    10   178   179    1
    11   182   179    1
    12   182   183    1
    13   179   180    1
    14    28    27    1
    15    98    99    1
    16    98    97    1
    17   100    99    2
    18    16    14   am
    19     8     3   am
    20     8     9    1
    21     3     4    2
    22    99   105   am
    23   183   184   ar
    24   183   185   ar
    25   180   181    2
    26    27    26   ar
    27    27    25   ar
    28    14    13    1
    29    14    15    2
    30   184   186   ar
    31    11    10    2
    32   175   174    2
    33    13    12    1
    34    26    24   ar
    35   176   177    1
    36   176   173    1
    37   185   187   ar
    38   131   130    2
    39    25    23   ar
    40    12     9    1
    41   199   198    2
    42     9    10    1
    43   174   173    1
    44   130   129    1
    45   105   106    1
    46   198   197    1
    47    10    17   am
    48   186   187   ar
    49   107   108    2
    50   107   106    1
    51    24    22   ar
    52   173   172    1
    53    82    81    2
    54    23    22   ar
    55   200   197    1
    56   106   109    1
    57    22    21    1
    58    83    80    1
    59    83    84    1
    60    80    81    1
    61    80    79    1
    62   197   196    1
    63    81    86   am
    64   129   132    1
    65   129   128    1
    66    17    18    1
    67   132   133    1
    68    89    88    2
    69    88    87    1
    70   172   169   am
    71    18    21    1
    72    18    19    1
    73    79    85    1
    74   110   111    1
    75   188   189    1
    76    86    87    1
    77   133   135   ar
    78   133   134   ar
    79    87    90    1
    80    84    85    1
    81   135   137   ar
    82   170   169    2
    83   169   168    1
    84   118   116   ar
    85   118   120   ar
    86   116   115   ar
    87   193   192    1
    88   193   194    1
    89    19    20    2
    90   134   136   ar
    91   189   192    1
    92   189   190    1
    93   111   114    1
    94   111   112    1
    95   137   138   ar
    96    90    91    1
    97   113   112    2
    98   194   195    1
    99    78    76    1
   100   168   171    1
   101   168   167    1
   102   136   138   ar
   103   120   119   ar
   104   115   114    1
   105   115   117   ar
   106   138   139    1
   107   190   191    2
   108    75    74    2
   109    76    73    1
   110    76    77    1
   111   166   165    2
   112    91    92   ar
   113    91    93   ar
   114    73    74    1
   115    73    72    1
   116   167   165   am
   117   117   119   ar
   118    35    33    1
   119    92    94   ar
   120    69    68    2
   121   165   164    1
   122    93    95   ar
   123   159   158    2
   124    72    68   am
   125    71    70    1
   126    68    67    1
   127   151   150    2
   128    94    96   ar
   129    70    67    1
   130    95    96   ar
   131   164   163    1
   132    34    33    1
   133   158   163   am
   134   158   157    1
   135    33    30    1
   136    67    66    1
   137   157   156    1
   138   157   160    1
   139    30    29    1
   140    30    31    1
   141   150   156   am
   142   150   149    1
   143   152   153    1
   144   152   149    1
   145   160   162    1
   146   160   161    1
   147   155   153   ar
   148    66    56   am
   149   153   154   ar
   150   148   149    1
   151   143   142    2
   152    31    32    2
   153    57    56    2
   154    56    55    1
   155    58    55    1
   156    58    59    1
   157   127   125    1
   158   142   141    1
   159    42    41   ar
   160   140   141    1
   161    55    54    1
   162    41    43   ar
   163    41    40    1
   164    59    61   ar
   165    59    60   ar
   166   144   141    1
   167   144   145    1
   168    61    63   ar
   169    40    37    1
   170   121   122    1
   171    37    36    1
   172    37    38    1
   173   147   145    1
   174   122   125    1
   175   122   123    1
   176   145   146    1
   177   125   126    1
   178    60    62   ar
   179    63    64   ar
   180    38    39    2
   181    62    64   ar
   182    44    45    1
   183    64    65    1
   184   123   124    2
   185    45    46    1
   186    53    52    1
   187    46    47    2
   188    46    48   am
   189    48    49    1
   190    52    49    1
   191    49    50    1
   192    51    50    2
