@<TRIPOS>MOLECULE
tmp/3q4cA00.pdb
 112 108 0 0 0
SMALL
GASTEIGER

@<TRIPOS>ATOM
      1  N        -16.5550    5.8670   -5.5260 N.3    16  ILE16      -0.1231
      2  CA       -16.1100    6.4380   -4.2670 C.3    16  ILE16       0.1692
      3  C        -15.3620    5.4150   -3.4110 C.2    16  ILE16       0.2593
      4  O        -14.1410    5.4910   -3.2610 O.2    16  ILE16      -0.2718
      5  CB       -17.3100    7.0080   -3.4850 C.3    16  ILE16       0.0266
      6  CG1      -17.9850    8.1010   -4.3170 C.3    16  ILE16       0.0019
      7  CG2      -16.8570    7.5570   -2.1440 C.3    16  ILE16       0.0020
      8  CD1      -17.0390    9.1980   -4.7810 C.3    16  ILE16       0.0001
      9  N        -16.0910    4.4540   -2.8580 N.am   17  GLY17      -0.1942
     10  CA       -15.4590    3.4470   -2.0270 C.3    17  GLY17       0.2014
     11  C        -15.9880    2.0540   -2.2960 C.2    17  GLY17       0.2639
     12  O        -16.3980    1.7470   -3.4160 O.2    17  GLY17      -0.2714
     13  N        -15.9820    1.2110   -1.2680 N.am   18  SER18      -0.1949
     14  CA       -16.4600   -0.1580   -1.3980 C.3    18  SER18       0.1924
     15  C        -16.4580   -0.8770   -0.0550 C.2    18  SER18       0.2314
     16  O        -16.7980   -0.2900    0.9760 O.2    18  SER18      -0.2863
     17  CB       -15.5890   -0.9250   -2.4020 C.3    18  SER18       0.2116
     18  OG       -14.2120   -0.8110   -2.0840 O.3    18  SER18      -0.2180
     19  N        -19.7050    1.8680   -3.4740 N.3    24  VAL24      -0.1245
     20  CA       -20.3820    3.1570   -3.5850 C.3    24  VAL24       0.1561
     21  C        -19.9060    3.9760   -4.7750 C.2    24  VAL24       0.2260
     22  O        -18.7080    4.0890   -5.0240 O.2    24  VAL24      -0.2867
     23  CB       -20.1690    4.0170   -2.3210 C.3    24  VAL24       0.0252
     24  CG1      -21.0540    5.2460   -2.3800 C.3    24  VAL24       0.0019
     25  CG2      -20.4630    3.2070   -1.0760 C.3    24  VAL24       0.0019
     26  N        -25.4500    9.6780   -3.8440 N.3    34  ALA34      -0.1245
     27  CA       -24.4640    8.6330   -3.6360 C.3    34  ALA34       0.1562
     28  C        -25.2440    7.3290   -3.8060 C.2    34  ALA34       0.2260
     29  O        -26.1850    7.0670   -3.0560 O.2    34  ALA34      -0.2867
     30  CB       -23.8740    8.7370   -2.2310 C.3    34  ALA34       0.0290
     31  N        -28.2570   10.5740    7.2950 N.3    67  LEU67      -0.1245
     32  CA       -28.0860   10.7300    5.8590 C.3    67  LEU67       0.1561
     33  C        -29.4210   10.4060    5.2070 C.2    67  LEU67       0.2260
     34  O        -29.9150    9.2860    5.3090 O.2    67  LEU67      -0.2867
     35  CB       -27.0100    9.7780    5.3340 C.3    67  LEU67       0.0270
     36  CG       -26.2380   10.2350    4.0950 C.3    67  LEU67       0.0019
     37  CD1      -25.1960   11.2620    4.5260 C.3    67  LEU67       0.0001
     38  CD2      -25.5720    9.0390    3.4050 C.3    67  LEU67       0.0001
     39  N        -26.1340   13.2240   -1.6210 N.3    84  TRP84      -0.1227
     40  CA       -24.6800   13.2950   -1.7220 C.3    84  TRP84       0.1737
     41  C        -24.0960   14.2290   -0.6870 C.2    84  TRP84       0.2596
     42  O        -24.3580   15.4290   -0.7160 O.2    84  TRP84      -0.2718
     43  CB       -24.2480   13.7750   -3.1010 C.3    84  TRP84       0.0564
     44  CG       -22.7570   13.9570   -3.2200 C.ar   84  TRP84       0.0003
     45  CD1      -22.0820   15.1380   -3.3090 C.ar   84  TRP84       0.0946
     46  CD2      -21.7630   12.9210   -3.2870 C.ar   84  TRP84       0.0152
     47  NE1      -20.7320   14.9060   -3.4360 N.ar   84  TRP84      -0.2442
     48  CE2      -20.5090   13.5540   -3.4260 C.ar   84  TRP84       0.0810
     49  CE3      -21.8110   11.5180   -3.2460 C.ar   84  TRP84       0.0012
     50  CZ2      -19.3100   12.8310   -3.5260 C.ar   84  TRP84       0.0191
     51  CZ3      -20.6210   10.8030   -3.3440 C.ar   84  TRP84       0.0001
     52  CH2      -19.3880   11.4630   -3.4830 C.ar   84  TRP84       0.0015
     53  N        -23.2990   13.6830    0.2250 N.am   85  CYS85      -0.1956
     54  CA       -22.6920   14.5060    1.2510 C.3    85  CYS85       0.1843
     55  C        -21.6750   15.4320    0.6040 C.2    85  CYS85       0.2625
     56  O        -20.7600   14.9810   -0.0860 O.2    85  CYS85      -0.2714
     57  CB       -22.0060   13.6420    2.3010 C.3    85  CYS85       0.0997
     58  SG       -21.1050   14.6150    3.5510 S.3    85  CYS85      -0.0797
     59  N        -21.8490   16.7300    0.8310 N.am   86  GLU86      -0.1963
     60  CA       -20.9580   17.7360    0.2750 C.3    86  GLU86       0.1733
     61  C        -19.9640   18.1780    1.3450 C.2    86  GLU86       0.2617
     62  O        -20.0340   19.2950    1.8590 O.2    86  GLU86      -0.2715
     63  CB       -21.7740   18.9310   -0.2250 C.3    86  GLU86       0.0429
     64  CG       -20.9870   19.9350   -1.0600 C.3    86  GLU86       0.1163
     65  CD       -20.3890   19.3250   -2.3240 C.2    86  GLU86       0.3649
     66  OE1      -19.3950   18.5660   -2.2180 O.co2  86  GLU86      -0.2457
     67  OE2      -20.9200   19.6030   -3.4220 O.co2  86  GLU86      -0.2457
     68  N        -19.0430   17.2780    1.6740 N.am   87  GLY87      -0.1940
     69  CA       -18.0350   17.5540    2.6790 C.3    87  GLY87       0.2014
     70  C        -17.1200   16.3580    2.8780 C.2    87  GLY87       0.2640
     71  O        -16.7090   15.7170    1.9090 O.2    87  GLY87      -0.2714
     72  N        -16.8000   16.0540    4.1320 N.am   88  SER88      -0.1935
     73  CA       -15.9280   14.9270    4.4430 C.3    88  SER88       0.2055
     74  C        -16.2290   14.3050    5.7930 C.2    88  SER88       0.2643
     75  O        -16.8360   14.9330    6.6610 O.2    88  SER88      -0.2714
     76  CB       -14.4640   15.3580    4.4130 C.3    88  SER88       0.2130
     77  OG       -14.0000   15.4470    3.0830 O.3    88  SER88      -0.2179
     78  N        -15.7880   13.0650    5.9590 N.am   89  SER89      -0.1949
     79  CA       -15.9950   12.3270    7.1950 C.3    89  SER89       0.1924
     80  C        -15.2750   12.9740    8.3750 C.2    89  SER89       0.2314
     81  O        -14.1770   13.5080    8.2250 O.2    89  SER89      -0.2863
     82  CB       -15.4960   10.8980    7.0220 C.3    89  SER89       0.2116
     83  OG       -14.1420   10.8910    6.6050 O.3    89  SER89      -0.2180
     84  N        -11.8290   11.8440    8.2700 N.3    92  HIS92      -0.1241
     85  CA       -10.9640   12.5570    7.3510 C.3    92  HIS92       0.1621
     86  C        -10.5280   13.9120    7.8820 C.2    92  HIS92       0.2264
     87  O         -9.3730   14.2860    7.7230 O.2    92  HIS92      -0.2867
     88  CB       -11.6650   12.7160    6.0070 C.3    92  HIS92       0.0745
     89  CG       -10.7390   13.0410    4.8800 C.ar   92  HIS92       0.0817
     90  ND1      -10.3260   14.3250    4.5970 N.ar   92  HIS92      -0.2268
     91  CD2      -10.1380   12.2430    3.9660 C.ar   92  HIS92       0.1154
     92  CE1       -9.5160   14.3060    3.5550 C.ar   92  HIS92       0.1986
     93  NE2       -9.3850   13.0550    3.1530 N.ar   92  HIS92      -0.2212
     94  N        -15.9710    7.5800   10.6940 N.3   133  ASN133     -0.1240
     95  CA       -15.9710    7.3920    9.2410 C.3   133  ASN133      0.1653
     96  C        -17.3770    7.4270    8.6720 C.2   133  ASN133      0.2266
     97  O        -17.5580    7.6450    7.4770 O.2   133  ASN133     -0.2867
     98  CB       -15.3740    6.0420    8.8440 C.3   133  ASN133      0.1155
     99  CG       -13.8970    5.9490    9.1090 C.2   133  ASN133      0.2627
    100  OD1      -13.4760    5.6590   10.2310 O.2   133  ASN133     -0.2716
    101  ND2      -13.0920    6.1960    8.0750 N.am  133  ASN133     -0.0877
    102  N        -20.4380   12.2190    8.4950 N.3   136  PHE136     -0.1241
    103  CA       -19.9220   13.1510    7.5140 C.3   136  PHE136      0.1605
    104  C        -20.2650   14.5650    7.9300 C.2   136  PHE136      0.2264
    105  O        -21.3370   14.8030    8.4720 O.2   136  PHE136     -0.2867
    106  CB       -20.5320   12.8600    6.1430 C.3   136  PHE136      0.0534
    107  CG       -20.4120   11.4230    5.7160 C.ar  136  PHE136     -0.0203
    108  CD1      -19.1980   10.9100    5.2670 C.ar  136  PHE136     -0.0042
    109  CD2      -21.5100   10.5640    5.8000 C.ar  136  PHE136     -0.0042
    110  CE1      -19.0770    9.5560    4.9090 C.ar  136  PHE136     -0.0003
    111  CE2      -21.4030    9.2140    5.4480 C.ar  136  PHE136     -0.0003
    112  CZ       -20.1830    8.7100    5.0030 C.ar  136  PHE136     -0.0000
@<TRIPOS>BOND
     1     1     2    1
     2    22    21    2
     3     8     6    1
     4    21    20    1
     5     6     5    1
     6     2     5    1
     7     2     3    1
     8    26    27    1
     9    28    27    1
    10    28    29    2
    11    27    30    1
    12    20    19    1
    13    20    23    1
    14    50    52   ar
    15    50    48   ar
    16     5     7    1
    17    52    51   ar
    18    47    48   ar
    19    47    45   ar
    20    48    46   ar
    21    67    65   ar
    22    12    11    2
    23     3     4    2
    24     3     9   am
    25    51    49   ar
    26    45    44   ar
    27    46    49   ar
    28    46    44   ar
    29    44    43    1
    30    43    40    1
    31     9    10    1
    32    17    18    1
    33    17    14    1
    34    24    23    1
    35    65    66   ar
    36    65    64    1
    37    23    25    1
    38    11    10    1
    39    11    13   am
    40    40    39    1
    41    40    41    1
    42    14    13    1
    43    14    15    1
    44    64    63    1
    45    42    41    2
    46    41    53   am
    47    63    60    1
    48    56    55    2
    49    15    16    2
    50    53    54    1
    51    60    59    1
    52    60    61    1
    53    55    59   am
    54    55    54    1
    55    54    57    1
    56    61    68   am
    57    61    62    2
    58    68    69    1
    59    71    70    2
    60    57    58    1
    61    69    70    1
    62    70    72   am
    63    77    76    1
    64    93    92   ar
    65    93    91   ar
    66    38    36    1
    67    92    90   ar
    68    91    89   ar
    69    36    37    1
    70    36    35    1
    71    72    73    1
    72    76    73    1
    73    73    74    1
    74    90    89   ar
    75    89    88    1
    76   110   112   ar
    77   110   108   ar
    78   112   111   ar
    79    33    34    2
    80    33    32    1
    81   108   107   ar
    82    35    32    1
    83   111   109   ar
    84   107   109   ar
    85   107   106    1
    86    74    78   am
    87    74    75    2
    88    32    31    1
    89    78    79    1
    90    88    85    1
    91   106   103    1
    92    83    82    1
    93    82    79    1
    94    79    80    1
    95    85    86    1
    96    85    84    1
    97    97    96    2
    98   103   104    1
    99   103   102    1
   100    87    86    2
   101   104   105    2
   102   101    99   am
   103    81    80    2
   104    96    95    1
   105    98    99    1
   106    98    95    1
   107    99   100    2
   108    95    94    1
