@<TRIPOS>MOLECULE
tmp/3q4jE00.pdb
 165 158 0 0 0
SMALL
GASTEIGER

@<TRIPOS>ATOM
      1  N         46.8530  153.8110   76.3220 N.3   151  ARG151     -0.1245
      2  CA        46.2800  155.1400   76.5150 C.3   151  ARG151      0.1563
      3  C         45.2370  154.9070   77.6280 C.2   151  ARG151      0.2260
      4  O         44.0580  154.6700   77.3570 O.2   151  ARG151     -0.2867
      5  CB        45.6070  155.6630   75.2220 C.3   151  ARG151      0.0307
      6  CG        46.5120  155.7960   73.9930 C.3   151  ARG151      0.0489
      7  CD        46.0160  154.8830   72.8810 C.3   151  ARG151      0.2205
      8  NE        45.2870  155.5860   71.8240 N.pl3 151  ARG151     -0.0865
      9  CZ        44.4580  155.0090   70.9510 C.cat 151  ARG151      0.5346
     10  NH1       44.1750  153.7140   71.0440 N.pl3 151  ARG151      0.1354
     11  NH2       43.8850  155.7300   69.9970 N.pl3 151  ARG151      0.1354
     12  N         43.7240  156.6330   79.8530 N.3   153  TYR153     -0.1227
     13  CA        42.5920  157.5550   79.9060 C.3   153  TYR153      0.1736
     14  C         41.3690  157.0780   79.0810 C.2   153  TYR153      0.2595
     15  O         40.2600  157.5690   79.2860 O.2   153  TYR153     -0.2718
     16  CB        43.0280  158.9750   79.5140 C.3   153  TYR153      0.0548
     17  CG        43.7510  159.0790   78.1880 C.ar  153  TYR153     -0.0200
     18  CD1       43.0490  159.2320   76.9980 C.ar  153  TYR153     -0.0009
     19  CD2       45.1450  159.0510   78.1250 C.ar  153  TYR153     -0.0009
     20  CE1       43.7070  159.3010   75.7730 C.ar  153  TYR153      0.0417
     21  CE2       45.8150  159.1320   76.9040 C.ar  153  TYR153      0.0417
     22  CZ        45.0900  159.2650   75.7300 C.ar  153  TYR153      0.1957
     23  OH        45.7340  159.3590   74.5200 O.3   153  TYR153     -0.2866
     24  N         41.5740  156.1270   78.1500 N.am  154  LEU154     -0.1980
     25  CA        40.5310  155.5420   77.3090 C.3   154  LEU154      0.1596
     26  C         39.8470  154.3470   78.0050 C.2   154  LEU154      0.2287
     27  O         38.7550  153.9330   77.5740 O.2   154  LEU154     -0.2864
     28  CB        41.1020  155.1150   75.9340 C.3   154  LEU154      0.0297
     29  CG        41.6930  156.2000   75.0410 C.3   154  LEU154      0.0022
     30  CD1       42.0970  155.6340   73.7120 C.3   154  LEU154      0.0001
     31  CD2       40.7140  157.3040   74.7970 C.3   154  LEU154      0.0001
     32  N         35.5560  155.8290   74.3860 N.3   171  THR171     -0.1218
     33  CA        36.2340  155.5230   73.1200 C.3   171  THR171      0.1862
     34  C         37.4230  154.6330   73.3330 C.2   171  THR171      0.2287
     35  O         38.0030  154.6360   74.4030 O.2   171  THR171     -0.2866
     36  CB        36.5600  156.8050   72.3240 C.3   171  THR171      0.1770
     37  OG1       36.9670  156.4600   71.0070 O.3   171  THR171     -0.2211
     38  CG2       37.5920  157.6970   73.0080 C.3   171  THR171      0.0375
     39  N         39.5390  154.3790   70.5450 N.3   173  GLY173     -0.1210
     40  CA        40.3430  154.8540   69.4210 C.3   173  GLY173      0.1956
     41  C         39.8200  154.4100   68.0750 C.2   173  GLY173      0.2612
     42  O         40.2030  154.9720   67.0560 O.2   173  GLY173     -0.2717
     43  N         38.9420  153.4000   68.0570 N.am  174  HIS174     -0.1961
     44  CA        38.3500  152.8890   66.8190 C.3   174  HIS174      0.1787
     45  C         36.9030  153.2530   66.7310 C.2   174  HIS174      0.2620
     46  O         36.3950  153.5650   65.6530 O.2   174  HIS174     -0.2715
     47  CB        38.5290  151.3850   66.7010 C.3   174  HIS174      0.0785
     48  CG        39.9540  150.9480   66.7770 C.ar  174  HIS174      0.0821
     49  ND1       40.8930  151.3990   65.8640 N.ar  174  HIS174     -0.2267
     50  CD2       40.5510  150.1040   67.6420 C.ar  174  HIS174      0.1154
     51  CE1       42.0190  150.8210   66.2090 C.ar  174  HIS174      0.1986
     52  NE2       41.8660  150.0250   67.2650 N.ar  174  HIS174     -0.2212
     53  N         36.2180  153.2090   67.8750 N.am  175  ARG175     -0.1963
     54  CA        34.8190  153.5630   67.9340 C.3   175  ARG175      0.1729
     55  C         34.5960  154.4350   69.1640 C.2   175  ARG175      0.2616
     56  O         35.3470  154.3670   70.1270 O.2   175  ARG175     -0.2715
     57  CB        33.9040  152.3110   67.8680 C.3   175  ARG175      0.0348
     58  CG        34.4290  151.0920   68.6120 C.3   175  ARG175      0.0492
     59  CD        34.0270  151.1400   70.0700 C.3   175  ARG175      0.2205
     60  NE        34.4830  149.9680   70.8020 N.pl3 175  ARG175     -0.0865
     61  CZ        33.7800  148.8500   70.8950 C.cat 175  ARG175      0.5346
     62  NH1       32.6020  148.7470   70.2850 N.pl3 175  ARG175      0.1354
     63  NH2       34.2550  147.8150   71.5850 N.pl3 175  ARG175      0.1354
     64  N         33.6030  155.2830   69.1000 N.am  176  LEU176     -0.1977
     65  CA        33.2910  156.2020   70.1740 C.3   176  LEU176      0.1596
     66  C         31.8150  156.1900   70.4370 C.2   176  LEU176      0.2287
     67  O         31.0190  155.9930   69.5190 O.2   176  LEU176     -0.2864
     68  CB        33.7700  157.6480   69.8010 C.3   176  LEU176      0.0297
     69  CG        33.5040  158.8000   70.8080 C.3   176  LEU176      0.0022
     70  CD1       34.6820  159.7290   70.8640 C.3   176  LEU176      0.0001
     71  CD2       32.2870  159.5800   70.4200 C.3   176  LEU176      0.0001
     72  N         40.4650  162.4610   74.8160 N.3   241  PRO241     -0.2116
     73  CA        40.3750  163.1080   73.5000 C.3   241  PRO241      0.1372
     74  C         39.0880  163.9220   73.3390 C.2   241  PRO241      0.2244
     75  O         38.0780  163.6310   73.9860 O.2   241  PRO241     -0.2868
     76  CB        40.4160  161.9270   72.5360 C.3   241  PRO241      0.0268
     77  CG        39.9520  160.7560   73.3520 C.3   241  PRO241      0.0207
     78  CD        40.5470  160.9990   74.6850 C.3   241  PRO241      0.0892
     79  N         36.1770  164.3240   66.7580 N.3   246  VAL246     -0.1245
     80  CA        35.9930  162.9290   66.2730 C.3   246  VAL246      0.1561
     81  C         34.6930  162.7690   65.4520 C.2   246  VAL246      0.2260
     82  O         34.6640  161.9990   64.4870 O.2   246  VAL246     -0.2867
     83  CB        36.0810  161.9470   67.4670 C.3   246  VAL246      0.0252
     84  CG1       35.5620  160.5580   67.1210 C.3   246  VAL246      0.0019
     85  CG2       37.5010  161.8950   68.0250 C.3   246  VAL246      0.0019
     86  N         34.4440  146.7350   61.1110 N.3   319  ASN319     -0.1240
     87  CA        34.5690  145.6390   62.0390 C.3   319  ASN319      0.1653
     88  C         33.1130  145.4350   62.4920 C.2   319  ASN319      0.2266
     89  O         32.5130  146.3290   63.1040 O.2   319  ASN319     -0.2867
     90  CB        35.4520  146.0410   63.2130 C.3   319  ASN319      0.1155
     91  CG        35.5640  145.0070   64.2870 C.2   319  ASN319      0.2627
     92  OD1       34.5930  144.3410   64.6600 O.2   319  ASN319     -0.2716
     93  ND2       36.7400  144.8670   64.8170 N.am  319  ASN319     -0.0877
     94  N         32.0180  146.0180   66.2150 N.3   322  TYR322     -0.1241
     95  CA        31.8250  147.4280   66.5490 C.3   322  TYR322      0.1605
     96  C         30.4390  147.9000   66.1780 C.2   322  TYR322      0.2264
     97  O         29.8320  148.6810   66.9160 O.2   322  TYR322     -0.2867
     98  CB        32.8570  148.2960   65.8210 C.3   322  TYR322      0.0534
     99  CG        34.2740  148.1120   66.2910 C.ar  322  TYR322     -0.0201
    100  CD1       34.5570  147.4350   67.4720 C.ar  322  TYR322     -0.0009
    101  CD2       35.3280  148.6900   65.6040 C.ar  322  TYR322     -0.0009
    102  CE1       35.8560  147.2880   67.9190 C.ar  322  TYR322      0.0417
    103  CE2       36.6350  148.5570   66.0480 C.ar  322  TYR322      0.0417
    104  CZ        36.8910  147.8650   67.2090 C.ar  322  TYR322      0.1957
    105  OH        38.1790  147.7380   67.6330 O.3   322  TYR322     -0.2866
    106  N         34.3030  156.2530   52.2270 N.3   342  SER342     -0.1202
    107  CA        34.8330  154.9280   52.5810 C.3   342  SER342      0.2020
    108  C         35.9850  154.9310   53.5860 C.2   342  SER342      0.2618
    109  O         36.2960  153.8860   54.1450 O.2   342  SER342     -0.2717
    110  CB        35.2770  154.2010   51.3140 C.3   342  SER342      0.2103
    111  OG        34.2540  154.2370   50.3300 O.3   342  SER342     -0.2182
    112  N         36.6630  156.0700   53.7620 N.am  343  VAL343     -0.1979
    113  CA        37.8310  156.1640   54.6500 C.3   343  VAL343      0.1595
    114  C         37.5820  157.0160   55.8840 C.2   343  VAL343      0.2287
    115  O         38.4830  157.2310   56.6950 O.2   343  VAL343     -0.2864
    116  CB        39.1170  156.5430   53.8640 C.3   343  VAL343      0.0276
    117  CG1       39.5320  155.4120   52.9130 C.3   343  VAL343      0.0022
    118  CG2       38.9420  157.8460   53.0860 C.3   343  VAL343      0.0022
    119  N         34.7760  157.9820   59.2420 N.3   345  SER345     -0.1217
    120  CA        33.8960  157.3940   60.2280 C.3   345  SER345      0.1889
    121  C         32.4220  157.5370   59.9220 C.2   345  SER345      0.2288
    122  O         32.0060  158.4750   59.2440 O.2   345  SER345     -0.2866
    123  CB        34.2060  157.9720   61.6000 C.3   345  SER345      0.2089
    124  OG        33.9020  159.3570   61.6080 O.3   345  SER345     -0.2183
    125  N         30.2380  156.7200   66.9020 N.3   359  VAL359     -0.1245
    126  CA        31.1260  156.9890   65.7940 C.3   359  VAL359      0.1561
    127  C         32.0160  155.7760   65.6310 C.2   359  VAL359      0.2260
    128  O         32.7060  155.4050   66.5650 O.2   359  VAL359     -0.2867
    129  CB        31.9370  158.3300   65.9870 C.3   359  VAL359      0.0252
    130  CG1       32.8590  158.5950   64.8140 C.3   359  VAL359      0.0019
    131  CG2       30.9970  159.5150   66.1670 C.3   359  VAL359      0.0019
    132  N         34.9700  154.0720   63.1830 N.3   361  MET361     -0.1231
    133  CA        35.9550  154.2700   62.1420 C.3   361  MET361      0.1687
    134  C         35.9560  153.0210   61.2400 C.2   361  MET361      0.2434
    135  O         35.9570  151.8960   61.7450 O.2   361  MET361     -0.2733
    136  CB        37.3350  154.5090   62.7480 C.3   361  MET361      0.0400
    137  CG        38.2210  155.2850   61.8320 C.3   361  MET361      0.0596
    138  SD        37.6730  156.9620   61.3820 S.3   361  MET361     -0.1393
    139  CE        38.7930  157.2370   59.9960 C.3   361  MET361      0.0692
    140  N         35.9370  153.1950   59.9050 N.am  362  PRO362     -0.2718
    141  CA        35.8950  152.0320   59.0260 C.3   362  PRO362      0.1535
    142  C         37.2070  151.3020   58.8920 C.2   362  PRO362      0.2598
    143  O         38.2010  151.7070   59.4770 O.2   362  PRO362     -0.2715
    144  CB        35.4480  152.6310   57.6920 C.3   362  PRO362      0.0310
    145  CG        36.0020  153.9840   57.6930 C.3   362  PRO362      0.0237
    146  CD        35.9140  154.4510   59.1200 C.3   362  PRO362      0.0939
    147  N         37.1650  150.1780   58.1520 N.am  363  MET363     -0.1964
    148  CA        38.3080  149.3380   57.8050 C.3   363  MET363      0.1736
    149  C         38.6230  149.4980   56.3410 C.2   363  MET363      0.2616
    150  O         37.7210  149.7800   55.5360 O.2   363  MET363     -0.2715
    151  CB        37.9870  147.8660   58.0250 C.3   363  MET363      0.0427
    152  CG        37.8600  147.4750   59.4590 C.3   363  MET363      0.0599
    153  SD        37.3190  145.7540   59.6830 S.3   363  MET363     -0.1393
    154  CE        38.6030  144.8220   58.8540 C.3   363  MET363      0.0692
    155  N         39.8970  149.2490   55.9890 N.am  364  ARG364     -0.1977
    156  CA        40.4540  149.2870   54.6250 C.3   364  ARG364      0.1597
    157  C         40.4930  147.9020   53.9720 C.2   364  ARG364      0.2287
    158  O         39.6600  147.0460   54.2370 O.2   364  ARG364     -0.2864
    159  CB        41.8870  149.8490   54.6370 C.3   364  ARG364      0.0334
    160  CG        41.9770  151.3600   54.5480 C.3   364  ARG364      0.0492
    161  CD        43.1710  151.7660   53.7040 C.3   364  ARG364      0.2205
    162  NE        43.6220  153.1220   54.0180 N.pl3 364  ARG364     -0.0865
    163  CZ        44.8460  153.4320   54.4360 C.cat 364  ARG364      0.5346
    164  NH1       45.7700  152.4860   54.5730 N.pl3 364  ARG364      0.1354
    165  NH2       45.1620  154.6920   54.7060 N.pl3 364  ARG364      0.1354
@<TRIPOS>BOND
     1   111   110    1
     2   110   107    1
     3   106   107    1
     4   107   108    1
     5   117   116    1
     6   118   116    1
     7   108   112   am
     8   108   109    2
     9   161   162    1
    10   161   160    1
    11   112   113    1
    12   116   113    1
    13   157   158    2
    14   157   156    1
    15   162   163    2
    16   163   164    1
    17   163   165    1
    18   160   159    1
    19   156   159    1
    20   156   155    1
    21   113   114    1
    22   150   149    2
    23   114   115    2
    24   155   149   am
    25   149   148    1
    26   144   145    1
    27   144   141    1
    28   145   146    1
    29   148   151    1
    30   148   147    1
    31   151   152    1
    32   147   142   am
    33   154   153    1
    34   142   141    1
    35   142   143    2
    36   141   140    1
    37   146   140    1
    38   119   120    1
    39   122   121    2
    40   152   153    1
    41   140   134   am
    42   121   120    1
    43   139   138    1
    44   120   123    1
    45    86    87    1
    46   134   135    2
    47   134   133    1
    48   138   137    1
    49   123   124    1
    50   137   136    1
    51    87    88    1
    52    87    90    1
    53   133   136    1
    54   133   132    1
    55    88    89    2
    56    90    91    1
    57    91    92    2
    58    91    93   am
    59    82    81    2
    60   130   129    1
    61    81    80    1
    62   101   103   ar
    63   101    99   ar
    64   127   126    1
    65   127   128    2
    66    46    45    2
    67   126   129    1
    68   126   125    1
    69    98    99    1
    70    98    95    1
    71    49    51   ar
    72    49    48   ar
    73   129   131    1
    74   103   104   ar
    75    96    95    1
    76    96    97    2
    77    51    52   ar
    78    94    95    1
    79    80    79    1
    80    80    83    1
    81    99   100   ar
    82    47    48    1
    83    47    44    1
    84    45    44    1
    85    45    53   am
    86    48    50   ar
    87    44    43    1
    88    42    41    2
    89    84    83    1
    90   104   105    1
    91   104   102   ar
    92    52    50   ar
    93    83    85    1
    94   100   102   ar
    95    57    54    1
    96    57    58    1
    97    53    54    1
    98    54    55    1
    99    43    41   am
   100    41    40    1
   101    58    59    1
   102    64    55   am
   103    64    65    1
   104    55    56    2
   105    40    39    1
   106    67    66    2
   107    68    65    1
   108    68    69    1
   109    11     9    1
   110    59    60    1
   111    65    66    1
   112    62    61    1
   113    71    69    1
   114    60    61    2
   115    69    70    1
   116    61    63    1
   117     9    10    1
   118     9     8    2
   119    37    36    1
   120     8     7    1
   121    36    38    1
   122    36    33    1
   123    76    77    1
   124    76    73    1
   125     7     6    1
   126    33    34    1
   127    33    32    1
   128    34    35    2
   129    74    73    1
   130    74    75    2
   131    77    78    1
   132    73    72    1
   133    30    29    1
   134     6     5    1
   135    23    22    1
   136    78    72    1
   137    31    29    1
   138    29    28    1
   139     5     2    1
   140    22    20   ar
   141    22    21   ar
   142    20    18   ar
   143    28    25    1
   144     1     2    1
   145     2     3    1
   146    21    19   ar
   147    18    17   ar
   148    25    26    1
   149    25    24    1
   150     4     3    2
   151    27    26    2
   152    19    17   ar
   153    24    14   am
   154    17    16    1
   155    14    15    2
   156    14    13    1
   157    16    13    1
   158    12    13    1
