@<TRIPOS>MOLECULE
tmp/3q4lA00.pdb
 195 189 0 0 0
SMALL
GASTEIGER

@<TRIPOS>ATOM
      1  N        -15.2240   16.7430   19.2070 N.3   150  ARG150     -0.1245
      2  CA       -14.4820   17.7700   19.9490 C.3   150  ARG150      0.1563
      3  C        -13.3730   18.0640   18.9490 C.2   150  ARG150      0.2260
      4  O        -12.3260   17.4060   18.9440 O.2   150  ARG150     -0.2867
      5  CB       -13.9320   17.2190   21.2810 C.3   150  ARG150      0.0307
      6  CG       -15.0290   16.8030   22.2580 C.3   150  ARG150      0.0489
      7  CD       -14.4540   16.2230   23.5300 C.3   150  ARG150      0.2205
      8  NE       -14.1250   14.8100   23.3750 N.pl3 150  ARG150     -0.0865
      9  CZ       -13.4430   14.1030   24.2670 C.cat 150  ARG150      0.5346
     10  NH1      -13.0000   14.6760   25.3840 N.pl3 150  ARG150      0.1354
     11  NH2      -13.1830   12.8200   24.0450 N.pl3 150  ARG150      0.1354
     12  N         -9.5630   18.4890   19.2700 N.3   153  LEU153     -0.1245
     13  CA        -8.7140   17.3140   19.4940 C.3   153  LEU153      0.1561
     14  C         -8.1170   16.7020   18.2250 C.2   153  LEU153      0.2260
     15  O         -7.1770   15.8890   18.3060 O.2   153  LEU153     -0.2867
     16  CB        -9.4610   16.2240   20.2800 C.3   153  LEU153      0.0270
     17  CG        -9.9180   16.6070   21.6990 C.3   153  LEU153      0.0019
     18  CD1      -10.4940   15.4040   22.4030 C.3   153  LEU153      0.0001
     19  CD2       -8.7710   17.2180   22.5110 C.3   153  LEU153      0.0001
     20  N         -4.0190   14.6330   21.7620 N.3   170  THR170     -0.1218
     21  CA        -4.8820   13.7520   22.5540 C.3   170  THR170      0.1862
     22  C         -6.1890   13.4860   21.8440 C.2   170  THR170      0.2287
     23  O         -6.6250   14.2980   21.0190 O.2   170  THR170     -0.2866
     24  CB        -5.0620   14.2690   24.0180 C.3   170  THR170      0.1770
     25  OG1       -5.7280   13.2710   24.7860 O.3   170  THR170     -0.2211
     26  CG2       -5.7950   15.6200   24.1220 C.3   170  THR170      0.0375
     27  N         -8.6790   12.2900   24.0300 N.3   172  GLY172     -0.1210
     28  CA        -9.4510   12.3190   25.2700 C.3   172  GLY172      0.1956
     29  C         -9.3670   11.0410   26.0690 C.2   172  GLY172      0.2612
     30  O         -9.8480   10.9790   27.1990 O.2   172  GLY172     -0.2717
     31  N         -8.7150   10.0240   25.4940 N.am  173  HIS173     -0.1961
     32  CA        -8.4810    8.7340   26.1390 C.3   173  HIS173      0.1787
     33  C         -6.9760    8.5300   26.3200 C.2   173  HIS173      0.2620
     34  O         -6.5570    8.0020   27.3350 O.2   173  HIS173     -0.2715
     35  CB        -9.1310    7.6020   25.3250 C.3   173  HIS173      0.0785
     36  CG       -10.5950    7.8320   25.0790 C.ar  173  HIS173      0.0821
     37  ND1      -11.4960    7.9480   26.1300 N.ar  173  HIS173     -0.2267
     38  CD2      -11.2590    7.9980   23.9160 C.ar  173  HIS173      0.1154
     39  CE1      -12.6770    8.1580   25.5760 C.ar  173  HIS173      0.1986
     40  NE2      -12.5870    8.2120   24.2470 N.ar  173  HIS173     -0.2212
     41  N         -6.1620    8.9800   25.3370 N.am  174  ARG174     -0.1963
     42  CA        -4.7090    8.8990   25.4250 C.3   174  ARG174      0.1729
     43  C         -4.0780   10.2130   25.0090 C.2   174  ARG174      0.2616
     44  O         -4.6480   10.9500   24.2120 O.2   174  ARG174     -0.2715
     45  CB        -4.1070    7.6860   24.6840 C.3   174  ARG174      0.0348
     46  CG        -4.7190    7.3500   23.3220 C.3   174  ARG174      0.0492
     47  CD        -4.0590    8.1500   22.1960 C.3   174  ARG174      0.2205
     48  NE        -4.5740    7.7720   20.8790 N.pl3 174  ARG174     -0.0865
     49  CZ        -4.0980    6.7790   20.1450 C.cat 174  ARG174      0.5346
     50  NH1       -3.1020    6.0270   20.5970 N.pl3 174  ARG174      0.1354
     51  NH2       -4.6220    6.5170   18.9540 N.pl3 174  ARG174      0.1354
     52  N         -2.8850   10.4890   25.5340 N.am  175  LEU175     -0.1977
     53  CA        -2.2040   11.7380   25.2660 C.3   175  LEU175      0.1596
     54  C         -0.7230   11.5360   25.0230 C.2   175  LEU175      0.2287
     55  O         -0.1110   10.6460   25.5890 O.2   175  LEU175     -0.2864
     56  CB        -2.4310   12.6710   26.4880 C.3   175  LEU175      0.0297
     57  CG        -1.8530   14.0800   26.4420 C.3   175  LEU175      0.0022
     58  CD1       -2.8450   15.0530   27.0400 C.3   175  LEU175      0.0001
     59  CD2       -0.4860   14.1270   27.1250 C.3   175  LEU175      0.0001
     60  N         -7.6810   24.1060   23.5020 N.3   239  PHE239     -0.1228
     61  CA        -7.1750   22.7790   23.8070 C.3   239  PHE239      0.1721
     62  C         -7.3380   22.4890   25.2890 C.2   239  PHE239      0.2437
     63  O         -7.2020   23.4300   26.0730 O.2   239  PHE239     -0.2733
     64  CB        -5.6910   22.6930   23.3950 C.3   239  PHE239      0.0547
     65  CG        -5.2240   21.2980   23.0740 C.ar  239  PHE239     -0.0202
     66  CD1       -5.5400   20.7040   21.8500 C.ar  239  PHE239     -0.0042
     67  CD2       -4.4710   20.5720   23.9960 C.ar  239  PHE239     -0.0042
     68  CE1       -5.0980   19.4040   21.5490 C.ar  239  PHE239     -0.0003
     69  CE2       -4.0300   19.2810   23.6960 C.ar  239  PHE239     -0.0003
     70  CZ        -4.3400   18.7100   22.4710 C.ar  239  PHE239     -0.0000
     71  N         -7.6020   21.2280   25.7340 N.am  240  PRO240     -0.2718
     72  CA        -7.7010   20.9960   27.1780 C.3   240  PRO240      0.1535
     73  C         -6.3530   21.1800   27.8700 C.2   240  PRO240      0.2599
     74  O         -5.2770   21.2010   27.2390 O.2   240  PRO240     -0.2715
     75  CB        -8.2340   19.5770   27.2850 C.3   240  PRO240      0.0310
     76  CG        -7.8270   18.9150   26.0400 C.3   240  PRO240      0.0237
     77  CD        -7.8440   19.9810   24.9790 C.3   240  PRO240      0.0939
     78  N         -6.4800   21.4170   29.1760 N.am  241  ASP241     -0.1958
     79  CA        -5.4510   21.6420   30.1630 C.3   241  ASP241      0.1840
     80  C         -4.8120   20.3070   30.5000 C.2   241  ASP241      0.2622
     81  O         -5.1930   19.6130   31.4550 O.2   241  ASP241     -0.2715
     82  CB        -6.1110   22.2960   31.3760 C.3   241  ASP241      0.1450
     83  CG        -5.1670   22.9000   32.3690 C.2   241  ASP241      0.3671
     84  OD1       -3.9260   22.8260   32.1400 O.co2 241  ASP241     -0.2456
     85  OD2       -5.6540   23.4210   33.3940 O.co2 241  ASP241     -0.2456
     86  N         -3.8650   19.9300   29.6520 N.am  242  TYR242     -0.1974
     87  CA        -3.1520   18.6620   29.7190 C.3   242  TYR242      0.1639
     88  C         -2.2450   18.5650   30.9390 C.2   242  TYR242      0.2290
     89  O         -1.8690   17.4600   31.3450 O.2   242  TYR242     -0.2864
     90  CB        -2.3660   18.4440   28.4240 C.3   242  TYR242      0.0560
     91  CG        -1.2410   19.4380   28.2600 C.ar  242  TYR242     -0.0198
     92  CD1        0.0360   19.1630   28.7460 C.ar  242  TYR242     -0.0009
     93  CD2       -1.4340   20.6300   27.5660 C.ar  242  TYR242     -0.0009
     94  CE1        1.0630   20.0880   28.6390 C.ar  242  TYR242      0.0417
     95  CE2       -0.4160   21.5720   27.4640 C.ar  242  TYR242      0.0417
     96  CZ         0.8380   21.2870   27.9860 C.ar  242  TYR242      0.1957
     97  OH         1.8640   22.1880   27.8810 O.3   242  TYR242     -0.2866
     98  N         -3.0940   19.2690   33.9120 N.3   244  ARG244     -0.1231
     99  CA        -3.9730   18.6290   34.8940 C.3   244  ARG244      0.1694
    100  C         -3.9230   17.1020   34.8600 C.2   244  ARG244      0.2591
    101  O         -4.1510   16.4780   35.8980 O.2   244  ARG244     -0.2718
    102  CB        -5.4230   19.0200   34.6130 C.3   244  ARG244      0.0321
    103  CG        -5.8590   20.3740   35.0970 C.3   244  ARG244      0.0489
    104  CD        -7.3890   20.3960   35.0910 C.3   244  ARG244      0.2205
    105  NE        -7.9790   19.6820   36.2310 N.pl3 244  ARG244     -0.0865
    106  CZ        -8.9200   18.7380   36.1440 C.cat 244  ARG244      0.5346
    107  NH1       -9.3620   18.3350   34.9590 N.pl3 244  ARG244      0.1354
    108  NH2       -9.4150   18.1800   37.2440 N.pl3 244  ARG244      0.1354
    109  N         -3.7260   16.5030   33.6720 N.am  245  VAL245     -0.1980
    110  CA        -3.8450   15.0570   33.5180 C.3   245  VAL245      0.1595
    111  C         -2.5900   14.1740   33.6580 C.2   245  VAL245      0.2287
    112  O         -2.7230   12.9530   33.7460 O.2   245  VAL245     -0.2864
    113  CB        -4.8000   14.6580   32.3770 C.3   245  VAL245      0.0276
    114  CG1       -6.1750   15.2720   32.6140 C.3   245  VAL245      0.0022
    115  CG2       -4.2600   15.0770   31.0130 C.3   245  VAL245      0.0022
    116  N         -6.7260   -0.4100   26.5640 N.3   318  ASN318     -0.1240
    117  CA        -6.9560   -0.6160   25.1550 C.3   318  ASN318      0.1653
    118  C         -5.5540   -0.9260   24.6350 C.2   318  ASN318      0.2266
    119  O         -4.6540   -0.0660   24.6950 O.2   318  ASN318     -0.2867
    120  CB        -7.5690    0.6360   24.5080 C.3   318  ASN318      0.1155
    121  CG        -7.6250    0.5950   23.0040 C.2   318  ASN318      0.2627
    122  OD1       -6.7050    0.1530   22.3410 O.2   318  ASN318     -0.2716
    123  ND2       -8.7160    1.0310   22.4260 N.am  318  ASN318     -0.0877
    124  N         -3.7010    1.3820   22.0610 N.3   321  TYR321     -0.1241
    125  CA        -3.1020    2.5630   22.6810 C.3   321  TYR321      0.1605
    126  C         -1.7680    2.2410   23.2850 C.2   321  TYR321      0.2264
    127  O         -0.8930    3.0990   23.2260 O.2   321  TYR321     -0.2867
    128  CB        -3.9870    3.1460   23.7860 C.3   321  TYR321      0.0534
    129  CG        -5.3240    3.6690   23.3160 C.ar  321  TYR321     -0.0201
    130  CD1       -5.5530    3.9490   21.9720 C.ar  321  TYR321     -0.0009
    131  CD2       -6.3380    3.9530   24.2240 C.ar  321  TYR321     -0.0009
    132  CE1       -6.7630    4.4640   21.5410 C.ar  321  TYR321      0.0417
    133  CE2       -7.5510    4.4850   23.8030 C.ar  321  TYR321      0.0417
    134  CZ        -7.7600    4.7330   22.4590 C.ar  321  TYR321      0.1957
    135  OH        -8.9570    5.2450   22.0190 O.3   321  TYR321     -0.2866
    136  N         -6.1370    1.2320   39.4100 N.3   341  SER341     -0.1202
    137  CA        -6.8170    0.6880   38.2370 C.3   341  SER341      0.2020
    138  C         -7.7940    1.6170   37.5220 C.2   341  SER341      0.2618
    139  O         -8.2210    1.3050   36.4010 O.2   341  SER341     -0.2717
    140  CB        -7.4920   -0.6280   38.5950 C.3   341  SER341      0.2103
    141  OG        -8.4030   -0.4670   39.6660 O.3   341  SER341     -0.2182
    142  N         -8.1670    2.7380   38.1470 N.am  342  VAL342     -0.1979
    143  CA        -9.1120    3.6680   37.5180 C.3   342  VAL342      0.1595
    144  C         -8.4650    5.0230   37.1430 C.2   342  VAL342      0.2287
    145  O         -9.1640    5.9880   36.8150 O.2   342  VAL342     -0.2864
    146  CB       -10.3980    3.8390   38.3750 C.3   342  VAL342      0.0276
    147  CG1      -11.1010    2.4980   38.5690 C.3   342  VAL342      0.0022
    148  CG2      -10.0880    4.5010   39.7220 C.3   342  VAL342      0.0022
    149  N         -5.0540    7.2160   35.1330 N.3   344  SER344     -0.1217
    150  CA        -4.0920    7.2540   34.0340 C.3   344  SER344      0.1889
    151  C         -2.7450    6.6710   34.4090 C.2   344  SER344      0.2288
    152  O         -2.3340    6.6680   35.5680 O.2   344  SER344     -0.2866
    153  CB        -3.8970    8.6870   33.5430 C.3   344  SER344      0.2089
    154  OG        -3.1890    9.4930   34.4750 O.3   344  SER344     -0.2183
    155  N          0.4760    9.3950   28.1580 N.3   358  VAL358     -0.1245
    156  CA        -0.5270    9.1760   29.2000 C.3   358  VAL358      0.1561
    157  C         -1.7080    8.4410   28.6060 C.2   358  VAL358      0.2260
    158  O         -2.3170    8.9210   27.6490 O.2   358  VAL358     -0.2867
    159  CB        -0.8970   10.4980   29.9260 C.3   358  VAL358      0.0252
    160  CG1       -2.0310   10.3040   30.9380 C.3   358  VAL358      0.0019
    161  CG2        0.3270   11.0880   30.6090 C.3   358  VAL358      0.0019
    162  N         -5.3620    6.5010   29.5340 N.3   360  MET360     -0.1231
    163  CA        -6.4100    6.3030   30.5270 C.3   360  MET360      0.1687
    164  C         -6.8340    4.8220   30.4340 C.2   360  MET360      0.2434
    165  O         -7.0110    4.3310   29.3250 O.2   360  MET360     -0.2733
    166  CB        -7.5910    7.2380   30.2200 C.3   360  MET360      0.0400
    167  CG        -8.5180    7.4770   31.3760 C.3   360  MET360      0.0596
    168  SD        -7.7360    8.2270   32.8280 S.3   360  MET360     -0.1393
    169  CE        -9.1050    8.0870   34.0050 C.3   360  MET360      0.0692
    170  N         -6.9810    4.0910   31.5690 N.am  361  PRO361     -0.2718
    171  CA        -7.3830    2.6770   31.5020 C.3   361  PRO361      0.1535
    172  C         -8.8530    2.4560   31.0640 C.2   361  PRO361      0.2598
    173  O         -9.6000    3.4090   30.8010 O.2   361  PRO361     -0.2715
    174  CB        -7.1480    2.2030   32.9410 C.3   361  PRO361      0.0310
    175  CG        -7.4470    3.3800   33.7540 C.3   361  PRO361      0.0237
    176  CD        -6.7970    4.5050   32.9710 C.3   361  PRO361      0.0939
    177  N         -9.2510    1.1790   30.9700 N.am  362  MET362     -0.1964
    178  CA       -10.6060    0.7440   30.6320 C.3   362  MET362      0.1736
    179  C        -11.1560    0.0100   31.8480 C.2   362  MET362      0.2616
    180  O        -10.3760   -0.6020   32.5720 O.2   362  MET362     -0.2715
    181  CB       -10.5590   -0.2640   29.4730 C.3   362  MET362      0.0427
    182  CG       -10.4800    0.3790   28.1100 C.3   362  MET362      0.0599
    183  SD       -10.1770   -0.8800   26.8560 S.3   362  MET362     -0.1393
    184  CE       -11.8440   -1.5750   26.6860 C.3   362  MET362      0.0692
    185  N        -12.4900    0.0420   32.0840 N.am  363  ARG363     -0.1977
    186  CA       -13.0390   -0.7010   33.2250 C.3   363  ARG363      0.1597
    187  C        -13.0030   -2.2130   32.9240 C.2   363  ARG363      0.2287
    188  O        -13.4570   -2.6470   31.8690 O.2   363  ARG363     -0.2864
    189  CB       -14.4410   -0.2090   33.6550 C.3   363  ARG363      0.0334
    190  CG       -14.9000   -0.8810   34.9540 C.3   363  ARG363      0.0492
    191  CD       -16.1940   -0.3210   35.4830 C.3   363  ARG363      0.2205
    192  NE       -15.9670    0.7540   36.4510 N.pl3 363  ARG363     -0.0865
    193  CZ       -16.4030    1.9980   36.2910 C.cat 363  ARG363      0.5346
    194  NH1      -17.0850    2.3350   35.2020 N.pl3 363  ARG363      0.1354
    195  NH2      -16.1590    2.9160   37.2170 N.pl3 363  ARG363      0.1354
@<TRIPOS>BOND
     1    14    15    2
     2    14    13    1
     3     4     3    2
     4     3     2    1
     5    51    49    1
     6     1     2    1
     7    12    13    1
     8    13    16    1
     9     2     5    1
    10    49    50    1
    11    49    48    2
    12    16    17    1
    13    48    47    1
    14    23    22    2
    15     5     6    1
    16   132   130   ar
    17   132   134   ar
    18    68    66   ar
    19    68    70   ar
    20    17    18    1
    21    17    19    1
    22    20    21    1
    23    22    21    1
    24    66    65   ar
    25   130   129   ar
    26   135   134    1
    27   124   125    1
    28    47    46    1
    29     6     7    1
    30   122   121    2
    31   123   121   am
    32   134   133   ar
    33    70    69   ar
    34    21    24    1
    35   125   126    1
    36   125   128    1
    37   121   120    1
    38    65    64    1
    39    65    67   ar
    40   127   126    2
    41   129   128    1
    42   129   131   ar
    43    46    45    1
    44     8     7    1
    45     8     9    2
    46    64    61    1
    47    60    61    1
    48    69    67   ar
    49   133   131   ar
    50    61    62    1
    51    38    40   ar
    52    38    36   ar
    53    24    26    1
    54    24    25    1
    55    27    28    1
    56    11     9    1
    57    44    43    2
    58    40    39   ar
    59     9    10    1
    60   120   117    1
    61   118   119    2
    62   118   117    1
    63    45    42    1
    64    77    71    1
    65    77    76    1
    66    43    42    1
    67    43    52   am
    68    54    53    1
    69    54    55    2
    70    36    35    1
    71    36    37   ar
    72   117   116    1
    73    53    52    1
    74    53    56    1
    75    28    29    1
    76    62    71   am
    77    62    63    2
    78    35    32    1
    79    41    42    1
    80    41    33   am
    81    31    29   am
    82    31    32    1
    83    39    37   ar
    84    71    72    1
    85    76    75    1
    86    29    30    2
    87    32    33    1
    88    33    34    2
    89    57    56    1
    90    57    58    1
    91    57    59    1
    92   184   183    1
    93   183   182    1
    94    72    75    1
    95    72    73    1
    96    74    73    2
    97    95    93   ar
    98    95    96   ar
    99    93    91   ar
   100   158   157    2
   101    73    78   am
   102    97    96    1
   103    96    94   ar
   104   182   181    1
   105   155   156    1
   106    91    90    1
   107    91    92   ar
   108    90    87    1
   109   157   156    1
   110    94    92   ar
   111    78    79    1
   112   156   159    1
   113   165   164    2
   114   181   178    1
   115   162   163    1
   116    86    87    1
   117    86    80   am
   118    87    88    1
   119   159   161    1
   120   159   160    1
   121    79    80    1
   122    79    82    1
   123   166   163    1
   124   166   167    1
   125   164   163    1
   126   164   170   am
   127    80    81    2
   128   178   177    1
   129   178   179    1
   130   173   172    2
   131    88    89    2
   132   177   172   am
   133   115   113    1
   134   172   171    1
   135    82    83    1
   136   167   168    1
   137   171   170    1
   138   171   174    1
   139   170   176    1
   140   179   185   am
   141   179   180    2
   142   188   187    2
   143   185   186    1
   144    84    83   ar
   145    83    85   ar
   146   113   114    1
   147   113   110    1
   148   168   169    1
   149   187   186    1
   150   174   175    1
   151   176   175    1
   152   186   189    1
   153   110   111    1
   154   110   109    1
   155   153   150    1
   156   153   154    1
   157   189   190    1
   158   111   112    2
   159   109   100   am
   160    98    99    1
   161   150   151    1
   162   150   149    1
   163   151   152    2
   164   102    99    1
   165   102   103    1
   166   100    99    1
   167   100   101    2
   168   190   191    1
   169   107   106    1
   170   104   103    1
   171   104   105    1
   172   194   193    1
   173   191   192    1
   174   106   105    2
   175   106   108    1
   176   193   192    2
   177   193   195    1
   178   139   138    2
   179   145   144    2
   180   144   143    1
   181   143   142    1
   182   143   146    1
   183   138   142   am
   184   138   137    1
   185   137   140    1
   186   137   136    1
   187   146   147    1
   188   146   148    1
   189   140   141    1
