@<TRIPOS>MOLECULE
tmp/3q4tB00.pdb
 167 157 0 0 0
SMALL
GASTEIGER

@<TRIPOS>ATOM
      1  N        -22.3120   55.6080    5.4860 N.3    23  LYS23      -0.1231
      2  CA       -22.2650   54.3920    4.6460 C.3    23  LYS23       0.1693
      3  C        -22.6670   53.1140    5.3560 C.2    23  LYS23       0.2591
      4  O        -23.1250   52.1700    4.7000 O.2    23  LYS23      -0.2718
      5  CB       -20.8920   54.1970    3.9830 C.3    23  LYS23       0.0285
      6  CG       -20.6220   55.1340    2.8040 C.3    23  LYS23       0.0035
      7  CD       -21.7230   55.0090    1.7460 C.3    23  LYS23       0.0206
      8  CE       -21.2610   55.3580    0.3380 C.3    23  LYS23       0.1093
      9  NZ       -20.9900   54.1370   -0.4930 N.3    23  LYS23      -0.1314
     10  N        -22.5260   53.0730    6.6750 N.am   24  ALA24      -0.1980
     11  CA       -22.8510   51.8710    7.4250 C.3    24  ALA24       0.1597
     12  C        -23.3300   52.2720    8.8250 C.2    24  ALA24       0.2287
     13  O        -22.9610   53.3540    9.3390 O.2    24  ALA24      -0.2864
     14  CB       -21.6420   50.9070    7.5230 C.3    24  ALA24       0.0319
     15  N        -20.7610   54.9880   10.5160 N.3    31  VAL31      -0.1245
     16  CA       -19.5540   55.0820    9.7480 C.3    31  VAL31       0.1561
     17  C        -19.8440   56.0230    8.5880 C.2    31  VAL31       0.2260
     18  O        -20.7020   55.7480    7.7470 O.2    31  VAL31      -0.2867
     19  CB       -19.1760   53.6980    9.2030 C.3    31  VAL31       0.0252
     20  CG1      -17.8850   53.7850    8.4150 C.3    31  VAL31       0.0019
     21  CG2      -19.0560   52.7260   10.3330 C.3    31  VAL31       0.0019
     22  N        -12.6420   56.4810    6.4840 N.3    42  ALA42      -0.1245
     23  CA       -13.8700   56.3010    7.2410 C.3    42  ALA42       0.1562
     24  C        -13.7840   57.0440    8.5670 C.2    42  ALA42       0.2260
     25  O        -12.8220   56.8910    9.3060 O.2    42  ALA42      -0.2867
     26  CB       -14.1520   54.7770    7.5250 C.3    42  ALA42       0.0290
     27  N        -15.8100   57.0280   11.9500 N.3    44  LYS44      -0.1245
     28  CA       -16.8170   56.3960   12.7530 C.3    44  LYS44       0.1561
     29  C        -17.1050   57.3120   13.9450 C.2    44  LYS44       0.2260
     30  O        -16.1920   57.6950   14.7030 O.2    44  LYS44      -0.2867
     31  CB       -16.3310   55.0260   13.2210 C.3    44  LYS44       0.0271
     32  CG       -17.4480   54.1830   13.8630 C.3    44  LYS44       0.0035
     33  CD       -17.2560   52.6320   13.7930 C.3    44  LYS44       0.0206
     34  CE       -15.8920   52.1480   14.2860 C.3    44  LYS44       0.1093
     35  NZ       -15.7750   50.6120   14.2750 N.3    44  LYS44      -0.1314
     36  N        -12.1950   50.3470   21.4180 N.3    57  GLU57      -0.1245
     37  CA       -11.6220   50.2770   20.0770 C.3    57  GLU57       0.1567
     38  C        -10.3120   51.0180   19.9750 C.2    57  GLU57       0.2260
     39  O         -9.3260   50.4790   19.4550 O.2    57  GLU57      -0.2867
     40  CB       -12.6580   50.7320   19.0120 C.3    57  GLU57       0.0388
     41  CG       -12.1850   50.5400   17.5970 C.3    57  GLU57       0.1160
     42  CD       -13.2780   50.3110   16.5860 C.2    57  GLU57       0.3649
     43  OE1      -14.3920   50.8780   16.6820 O.co2  57  GLU57      -0.2457
     44  OE2      -12.9970   49.5170   15.6740 O.co2  57  GLU57      -0.2457
     45  N         -8.0280   46.2030    9.6800 N.3    72  LEU72      -0.1245
     46  CA        -8.4480   47.5010    9.1520 C.3    72  LEU72       0.1561
     47  C         -7.5140   48.5700    9.6810 C.2    72  LEU72       0.2260
     48  O         -7.2610   48.6600   10.8960 O.2    72  LEU72      -0.2867
     49  CB        -9.9100   47.8080    9.4600 C.3    72  LEU72       0.0270
     50  CG       -10.4320   49.2430    9.1600 C.3    72  LEU72       0.0019
     51  CD1      -10.3360   49.6110    7.7000 C.3    72  LEU72       0.0001
     52  CD2      -11.8590   49.3740    9.6520 C.3    72  LEU72       0.0001
     53  N        -13.4830   57.9300   15.5160 N.3    90  LEU90      -0.1245
     54  CA       -12.3980   57.0020   15.2030 C.3    90  LEU90       0.1561
     55  C        -12.2510   56.9060   13.6740 C.2    90  LEU90       0.2260
     56  O        -13.2280   56.7390   12.9530 O.2    90  LEU90      -0.2867
     57  CB       -12.6030   55.6520   15.9110 C.3    90  LEU90       0.0270
     58  CG       -11.3320   54.7700   15.8980 C.3    90  LEU90       0.0019
     59  CD1      -11.1070   54.0090   17.2120 C.3    90  LEU90       0.0001
     60  CD2      -11.4160   53.8680   14.6940 C.3    90  LEU90       0.0001
     61  N        -10.4200   55.3650   10.3220 N.3    92  THR92      -0.1203
     62  CA        -9.7200   54.2560    9.6820 C.3    92  THR92       0.1994
     63  C         -9.6060   54.4770    8.1830 C.2    92  THR92       0.2618
     64  O        -10.1930   55.4170    7.6040 O.2    92  THR92      -0.2717
     65  CB       -10.4820   52.9080    9.9080 C.3    92  THR92       0.1784
     66  OG1      -11.7280   52.9880    9.2380 O.3    92  THR92      -0.2211
     67  CG2      -10.7060   52.6040   11.4230 C.3    92  THR92       0.0376
     68  N         -8.8650   53.5950    7.5120 N.am   93  ALA93      -0.1965
     69  CA        -8.9460   53.5010    6.0630 C.3    93  ALA93       0.1728
     70  C        -10.4090   53.2570    5.6450 C.2    93  ALA93       0.2616
     71  O        -11.1930   52.7300    6.4070 O.2    93  ALA93      -0.2715
     72  CB        -8.0890   52.3780    5.5240 C.3    93  ALA93       0.0334
     73  N        -10.7210   53.6830    4.4240 N.am   94  PHE94      -0.1960
     74  CA       -11.9810   53.4370    3.7610 C.3    94  PHE94       0.1771
     75  C        -11.7570   52.5290    2.5810 C.2    94  PHE94       0.2620
     76  O        -10.8380   52.7490    1.7910 O.2    94  PHE94      -0.2715
     77  CB       -12.5320   54.7300    3.2160 C.3    94  PHE94       0.0574
     78  CG       -13.8630   54.5620    2.5610 C.ar   94  PHE94      -0.0200
     79  CD1      -15.0140   54.4570    3.3250 C.ar   94  PHE94      -0.0042
     80  CD2      -13.9630   54.4830    1.1950 C.ar   94  PHE94      -0.0042
     81  CE1      -16.2490   54.2560    2.7200 C.ar   94  PHE94      -0.0003
     82  CE2      -15.2140   54.2960    0.5940 C.ar   94  PHE94      -0.0003
     83  CZ       -16.3280   54.1670    1.3550 C.ar   94  PHE94      -0.0000
     84  N        -12.5990   51.5160    2.4600 N.am   95  HIS95      -0.1959
     85  CA       -12.5240   50.5490    1.3680 C.3    95  HIS95       0.1787
     86  C        -13.8260   50.6130    0.6040 C.2    95  HIS95       0.2620
     87  O        -14.8850   50.3120    1.1400 O.2    95  HIS95      -0.2715
     88  CB       -12.2720   49.1660    1.9330 C.3    95  HIS95       0.0785
     89  CG       -10.9340   49.0280    2.6220 C.ar   95  HIS95       0.0821
     90  ND1       -9.7230   49.1210    1.9660 N.ar   95  HIS95      -0.2267
     91  CD2      -10.6360   48.8040    3.9250 C.ar   95  HIS95       0.1154
     92  CE1       -8.7450   49.0070    2.8480 C.ar   95  HIS95       0.1986
     93  NE2       -9.2780   48.7360    4.0280 N.ar   95  HIS95      -0.2212
     94  N        -13.7450   50.9810   -0.6630 N.am   96  GLU96      -0.1963
     95  CA       -14.9370   51.2880   -1.4710 C.3    96  GLU96       0.1733
     96  C        -15.7890   50.0720   -1.7810 C.2    96  GLU96       0.2616
     97  O        -16.9980   50.1850   -2.0460 O.2    96  GLU96      -0.2715
     98  CB       -14.4980   51.9840   -2.7770 C.3    96  GLU96       0.0429
     99  CG       -14.2190   53.4670   -2.4980 C.3    96  GLU96       0.1163
    100  CD       -13.6860   54.2800   -3.6820 C.2    96  GLU96       0.3649
    101  OE1      -12.5630   53.9870   -4.1620 O.co2  96  GLU96      -0.2457
    102  OE2      -14.3920   55.2460   -4.0780 O.co2  96  GLU96      -0.2457
    103  N        -15.1700   48.9070   -1.7820 N.am   97  LYS97      -0.1963
    104  CA       -15.9640   47.6730   -1.9720 C.3    97  LYS97       0.1728
    105  C        -16.8520   47.3560   -0.7590 C.2    97  LYS97       0.2617
    106  O        -17.7400   46.4950   -0.8430 O.2    97  LYS97      -0.2715
    107  CB       -15.0830   46.4900   -2.3410 C.3    97  LYS97       0.0311
    108  CG       -14.7560   46.4100   -3.7930 C.3    97  LYS97       0.0038
    109  CD       -13.9880   45.1410   -4.0840 C.3    97  LYS97       0.0206
    110  CE       -13.8920   44.8900   -5.5760 C.3    97  LYS97       0.1093
    111  NZ       -13.2210   45.9610   -6.3130 N.3    97  LYS97      -0.1314
    112  N        -16.5800   48.0090    0.3730 N.am   98  GLY98      -0.1940
    113  CA       -17.2860   47.7400    1.5990 C.3    98  GLY98       0.2014
    114  C        -16.9860   46.4450    2.3020 C.2    98  GLY98       0.2639
    115  O        -15.8750   45.8600    2.1850 O.2    98  GLY98      -0.2714
    116  N        -17.9800   46.0030    3.0730 N.am   99  SER99      -0.1949
    117  CA       -17.8640   44.7540    3.7940 C.3    99  SER99       0.1924
    118  C        -18.0760   43.5740    2.8740 C.2    99  SER99       0.2314
    119  O        -18.6910   43.6800    1.8170 O.2    99  SER99      -0.2863
    120  CB       -18.8500   44.6850    4.9500 C.3    99  SER99       0.2116
    121  OG       -20.1760   44.5290    4.5200 O.3    99  SER99      -0.2180
    122  N        -21.7590   43.4510    2.1620 N.3   102  ASP102     -0.1239
    123  CA       -22.1050   44.3230    1.0560 C.3   102  ASP102      0.1674
    124  C        -21.6800   43.7200   -0.3000 C.2   102  ASP102      0.2266
    125  O        -22.4190   43.7890   -1.2710 O.2   102  ASP102     -0.2867
    126  CB       -21.4210   45.6780    1.1890 C.3   102  ASP102      0.1410
    127  CG       -21.7960   46.4240    2.4470 C.2   102  ASP102      0.3668
    128  OD1      -22.9790   46.5950    2.7320 O.co2 102  ASP102     -0.2456
    129  OD2      -20.8810   46.8830    3.1320 O.co2 102  ASP102     -0.2456
    130  N        -20.3050   41.4590    7.9600 N.3   151  LYS151     -0.1231
    131  CA       -20.3010   42.9300    7.9900 C.3   151  LYS151      0.1693
    132  C        -19.0230   43.5020    8.6110 C.2   151  LYS151      0.2592
    133  O        -18.7610   44.6860    8.4700 O.2   151  LYS151     -0.2718
    134  CB       -21.4710   43.4900    8.8140 C.3   151  LYS151      0.0285
    135  CG       -22.8280   43.4730    8.0780 C.3   151  LYS151      0.0035
    136  CD       -23.8920   44.3820    8.7390 C.3   151  LYS151      0.0206
    137  CE       -25.1390   44.6150    7.8300 C.3   151  LYS151      0.1093
    138  NZ       -26.3040   45.3350    8.5160 N.3   151  LYS151     -0.1314
    139  N        -18.2720   42.6850    9.3520 N.am  152  ASN152     -0.1974
    140  CA       -17.0690   43.1730   10.0210 C.3   152  ASN152      0.1688
    141  C        -15.8050   42.6400    9.4100 C.2   152  ASN152      0.2292
    142  O        -14.7790   42.6360   10.0710 O.2   152  ASN152     -0.2864
    143  CB       -17.0900   42.8520   11.5180 C.3   152  ASN152      0.1181
    144  CG       -18.0150   43.7170   12.2880 C.2   152  ASN152      0.2629
    145  OD1      -18.3020   44.8330   11.8910 O.2   152  ASN152     -0.2716
    146  ND2      -18.4960   43.2030   13.4420 N.am  152  ASN152     -0.0877
    147  N        -13.9280   43.6490    5.7840 N.3   154  LEU154     -0.1245
    148  CA       -13.8810   44.6020    4.6860 C.3   154  LEU154      0.1561
    149  C        -12.9680   44.1120    3.5910 C.2   154  LEU154      0.2260
    150  O        -11.9350   43.4820    3.8650 O.2   154  LEU154     -0.2867
    151  CB       -13.3580   45.9810    5.1740 C.3   154  LEU154      0.0270
    152  CG       -14.1200   46.4760    6.4010 C.3   154  LEU154      0.0019
    153  CD1      -13.6260   47.8080    6.8110 C.3   154  LEU154      0.0001
    154  CD2      -15.6220   46.5190    6.1890 C.3   154  LEU154      0.0001
    155  N        -12.3600   44.1550   10.8990 N.3   164  ALA164     -0.1231
    156  CA       -12.7260   45.4630   11.4150 C.3   164  ALA164      0.1694
    157  C        -13.6220   45.3740   12.6490 C.2   164  ALA164      0.2592
    158  O        -14.2810   44.3630   12.9110 O.2   164  ALA164     -0.2718
    159  CB       -13.4870   46.2390   10.3530 C.3   164  ALA164      0.0304
    160  N        -13.7490   46.5210   13.2850 N.am  165  ASP165     -0.1974
    161  CA       -14.6710   46.7950   14.3680 C.3   165  ASP165      0.1709
    162  C        -14.3500   46.0710   15.6770 C.2   165  ASP165      0.2293
    163  O        -14.8550   44.9500   15.9090 O.2   165  ASP165     -0.2864
    164  CB       -16.1510   46.5700   14.0410 C.3   165  ASP165      0.1436
    165  CG       -17.0510   47.3760   14.9880 C.2   165  ASP165      0.3671
    166  OD1      -16.7100   47.5010   16.1960 O.co2 165  ASP165     -0.2456
    167  OD2      -18.0860   47.8980   14.5370 O.co2 165  ASP165     -0.2456
@<TRIPOS>BOND
     1   111   110    1
     2   110   109    1
     3   101   100   ar
     4   109   108    1
     5   102   100   ar
     6   108   107    1
     7   100    99    1
     8    98    99    1
     9    98    95    1
    10   107   104    1
    11    97    96    2
    12   104   103    1
    13   104   105    1
    14   103    96   am
    15    96    95    1
    16    95    94    1
    17   125   124    2
    18   106   105    2
    19   105   112   am
    20    94    86   am
    21     9     8    1
    22   124   123    1
    23     8     7    1
    24   112   113    1
    25    82    80   ar
    26    82    83   ar
    27    86    87    2
    28    86    85    1
    29   123   126    1
    30   123   122    1
    31   126   127    1
    32    80    78   ar
    33    83    81   ar
    34    85    88    1
    35    85    84    1
    36   113   114    1
    37     7     6    1
    38    76    75    2
    39   119   118    2
    40    88    89    1
    41    90    89   ar
    42    90    92   ar
    43   115   114    2
    44   114   116   am
    45   127   128   ar
    46   127   129   ar
    47    84    75   am
    48    78    77    1
    49    78    79   ar
    50    75    74    1
    51    89    91   ar
    52    81    79   ar
    53     6     5    1
    54    92    93   ar
    55   118   117    1
    56   116   117    1
    57    77    74    1
    58   149   150    2
    59   149   148    1
    60    74    73    1
    61   117   120    1
    62    91    93   ar
    63     5     2    1
    64    73    70   am
    65   121   120    1
    66     2     3    1
    67     2     1    1
    68   148   151    1
    69   148   147    1
    70     4     3    2
    71   151   152    1
    72     3    10   am
    73    72    69    1
    74    70    69    1
    75    70    71    2
    76    69    68    1
    77   154   152    1
    78   152   153    1
    79    22    23    1
    80    10    11    1
    81    23    26    1
    82    23    24    1
    83    11    14    1
    84    11    12    1
    85    68    63   am
    86    64    63    2
    87    51    50    1
    88    18    17    2
    89   137   138    1
    90   137   136    1
    91   130   131    1
    92   131   132    1
    93   131   134    1
    94   135   136    1
    95   135   134    1
    96    63    62    1
    97    20    19    1
    98   133   132    2
    99    24    25    2
   100    17    16    1
   101   132   139   am
   102    12    13    2
   103    46    49    1
   104    46    45    1
   105    46    47    1
   106    50    49    1
   107    50    52    1
   108    19    16    1
   109    19    21    1
   110    66    65    1
   111   139   140    1
   112   141   140    1
   113   141   142    2
   114    47    48    2
   115    62    65    1
   116    62    61    1
   117    16    15    1
   118    65    67    1
   119   140   143    1
   120   159   156    1
   121   155   156    1
   122   156   157    1
   123   143   144    1
   124   145   144    2
   125    27    28    1
   126   144   146   am
   127   157   158    2
   128   157   160   am
   129    28    31    1
   130    28    29    1
   131    56    55    2
   132    31    32    1
   133   160   161    1
   134    55    54    1
   135    33    32    1
   136    33    34    1
   137    29    30    2
   138   164   161    1
   139   164   165    1
   140    35    34    1
   141   161   162    1
   142   167   165   ar
   143    60    58    1
   144   165   166   ar
   145    54    53    1
   146    54    57    1
   147    44    42   ar
   148   162   163    2
   149    58    57    1
   150    58    59    1
   151    42    43   ar
   152    42    41    1
   153    41    40    1
   154    40    37    1
   155    39    38    2
   156    38    37    1
   157    37    36    1
