@<TRIPOS>MOLECULE
tmp/3q4uA00.pdb
 169 160 0 0 0
SMALL
GASTEIGER

@<TRIPOS>ATOM
      1  N         15.5990  -22.1920    9.0450 N.3    13  VAL13      -0.1231
      2  CA        16.5310  -23.2880    8.7170 C.3    13  VAL13       0.1692
      3  C         17.7500  -23.3850    9.6720 C.2    13  VAL13       0.2592
      4  O         18.5090  -24.3540    9.6240 O.2    13  VAL13      -0.2718
      5  CB        17.0280  -23.1990    7.2440 C.3    13  VAL13       0.0266
      6  CG1       15.8910  -23.3530    6.2740 C.3    13  VAL13       0.0020
      7  CG2       17.8260  -21.8960    6.9810 C.3    13  VAL13       0.0020
      8  N         17.9080  -22.4200   10.5700 N.am   14  GLY14      -0.1957
      9  CA        19.0000  -22.4590   11.5640 C.3    14  GLY14       0.1869
     10  C         18.7060  -21.5080   12.6940 C.2    14  GLY14       0.2309
     11  O         18.1010  -20.4570   12.4840 O.2    14  GLY14      -0.2863
     12  N         18.5330  -18.0540   10.9760 N.3    21  VAL21      -0.1245
     13  CA        18.5100  -17.9460    9.5180 C.3    21  VAL21       0.1561
     14  C         17.2420  -18.5690    8.9450 C.2    21  VAL21       0.2260
     15  O         16.8230  -19.7080    9.3340 O.2    21  VAL21      -0.2867
     16  CB        19.7450  -18.6430    8.8840 C.3    21  VAL21       0.0252
     17  CG1       19.7650  -18.4270    7.3740 C.3    21  VAL21       0.0019
     18  CG2       21.0290  -18.1550    9.5420 C.3    21  VAL21       0.0019
     19  N         18.5120  -16.2710    1.6530 N.3    32  ALA32      -0.1245
     20  CA        18.7120  -16.5760    3.0450 C.3    32  ALA32       0.1562
     21  C         18.6300  -15.2480    3.7830 C.2    32  ALA32       0.2260
     22  O         19.2420  -14.2540    3.3650 O.2    32  ALA32      -0.2867
     23  CB        20.0420  -17.1910    3.2690 C.3    32  ALA32       0.0290
     24  N         19.4670  -13.8450    7.3800 N.3    34  LYS34      -0.1245
     25  CA        19.9510  -13.9800    8.7240 C.3    34  LYS34       0.1561
     26  C         19.4220  -12.8230    9.5660 C.2    34  LYS34       0.2260
     27  O         19.6720  -11.6540    9.2380 O.2    34  LYS34      -0.2867
     28  CB        21.4510  -13.9800    8.8110 C.3    34  LYS34       0.0271
     29  CG        21.8450  -14.0870   10.3080 C.3    34  LYS34       0.0035
     30  CD        23.1960  -14.5340   10.5360 C.3    34  LYS34       0.0206
     31  CE        23.5850  -14.3610   11.9810 C.3    34  LYS34       0.1093
     32  NZ        25.0290  -14.5400   12.1420 N.3    34  LYS34      -0.1314
     33  N         29.4930   -6.9830    9.4070 N.3    47  GLU47      -0.1245
     34  CA        29.2940   -7.7390    8.1850 C.3    47  GLU47       0.1567
     35  C         28.8010   -6.8540    7.0750 C.2    47  GLU47       0.2260
     36  O         29.3050   -6.9140    5.9420 O.2    47  GLU47      -0.2867
     37  CB        28.2890   -8.8690    8.3600 C.3    47  GLU47       0.0388
     38  CG        28.8280  -10.0860    8.9540 C.3    47  GLU47       0.1160
     39  CD        28.0810  -11.3360    8.5480 C.2    47  GLU47       0.3649
     40  OE1       27.1290  -11.6870    9.2410 O.co2  47  GLU47      -0.2457
     41  OE2       28.4990  -12.0160    7.5920 O.co2  47  GLU47      -0.2457
     42  N         30.3850  -16.4960    1.1830 N.3    62  LEU62      -0.1245
     43  CA        28.9260  -16.4500    1.0360 C.3    62  LEU62       0.1561
     44  C         28.5290  -15.1480    0.3390 C.2    62  LEU62       0.2260
     45  O         28.9650  -14.0550    0.7540 O.2    62  LEU62      -0.2867
     46  CB        28.2560  -16.5380    2.4090 C.3    62  LEU62       0.0270
     47  CG        26.7120  -16.5090    2.4230 C.3    62  LEU62       0.0019
     48  CD1       26.1370  -17.6980    1.6040 C.3    62  LEU62       0.0001
     49  CD2       26.1280  -16.5280    3.8280 C.3    62  LEU62       0.0001
     50  N         20.5550   -9.6760    7.3950 N.3    80  LEU80      -0.1245
     51  CA        21.5310   -9.7730    6.3430 C.3    80  LEU80       0.1561
     52  C         21.0050  -10.7960    5.3700 C.2    80  LEU80       0.2260
     53  O         20.6940  -11.8970    5.7590 O.2    80  LEU80      -0.2867
     54  CB        22.8990  -10.2040    6.8900 C.3    80  LEU80       0.0270
     55  CG        24.0320  -10.3410    5.8950 C.3    80  LEU80       0.0019
     56  CD1       24.6340   -8.9490    5.6260 C.3    80  LEU80       0.0001
     57  CD2       25.0520  -11.2730    6.4980 C.3    80  LEU80       0.0001
     58  N         21.4110  -13.0280    2.0410 N.3    82  THR82      -0.1203
     59  CA        22.4460  -13.6790    1.2160 C.3    82  THR82       0.1994
     60  C         21.8960  -14.7140    0.2500 C.2    82  THR82       0.2618
     61  O         20.7250  -15.0730    0.2750 O.2    82  THR82      -0.2717
     62  CB        23.4970  -14.3850    2.0790 C.3    82  THR82       0.1784
     63  OG1       22.9520  -15.6000    2.6310 O.3    82  THR82      -0.2211
     64  CG2       24.0190  -13.4180    3.2410 C.3    82  THR82       0.0376
     65  N         22.7860  -15.2170   -0.5890 N.am   83  HIS83      -0.1961
     66  CA        22.5570  -16.3950   -1.4100 C.3    83  HIS83       0.1787
     67  C         22.1190  -17.5180   -0.5050 C.2    83  HIS83       0.2620
     68  O         22.7130  -17.6750    0.5760 O.2    83  HIS83      -0.2715
     69  CB        23.8800  -16.7600   -2.0930 C.3    83  HIS83       0.0785
     70  CG        23.7380  -17.6450   -3.2910 C.ar   83  HIS83       0.0821
     71  ND1       24.3620  -17.3750   -4.4900 N.ar   83  HIS83      -0.2267
     72  CD2       23.0850  -18.8160   -3.4630 C.ar   83  HIS83       0.1154
     73  CE1       24.0840  -18.3360   -5.3520 C.ar   83  HIS83       0.1986
     74  NE2       23.3060  -19.2210   -4.7540 N.ar   83  HIS83      -0.2212
     75  N         21.1140  -18.2770   -0.9130 N.am   84  TYR84      -0.1960
     76  CA        20.5990  -19.3920   -0.1620 C.3    84  TYR84       0.1771
     77  C         21.2400  -20.7010   -0.6540 C.2    84  TYR84       0.2620
     78  O         21.2440  -20.9530   -1.8680 O.2    84  TYR84      -0.2715
     79  CB        19.0910  -19.4900   -0.3080 C.3    84  TYR84       0.0574
     80  CG        18.4840  -20.5940    0.4900 C.ar   84  TYR84      -0.0198
     81  CD1       18.4210  -20.5120    1.8730 C.ar   84  TYR84      -0.0009
     82  CD2       17.9990  -21.7590   -0.1320 C.ar   84  TYR84      -0.0009
     83  CE1       17.8710  -21.5620    2.6320 C.ar   84  TYR84       0.0417
     84  CE2       17.4400  -22.8140    0.6230 C.ar   84  TYR84       0.0417
     85  CZ        17.3850  -22.6930    1.9890 C.ar   84  TYR84       0.1957
     86  OH        16.8670  -23.7130    2.7160 O.3    84  TYR84      -0.2866
     87  N         21.7840  -21.4910    0.2920 N.am   85  HIS85      -0.1959
     88  CA        22.3900  -22.8200   -0.0140 C.3    85  HIS85       0.1787
     89  C         21.5940  -23.9650    0.6100 C.2    85  HIS85       0.2620
     90  O         21.6580  -24.2650    1.8010 O.2    85  HIS85      -0.2715
     91  CB        23.9030  -22.8340    0.3460 C.3    85  HIS85       0.0785
     92  CG        24.6840  -21.8610   -0.4790 C.ar   85  HIS85       0.0821
     93  ND1       24.8520  -22.0070   -1.8440 N.ar   85  HIS85      -0.2267
     94  CD2       25.2460  -20.6740   -0.1600 C.ar   85  HIS85       0.1154
     95  CE1       25.4900  -20.9530   -2.3270 C.ar   85  HIS85       0.1986
     96  NE2       25.7320  -20.1210   -1.3260 N.ar   85  HIS85      -0.2212
     97  N         20.7980  -24.6050   -0.2260 N.am   86  GLU86      -0.1963
     98  CA        19.8190  -25.5460    0.2640 C.3    86  GLU86       0.1733
     99  C         20.4360  -26.8090    0.8810 C.2    86  GLU86       0.2616
    100  O         19.7430  -27.5060    1.6170 O.2    86  GLU86      -0.2715
    101  CB        18.8380  -25.9280   -0.8450 C.3    86  GLU86       0.0429
    102  CG        19.4080  -26.9300   -1.8200 C.3    86  GLU86       0.1163
    103  CD        18.4670  -27.2150   -2.9910 C.2    86  GLU86       0.3649
    104  OE1       18.9120  -27.8810   -3.9480 O.co2  86  GLU86      -0.2457
    105  OE2       17.2940  -26.7740   -2.9540 O.co2  86  GLU86      -0.2457
    106  N         21.7200  -27.0930    0.6140 N.am   87  MET87      -0.1963
    107  CA        22.3830  -28.2520    1.2240 C.3    87  MET87       0.1736
    108  C         22.7770  -27.9310    2.6650 C.2    87  MET87       0.2617
    109  O         23.1710  -28.8180    3.4370 O.2    87  MET87      -0.2715
    110  CB        23.6060  -28.6780    0.4060 C.3    87  MET87       0.0427
    111  CG        23.3150  -28.9570   -1.0520 C.3    87  MET87       0.0599
    112  SD        22.3280  -30.4500   -1.2770 S.3    87  MET87      -0.1393
    113  CE        23.5190  -31.6720   -0.7630 C.3    87  MET87       0.0692
    114  N         22.6750  -26.6520    3.0330 N.am   88  GLY88      -0.1940
    115  CA        22.9650  -26.2310    4.3890 C.3    88  GLY88       0.2014
    116  C         24.4490  -26.1610    4.7320 C.2    88  GLY88       0.2639
    117  O         25.2950  -26.0260    3.8720 O.2    88  GLY88      -0.2714
    118  N         24.7710  -26.2550    6.0180 N.am   89  SER89      -0.1949
    119  CA        26.1370  -25.9840    6.4600 C.3    89  SER89       0.1924
    120  C         26.9540  -27.2380    6.1930 C.2    89  SER89       0.2314
    121  O         26.4000  -28.3110    5.9660 O.2    89  SER89      -0.2863
    122  CB        26.2120  -25.5830    7.9480 C.3    89  SER89       0.2116
    123  OG        25.8850  -26.6600    8.8350 O.3    89  SER89      -0.2180
    124  N         26.0220  -29.7490    8.8160 N.3    92  ASP92      -0.1239
    125  CA        24.8240  -30.5320    8.4270 C.3    92  ASP92       0.1674
    126  C         25.1810  -31.6230    7.4130 C.2    92  ASP92       0.2266
    127  O         24.7780  -32.7710    7.5450 O.2    92  ASP92      -0.2867
    128  CB        23.7560  -29.6050    7.8350 C.3    92  ASP92       0.1410
    129  CG        23.1940  -28.6260    8.8440 C.2    92  ASP92       0.3668
    130  OD1       23.0350  -29.0440   10.0230 O.co2  92  ASP92      -0.2456
    131  OD2       22.9220  -27.4390    8.4640 O.co2  92  ASP92      -0.2456
    132  N         29.8650  -25.0590   11.1660 N.3   139  LYS139     -0.1231
    133  CA        28.5160  -24.4280   11.0900 C.3   139  LYS139      0.1693
    134  C         28.5140  -23.0850   10.3500 C.2   139  LYS139      0.2592
    135  O         27.4630  -22.6290    9.8530 O.2   139  LYS139     -0.2718
    136  CB        27.9170  -24.2770   12.4950 C.3   139  LYS139      0.0285
    137  CG        27.3940  -25.5680   13.0740 C.3   139  LYS139      0.0035
    138  CD        26.6830  -25.3130   14.4280 C.3   139  LYS139      0.0206
    139  CE        26.3020  -26.6240   15.0960 C.3   139  LYS139      0.1093
    140  NZ        25.6160  -26.4110   16.4050 N.3   139  LYS139     -0.1314
    141  N         29.6880  -22.4660   10.2380 N.am  140  ASN140     -0.1974
    142  CA        29.8660  -21.2420    9.4470 C.3   140  ASN140      0.1688
    143  C         30.3880  -21.4400    8.0250 C.2   140  ASN140      0.2292
    144  O         30.8690  -20.5080    7.4200 O.2   140  ASN140     -0.2864
    145  CB        30.7560  -20.2390   10.2160 C.3   140  ASN140      0.1181
    146  CG        30.0120  -19.5840   11.3550 C.2   140  ASN140      0.2629
    147  OD1       28.7640  -19.6590   11.4000 O.2   140  ASN140     -0.2716
    148  ND2       30.7550  -18.9600   12.3110 N.am  140  ASN140     -0.0877
    149  N         29.0260  -23.0980    4.2370 N.3   142  LEU142     -0.1245
    150  CA        27.9090  -23.6600    3.4610 C.3   142  LEU142      0.1561
    151  C         28.4340  -24.5780    2.3520 C.2   142  LEU142      0.2260
    152  O         29.4590  -24.3070    1.7550 O.2   142  LEU142     -0.2867
    153  CB        27.0550  -22.5830    2.8180 C.3   142  LEU142      0.0270
    154  CG        26.1270  -21.7730    3.7080 C.3   142  LEU142      0.0019
    155  CD1       25.2370  -22.6920    4.6210 C.3   142  LEU142      0.0001
    156  CD2       26.9310  -20.8230    4.5120 C.3   142  LEU142      0.0001
    157  N         30.9500  -18.2240    5.6560 N.3   152  ALA152     -0.1231
    158  CA        29.9800  -17.2320    6.1050 C.3   152  ALA152      0.1694
    159  C         30.3480  -16.6290    7.4540 C.2   152  ALA152      0.2592
    160  O         31.2460  -17.1040    8.1370 O.2   152  ALA152     -0.2718
    161  CB        28.5550  -17.8650    6.2060 C.3   152  ALA152      0.0304
    162  N         29.5590  -15.6320    7.8400 N.am  153  ASP153     -0.1974
    163  CA        29.5570  -15.0550    9.1830 C.3   153  ASP153      0.1709
    164  C         30.8450  -14.2690    9.5000 C.2   153  ASP153      0.2293
    165  O         31.6580  -14.6860   10.3250 O.2   153  ASP153     -0.2864
    166  CB        29.3500  -16.1080   10.2590 C.3   153  ASP153      0.1436
    167  CG        29.0320  -15.4840   11.6180 C.2   153  ASP153      0.3671
    168  OD1       29.1670  -14.2470   11.7670 O.co2 153  ASP153     -0.2456
    169  OD2       28.6950  -16.2210   12.5300 O.co2 153  ASP153     -0.2456
@<TRIPOS>BOND
     1    73    74   ar
     2    73    71   ar
     3    74    72   ar
     4    71    70   ar
     5   104   103   ar
     6    72    70   ar
     7    70    69    1
     8   103   105   ar
     9   103   102    1
    10    95    93   ar
    11    95    96   ar
    12    69    66    1
    13    78    77    2
    14    93    92   ar
    15   102   101    1
    16    66    65    1
    17    66    67    1
    18    96    94   ar
    19   112   111    1
    20   112   113    1
    21   111   110    1
    22    75    67   am
    23    75    76    1
    24   101    98    1
    25    77    76    1
    26    77    87   am
    27    65    60   am
    28    67    68    2
    29    92    94   ar
    30    92    91    1
    31    79    76    1
    32    79    80    1
    33    97    98    1
    34    97    89   am
    35    82    80   ar
    36    82    84   ar
    37    88    87    1
    38    88    91    1
    39    88    89    1
    40    60    61    2
    41    60    59    1
    42    98    99    1
    43    44    45    2
    44    44    43    1
    45   110   107    1
    46    80    81   ar
    47    89    90    2
    48   106    99   am
    49   106   107    1
    50    84    85   ar
    51    99   100    2
    52    43    42    1
    53    43    46    1
    54    59    58    1
    55    59    62    1
    56   107   108    1
    57    48    47    1
    58    19    20    1
    59   152   151    2
    60    81    83   ar
    61    85    83   ar
    62    85    86    1
    63    62    63    1
    64    62    64    1
    65   151   150    1
    66    46    47    1
    67    47    49    1
    68   108   114   am
    69   108   109    2
    70   153   150    1
    71   153   154    1
    72   114   115    1
    73    20    23    1
    74    20    21    1
    75    22    21    2
    76   150   149    1
    77   154   156    1
    78   154   155    1
    79   117   116    2
    80   115   116    1
    81   116   118   am
    82    52    53    2
    83    52    51    1
    84    56    55    1
    85   157   158    1
    86    55    57    1
    87    55    54    1
    88    36    35    2
    89   121   120    2
    90   118   119    1
    91   158   161    1
    92   158   159    1
    93   120   119    1
    94     6     5    1
    95    51    54    1
    96    51    50    1
    97   119   122    1
    98     7     5    1
    99    35    34    1
   100     5     2    1
   101    17    16    1
   102    24    25    1
   103   126   127    2
   104   126   125    1
   105   144   143    2
   106   159   162   am
   107   159   160    2
   108    41    39   ar
   109   128   125    1
   110   128   129    1
   111   162   163    1
   112   122   123    1
   113   143   142    1
   114    34    37    1
   115    34    33    1
   116    37    38    1
   117   125   124    1
   118   131   129   ar
   119    39    38    1
   120    39    40   ar
   121     2     1    1
   122     2     3    1
   123    25    28    1
   124    25    26    1
   125    28    29    1
   126   129   130   ar
   127    16    13    1
   128    16    18    1
   129    14    15    2
   130    14    13    1
   131   163   164    1
   132   163   166    1
   133    27    26    2
   134   142   145    1
   135   142   141    1
   136   164   165    2
   137    13    12    1
   138     4     3    2
   139     3     8   am
   140   135   134    2
   141   145   146    1
   142   141   134   am
   143   166   167    1
   144    29    30    1
   145   134   133    1
   146    30    31    1
   147     8     9    1
   148   133   132    1
   149   133   136    1
   150   146   147    2
   151   146   148   am
   152     9    10    1
   153   167   168   ar
   154   167   169   ar
   155    31    32    1
   156    11    10    2
   157   136   137    1
   158   137   138    1
   159   138   139    1
   160   139   140    1
