@<TRIPOS>MOLECULE
tmp/3q4zA00.pdb
 161 151 0 0 0
SMALL
GASTEIGER

@<TRIPOS>ATOM
      1  N          8.4450  -21.7800   11.3400 N.3    21  ILE21      -0.1231
      2  CA         8.6200  -20.8200   12.4230 C.3    21  ILE21       0.1692
      3  C          8.1140  -19.4610   11.9670 C.2    21  ILE21       0.2593
      4  O          7.3500  -18.7980   12.6680 O.2    21  ILE21      -0.2718
      5  CB        10.1020  -20.7130   12.8950 C.3    21  ILE21       0.0266
      6  CG1       10.8410  -19.5670   12.2020 C.3    21  ILE21       0.0019
      7  CG2       10.8360  -22.0140   12.6840 C.3    21  ILE21       0.0020
      8  CD1       10.6430  -18.2330   12.8750 C.3    21  ILE21       0.0001
      9  N          8.5360  -19.0670   10.7720 N.am   22  GLY22      -0.1942
     10  CA         8.2330  -17.7600   10.2310 C.3    22  GLY22       0.2014
     11  C          9.0550  -17.5390    8.9810 C.2    22  GLY22       0.2639
     12  O         10.1830  -18.0200    8.8720 O.2    22  GLY22      -0.2714
     13  N          8.4860  -16.8110    8.0300 N.am   23  GLN23      -0.1963
     14  CA         9.1470  -16.5810    6.7590 C.3    23  GLN23       0.1733
     15  C          9.7390  -15.1840    6.7210 C.2    23  GLN23       0.2617
     16  O          9.0150  -14.1910    6.7570 O.2    23  GLN23      -0.2715
     17  CB         8.1540  -16.7590    5.6150 C.3    23  GLN23       0.0408
     18  CG         7.2110  -17.9300    5.8150 C.3    23  GLN23       0.0908
     19  CD         6.5660  -18.3830    4.5250 C.2    23  GLN23       0.2608
     20  OE1        5.5920  -19.1340    4.5370 O.2    23  GLN23      -0.2717
     21  NE2        7.1090  -17.9320    3.4010 N.am   23  GLN23      -0.0878
     22  N         11.0610  -15.1100    6.6630 N.am   24  GLY24      -0.1940
     23  CA        11.7270  -13.8290    6.5650 C.3    24  GLY24       0.2014
     24  C         11.9750  -13.4730    5.1190 C.2    24  GLY24       0.2639
     25  O         11.3520  -14.0280    4.2150 O.2    24  GLY24      -0.2714
     26  N         12.8800  -12.5300    4.9010 N.am   25  ALA25      -0.1963
     27  CA        13.4000  -12.2870    3.5700 C.3    25  ALA25       0.1728
     28  C         14.7790  -12.9260    3.5150 C.2    25  ALA25       0.2616
     29  O         15.4440  -13.0630    4.5430 O.2    25  ALA25      -0.2715
     30  CB        13.4810  -10.7990    3.2880 C.3    25  ALA25       0.0334
     31  N         15.1920  -13.3410    2.3240 N.am   26  SER26      -0.1950
     32  CA        16.5200  -13.9160    2.1190 C.3    26  SER26       0.1924
     33  C         16.8560  -15.0970    3.0360 C.2    26  SER26       0.2314
     34  O         17.8390  -15.0430    3.7740 O.2    26  SER26      -0.2863
     35  CB        17.5940  -12.8320    2.2750 C.3    26  SER26       0.2116
     36  OG        17.7380  -12.4400    3.6310 O.3    26  SER26      -0.2180
     37  N         12.1100  -18.9650    6.4270 N.3    29  VAL29      -0.1245
     38  CA        12.6040  -19.9130    7.4330 C.3    29  VAL29       0.1561
     39  C         11.5250  -20.8940    7.9170 C.2    29  VAL29       0.2260
     40  O         10.3360  -20.5770    7.8930 O.2    29  VAL29      -0.2867
     41  CB        13.2030  -19.1590    8.6470 C.3    29  VAL29       0.0252
     42  CG1       13.8180  -20.1320    9.6390 C.3    29  VAL29       0.0019
     43  CG2       14.2380  -18.1450    8.1820 C.3    29  VAL29       0.0019
     44  N         16.1380  -26.1280   13.7500 N.3    38  ALA38      -0.1245
     45  CA        15.5460  -25.0860   12.9000 C.3    38  ALA38       0.1562
     46  C         16.2290  -25.0250   11.5280 C.2    38  ALA38       0.2260
     47  O         17.4550  -25.0090   11.4400 O.2    38  ALA38      -0.2867
     48  CB        15.6310  -23.7320   13.5840 C.3    38  ALA38       0.0290
     49  N         16.5270  -23.3200    7.4670 N.3    40  ARG40      -0.1245
     50  CA        16.2490  -22.2180    6.5510 C.3    40  ARG40       0.1563
     51  C         16.3520  -22.6720    5.1000 C.2    40  ARG40       0.2260
     52  O         17.2040  -23.4900    4.7610 O.2    40  ARG40      -0.2867
     53  CB        17.2120  -21.0540    6.7860 C.3    40  ARG40       0.0307
     54  CG        17.1360  -19.9810    5.7070 C.3    40  ARG40       0.0489
     55  CD        18.2340  -18.9450    5.8600 C.3    40  ARG40       0.2205
     56  NE        18.2420  -18.3440    7.1920 N.pl3  40  ARG40      -0.0865
     57  CZ        17.5960  -17.2280    7.5170 C.cat  40  ARG40       0.5346
     58  NH1       16.8830  -16.5800    6.6060 N.pl3  40  ARG40       0.1354
     59  NH2       17.6650  -16.7590    8.7550 N.pl3  40  ARG40       0.1354
     60  N         24.4290  -19.1410   17.9760 N.3    64  VAL64      -0.1245
     61  CA        23.4940  -20.1240   17.4820 C.3    64  VAL64       0.1561
     62  C         24.1840  -21.2180   16.6530 C.2    64  VAL64       0.2260
     63  O         24.8180  -20.9190   15.6800 O.2    64  VAL64      -0.2867
     64  CB        22.3900  -19.4640   16.6790 C.3    64  VAL64       0.0252
     65  CG1       21.5480  -20.4710   15.9890 C.3    64  VAL64       0.0019
     66  CG2       21.5400  -18.6360   17.5770 C.3    64  VAL64       0.0019
     67  N         20.1750  -25.0410   11.4000 N.3    80  MET80      -0.1230
     68  CA        20.6990  -24.5580   12.6760 C.3    80  MET80       0.1702
     69  C         19.8860  -25.1150   13.8400 C.2    80  MET80       0.2592
     70  O         18.8590  -25.7540   13.6370 O.2    80  MET80      -0.2718
     71  CB        20.6360  -23.0320   12.7410 C.3    80  MET80       0.0401
     72  CG        20.6210  -22.3350   11.3980 C.3    80  MET80       0.0596
     73  SD        19.6850  -20.8000   11.5040 S.3    80  MET80      -0.1393
     74  CE        18.0050  -21.4140   11.3890 C.3    80  MET80       0.0692
     75  N         20.3470  -24.8590   15.0600 N.am   81  GLU81      -0.1966
     76  CA        19.6080  -25.2510   16.2550 C.3    81  GLU81       0.1733
     77  C         18.3980  -24.3440   16.4080 C.2    81  GLU81       0.2616
     78  O         18.4300  -23.1890   15.9920 O.2    81  GLU81      -0.2715
     79  CB        20.4850  -25.1790   17.5080 C.3    81  GLU81       0.0429
     80  CG        21.0350  -23.8070   17.8260 C.3    81  GLU81       0.1163
     81  CD        21.5480  -23.6980   19.2530 C.2    81  GLU81       0.3649
     82  OE1       20.8370  -24.1560   20.1770 O.co2  81  GLU81      -0.2457
     83  OE2       22.6520  -23.1420   19.4540 O.co2  81  GLU81      -0.2457
     84  N         17.3120  -24.8660   16.9900 N.am   82  TYR82      -0.1960
     85  CA        16.0700  -24.1130   17.2170 C.3    82  TYR82       0.1771
     86  C         16.1150  -23.4870   18.5680 C.2    82  TYR82       0.2619
     87  O         16.4400  -24.1350   19.5390 O.2    82  TYR82      -0.2715
     88  CB        14.8190  -25.0010   17.1430 C.3    82  TYR82       0.0574
     89  CG        13.4560  -24.2880   17.2300 C.ar   82  TYR82      -0.0198
     90  CD1       13.1010  -23.3200   16.3210 C.ar   82  TYR82      -0.0009
     91  CD2       12.5200  -24.6220   18.2080 C.ar   82  TYR82      -0.0009
     92  CE1       11.8790  -22.6850   16.3840 C.ar   82  TYR82       0.0417
     93  CE2       11.2980  -23.9770   18.2820 C.ar   82  TYR82       0.0417
     94  CZ        10.9820  -23.0170   17.3650 C.ar   82  TYR82       0.1957
     95  OH         9.7880  -22.3580   17.3990 O.3    82  TYR82      -0.2866
     96  N         15.8090  -22.1980   18.6150 N.am   83  LEU83      -0.1977
     97  CA        15.6540  -21.5020   19.8700 C.3    83  LEU83       0.1596
     98  C         14.2230  -21.0590   19.9180 C.2    83  LEU83       0.2287
     99  O         13.7740  -20.3330   19.0760 O.2    83  LEU83      -0.2864
    100  CB        16.6020  -20.3410   19.9810 C.3    83  LEU83       0.0297
    101  CG        17.9700  -20.9140   20.2380 C.3    83  LEU83       0.0022
    102  CD1       18.9190  -20.3400   19.3030 C.3    83  LEU83       0.0001
    103  CD2       18.3970  -20.6520   21.5970 C.3    83  LEU83       0.0001
    104  N         12.1890  -17.1240   20.8160 N.3    86  GLY86      -0.1210
    105  CA        12.0640  -15.9850   19.9200 C.3    86  GLY86       0.1956
    106  C         13.2550  -15.0380   19.9780 C.2    86  GLY86       0.2612
    107  O         14.3320  -15.4150   20.4350 O.2    86  GLY86      -0.2717
    108  N         13.0570  -13.8020   19.5310 N.am   87  SER87      -0.1952
    109  CA        14.1540  -12.8460   19.4080 C.3    87  SER87       0.1924
    110  C         14.1260  -11.8190   20.5220 C.2    87  SER87       0.2314
    111  O         13.0860  -11.5870   21.1360 O.2    87  SER87      -0.2863
    112  CB        14.0750  -12.1330   18.0620 C.3    87  SER87       0.2116
    113  OG        12.9500  -11.2760   17.9910 O.3    87  SER87      -0.2180
    114  N         22.3220   -6.3830   16.7490 N.3   127  LYS127     -0.1245
    115  CA        21.0660   -5.6780   17.0040 C.3   127  LYS127      0.1561
    116  C         20.1430   -6.7000   17.6500 C.2   127  LYS127      0.2260
    117  O         20.4070   -7.9000   17.5750 O.2   127  LYS127     -0.2867
    118  CB        20.4210   -5.1220   15.7210 C.3   127  LYS127      0.0271
    119  CG        20.1820   -6.1640   14.6090 C.3   127  LYS127      0.0035
    120  CD        19.6210   -5.5130   13.3270 C.3   127  LYS127      0.0206
    121  CE        19.5320   -6.5040   12.1680 C.3   127  LYS127      0.1093
    122  NZ        18.9810   -5.8450   10.9480 N.3   127  LYS127     -0.1314
    123  N         17.4230   -7.9630   16.8550 N.3   129  ASP129     -0.1225
    124  CA        16.8310   -8.9120   15.9040 C.3   129  ASP129      0.1805
    125  C         17.7360  -10.1270   15.7160 C.2   129  ASP129      0.2597
    126  O         17.2790  -11.1990   15.3260 O.2   129  ASP129     -0.2718
    127  CB        16.5910   -8.2690   14.5210 C.3   129  ASP129      0.1424
    128  CG        16.0370   -6.8530   14.6090 C.2   129  ASP129      0.3668
    129  OD1       15.0180   -6.5650   13.9470 O.co2 129  ASP129     -0.2456
    130  OD2       16.6200   -6.0220   15.3290 O.co2 129  ASP129     -0.2456
    131  N         19.0200   -9.9530   16.0040 N.am  130  ASN130     -0.1974
    132  CA        20.0100  -11.0180   15.8250 C.3   130  ASN130      0.1688
    133  C         20.4310  -11.6830   17.1270 C.2   130  ASN130      0.2292
    134  O         21.4270  -12.3980   17.1830 O.2   130  ASN130     -0.2864
    135  CB        21.2390  -10.4870   15.0700 C.3   130  ASN130      0.1181
    136  CG        20.9540  -10.2890   13.6060 C.2   130  ASN130      0.2629
    137  OD1       20.0700  -10.9430   13.0620 O.2   130  ASN130     -0.2716
    138  ND2       21.7050   -9.4100   12.9540 N.am  130  ASN130     -0.0877
    139  N         18.8850  -14.3540   19.6530 N.3   132  LEU132     -0.1245
    140  CA        17.8000  -15.3170   19.8490 C.3   132  LEU132      0.1561
    141  C         17.8320  -15.8530   21.2630 C.2   132  LEU132      0.2260
    142  O         18.8880  -15.8810   21.9090 O.2   132  LEU132     -0.2867
    143  CB        17.9050  -16.4650   18.8350 C.3   132  LEU132      0.0270
    144  CG        17.8660  -16.0650   17.3600 C.3   132  LEU132      0.0019
    145  CD1       17.8710  -17.2970   16.4360 C.3   132  LEU132      0.0001
    146  CD2       16.6650  -15.1760   17.0610 C.3   132  LEU132      0.0001
    147  N         23.1710  -14.6280   16.3060 N.3   142  THR142     -0.1203
    148  CA        23.1810  -15.1730   14.9520 C.3   142  THR142      0.1994
    149  C         23.5440  -14.1430   13.9230 C.2   142  THR142      0.2617
    150  O         23.9660  -13.0690   14.2350 O.2   142  THR142     -0.2717
    151  CB        21.8390  -15.5920   14.3800 C.3   142  THR142      0.1784
    152  OG1       20.7580  -15.2630   15.2310 O.3   142  THR142     -0.2211
    153  CG2       21.8360  -16.9780   13.9310 C.3   142  THR142      0.0376
    154  N         23.2250  -14.5040   12.6870 N.am  143  ASP143     -0.1973
    155  CA        23.3870  -13.6680   11.5120 C.3   143  ASP143      0.1709
    156  C         24.7890  -13.2430   11.1960 C.2   143  ASP143      0.2293
    157  O         25.1580  -12.1570   11.4880 O.2   143  ASP143     -0.2864
    158  CB        22.4650  -12.4470   11.5900 C.3   143  ASP143      0.1436
    159  CG        22.4190  -11.6590   10.3000 C.2   143  ASP143      0.3671
    160  OD1       22.7210  -12.2200    9.2580 O.co2 143  ASP143     -0.2456
    161  OD2       22.0990  -10.4810   10.3270 O.co2 143  ASP143     -0.2456
@<TRIPOS>BOND
     1    32    35    1
     2    32    31    1
     3    32    33    1
     4    35    36    1
     5    31    28   am
     6    33    34    2
     7    30    27    1
     8    21    19   am
     9    28    27    1
    10    28    29    2
    11    27    26    1
    12    25    24    2
    13    19    20    2
    14    19    18    1
    15    52    51    2
    16    26    24   am
    17    51    50    1
    18    24    23    1
    19    17    18    1
    20    17    14    1
    21    54    55    1
    22    54    53    1
    23    55    56    1
    24    37    38    1
    25    50    53    1
    26    50    49    1
    27    23    22    1
    28    58    57    1
    29    22    15   am
    30    15    16    2
    31    15    14    1
    32    14    13    1
    33    56    57    2
    34    38    39    1
    35    38    41    1
    36    57    59    1
    37    40    39    2
    38    13    11   am
    39    43    41    1
    40    41    42    1
    41    12    11    2
    42    11    10    1
    43   160   159   ar
    44    10     9    1
    45   159   161   ar
    46   159   158    1
    47     9     3   am
    48   122   121    1
    49   156   157    2
    50   156   155    1
    51     1     2    1
    52    74    73    1
    53    72    73    1
    54    72    71    1
    55    67    68    1
    56    47    46    2
    57   155   158    1
    58   155   154    1
    59    46    45    1
    60     3     2    1
    61     3     4    2
    62   121   120    1
    63     6     8    1
    64     6     5    1
    65     2     5    1
    66    68    71    1
    67    68    69    1
    68     7     5    1
    69   154   149   am
    70    45    48    1
    71    45    44    1
    72   138   136   am
    73   137   136    2
    74   120   119    1
    75   136   135    1
    76    70    69    2
    77    69    75   am
    78   149   150    2
    79   149   148    1
    80   153   151    1
    81   129   128   ar
    82   151   148    1
    83   151   152    1
    84   127   128    1
    85   127   124    1
    86   128   130   ar
    87   119   118    1
    88   148   147    1
    89    75    76    1
    90   135   132    1
    91   126   125    2
    92    63    62    2
    93   125   124    1
    94   125   131   am
    95   118   115    1
    96   132   131    1
    97   132   133    1
    98   124   123    1
    99    65    64    1
   100    78    77    2
   101    76    77    1
   102    76    79    1
   103    90    92   ar
   104    90    89   ar
   105    92    94   ar
   106    77    84   am
   107   145   144    1
   108    62    61    1
   109    64    61    1
   110    64    66    1
   111   114   115    1
   112    84    85    1
   113   115   116    1
   114   146   144    1
   115   133   134    2
   116    88    85    1
   117    88    89    1
   118    85    86    1
   119    89    91   ar
   120   144   143    1
   121    94    95    1
   122    94    93   ar
   123    61    60    1
   124    79    80    1
   125   117   116    2
   126    80    81    1
   127   113   112    1
   128   112   109    1
   129    91    93   ar
   130    86    96   am
   131    86    87    2
   132    96    97    1
   133   143   140    1
   134    99    98    2
   135    81    83   ar
   136    81    82   ar
   137   102   101    1
   138   109   108    1
   139   109   110    1
   140   108   106   am
   141   139   140    1
   142   140   141    1
   143    97    98    1
   144    97   100    1
   145   105   106    1
   146   105   104    1
   147   106   107    2
   148   100   101    1
   149   101   103    1
   150   110   111    2
   151   141   142    2
