@<TRIPOS>MOLECULE
tmp/3q53A00.pdb
 165 155 0 0 0
SMALL
GASTEIGER

@<TRIPOS>ATOM
      1  N         -8.1440  -41.5860   20.1110 N.3    27  ILE27      -0.1231
      2  CA        -7.5260  -40.3070   20.4210 C.3    27  ILE27       0.1692
      3  C         -8.5290  -39.3400   21.0550 C.2    27  ILE27       0.2593
      4  O         -8.1690  -38.2300   21.4470 O.2    27  ILE27      -0.2718
      5  CB        -6.8540  -39.6800   19.1750 C.3    27  ILE27       0.0266
      6  CG1       -7.9020  -39.2830   18.1260 C.3    27  ILE27       0.0019
      7  CG2       -5.8350  -40.6560   18.5820 C.3    27  ILE27       0.0020
      8  CD1       -7.3170  -38.6080   16.8980 C.3    27  ILE27       0.0001
      9  N         -9.7800  -39.7830   21.1650 N.am   28  GLY28      -0.1942
     10  CA       -10.8490  -39.0100   21.7840 C.3    28  GLY28       0.2014
     11  C        -12.0140  -39.9360   22.0920 C.2    28  GLY28       0.2639
     12  O        -12.1560  -40.9710   21.4460 O.2    28  GLY28      -0.2714
     13  N        -12.8480  -39.5880   23.0690 N.am   29  GLN29      -0.1963
     14  CA       -13.9370  -40.4880   23.4640 C.3    29  GLN29       0.1733
     15  C        -15.1980  -39.7840   23.9740 C.2    29  GLN29       0.2617
     16  O        -16.1520  -40.4400   24.3990 O.2    29  GLN29      -0.2715
     17  CB       -13.4410  -41.5000   24.5100 C.3    29  GLN29       0.0408
     18  CG       -14.5250  -42.4120   25.0770 C.3    29  GLN29       0.0908
     19  CD       -13.9760  -43.4970   25.9870 C.2    29  GLN29       0.2608
     20  OE1      -12.7730  -43.5630   26.2450 O.2    29  GLN29      -0.2717
     21  NE2      -14.8610  -44.3590   26.4770 N.am   29  GLN29      -0.0878
     22  N        -15.2200  -38.4570   23.9120 N.am   30  GLY30      -0.1940
     23  CA       -16.2580  -37.7090   24.6000 C.3    30  GLY30       0.2014
     24  C        -17.3590  -37.0340   23.8000 C.2    30  GLY30       0.2639
     25  O        -17.0910  -36.2840   22.8570 O.2    30  GLY30      -0.2714
     26  N        -18.6040  -37.3180   24.1870 N.am   31  ALA31      -0.1963
     27  CA       -19.7730  -36.5150   23.8020 C.3    31  ALA31       0.1728
     28  C        -20.1520  -36.5590   22.3180 C.2    31  ALA31       0.2617
     29  O        -21.2550  -36.9830   21.9570 O.2    31  ALA31      -0.2715
     30  CB       -19.5970  -35.0680   24.2670 C.3    31  ALA31       0.0334
     31  N        -19.2460  -36.0910   21.4680 N.am   32  SER32      -0.1936
     32  CA       -19.4780  -36.0540   20.0350 C.3    32  SER32       0.2055
     33  C        -19.1680  -37.4020   19.3780 C.2    32  SER32       0.2643
     34  O        -19.1110  -37.5030   18.1460 O.2    32  SER32      -0.2714
     35  CB       -18.6210  -34.9590   19.4070 C.3    32  SER32       0.2130
     36  OG       -17.4080  -34.7990   20.1170 O.3    32  SER32      -0.2179
     37  N        -18.9820  -38.4360   20.1980 N.am   33  GLY33      -0.1954
     38  CA       -18.5980  -39.7470   19.7010 C.3    33  GLY33       0.1869
     39  C        -17.1530  -40.0940   20.0280 C.2    33  GLY33       0.2309
     40  O        -16.4650  -39.3430   20.7280 O.2    33  GLY33      -0.2863
     41  N        -13.3140  -40.7770   18.6290 N.3    35  VAL35      -0.1245
     42  CA       -12.4500  -40.5010   17.4890 C.3    35  VAL35       0.1561
     43  C        -11.2140  -41.3950   17.5120 C.2    35  VAL35       0.2260
     44  O        -10.5270  -41.4810   18.5200 O.2    35  VAL35      -0.2867
     45  CB       -12.0080  -39.0320   17.4530 C.3    35  VAL35       0.0252
     46  CG1      -11.1610  -38.7610   16.2110 C.3    35  VAL35       0.0019
     47  CG2      -13.2190  -38.1190   17.4890 C.3    35  VAL35       0.0019
     48  N         -8.5200  -39.9710   10.3360 N.3    48  ALA48      -0.1245
     49  CA        -9.2020  -39.8760   11.6150 C.3    48  ALA48       0.1562
     50  C        -10.6780  -40.2130   11.4170 C.2    48  ALA48       0.2260
     51  O        -11.3530  -39.6520   10.5620 O.2    48  ALA48      -0.2867
     52  CB        -9.0350  -38.4950   12.2180 C.3    48  ALA48       0.0290
     53  N        -14.3590  -40.7070   13.2740 N.3    50  ARG50      -0.1245
     54  CA       -15.2320  -40.4800   14.3990 C.3    50  ARG50       0.1563
     55  C        -16.3260  -41.5130   14.3130 C.2    50  ARG50       0.2260
     56  O        -16.9190  -41.7010   13.2460 O.2    50  ARG50      -0.2867
     57  CB       -15.8470  -39.0870   14.3230 C.3    50  ARG50       0.0307
     58  CG       -17.0640  -38.9240   15.2260 C.3    50  ARG50       0.0489
     59  CD       -17.6210  -37.5200   15.1490 C.3    50  ARG50       0.2205
     60  NE       -16.5380  -36.5510   15.1580 N.pl3  50  ARG50      -0.0865
     61  CZ       -15.8480  -36.2220   16.2440 C.cat  50  ARG50       0.5346
     62  NH1      -16.1390  -36.7850   17.4130 N.pl3  50  ARG50       0.1354
     63  NH2      -14.8700  -35.3300   16.1600 N.pl3  50  ARG50       0.1354
     64  N        -10.4440  -29.0340    7.1050 N.3    79  VAL79      -0.1245
     65  CA       -10.0940  -30.4460    7.2260 C.3    79  VAL79       0.1561
     66  C        -10.9330  -31.2500    6.2500 C.2    79  VAL79       0.2260
     67  O        -12.1510  -31.0920    6.1840 O.2    79  VAL79      -0.2867
     68  CB       -10.2430  -30.9650    8.6710 C.3    79  VAL79       0.0252
     69  CG1       -9.9920  -32.4700    8.7270 C.3    79  VAL79       0.0019
     70  CG2       -9.2600  -30.2390    9.5830 C.3    79  VAL79       0.0019
     71  N        -12.2600  -38.5220    8.2450 N.3    95  MET95      -0.1230
     72  CA       -11.5870  -37.2700    7.9260 C.3    95  MET95       0.1702
     73  C        -10.1290  -37.5470    7.6350 C.2    95  MET95       0.2592
     74  O         -9.5850  -38.5550    8.0650 O.2    95  MET95      -0.2718
     75  CB       -11.6410  -36.2990    9.1200 C.3    95  MET95       0.0401
     76  CG       -13.0230  -36.0960    9.7220 C.3    95  MET95       0.0596
     77  SD       -14.1870  -35.3530    8.5580 S.3    95  MET95      -0.1393
     78  CE       -13.5850  -33.6550    8.5110 C.3    95  MET95       0.0692
     79  N         -9.4820  -36.6260    6.9370 N.am   96  GLU96      -0.1966
     80  CA        -8.0370  -36.6860    6.8260 C.3    96  GLU96       0.1733
     81  C         -7.4590  -36.4360    8.2210 C.2    96  GLU96       0.2616
     82  O         -8.0320  -35.6990    9.0320 O.2    96  GLU96      -0.2715
     83  CB        -7.5230  -35.6400    5.8370 C.3    96  GLU96       0.0429
     84  CG        -7.6880  -34.2110    6.3230 C.3    96  GLU96       0.1163
     85  CD        -6.9210  -33.2060    5.4810 C.2    96  GLU96       0.3649
     86  OE1       -7.4370  -32.0890    5.2860 O.co2  96  GLU96      -0.2457
     87  OE2       -5.8080  -33.5290    5.0160 O.co2  96  GLU96      -0.2457
     88  N         -6.3220  -37.0540    8.5010 N.am   97  TYR97      -0.1960
     89  CA        -5.6850  -36.9150    9.7990 C.3    97  TYR97       0.1771
     90  C         -4.6570  -35.7900    9.7500 C.2    97  TYR97       0.2619
     91  O         -3.7940  -35.7650    8.8750 O.2    97  TYR97      -0.2715
     92  CB        -5.0250  -38.2430   10.1940 C.3    97  TYR97       0.0574
     93  CG        -4.1580  -38.1790   11.4320 C.ar   97  TYR97      -0.0198
     94  CD1       -4.7020  -37.8540   12.6630 C.ar   97  TYR97      -0.0009
     95  CD2       -2.7970  -38.4480   11.3690 C.ar   97  TYR97      -0.0009
     96  CE1       -3.9290  -37.8040   13.7910 C.ar   97  TYR97       0.0417
     97  CE2       -2.0090  -38.4040   12.5030 C.ar   97  TYR97       0.0417
     98  CZ        -2.5830  -38.0790   13.7130 C.ar   97  TYR97       0.1957
     99  OH        -1.8210  -38.0170   14.8580 O.3    97  TYR97      -0.2866
    100  N         -4.7690  -34.8400   10.6730 N.am   98  LEU98      -0.1977
    101  CA        -3.7510  -33.8070   10.8130 C.3    98  LEU98       0.1596
    102  C         -2.8160  -34.1600   11.9710 C.2    98  LEU98       0.2287
    103  O         -3.2240  -34.1500   13.1300 O.2    98  LEU98      -0.2864
    104  CB        -4.3890  -32.4290   11.0180 C.3    98  LEU98       0.0297
    105  CG        -4.7420  -31.7610    9.6820 C.3    98  LEU98       0.0022
    106  CD1       -6.1350  -32.1550    9.2210 C.3    98  LEU98       0.0001
    107  CD2       -4.6150  -30.2600    9.7740 C.3    98  LEU98       0.0001
    108  N         -1.4590  -31.8490   15.6710 N.3   101  GLY101     -0.1210
    109  CA        -2.2320  -31.4510   16.8370 C.3   101  GLY101      0.1956
    110  C         -3.0530  -30.2030   16.5560 C.2   101  GLY101      0.2612
    111  O         -3.3350  -29.9040   15.4070 O.2   101  GLY101     -0.2717
    112  N         -3.4300  -29.4710   17.5970 N.am  102  SER102     -0.1952
    113  CA        -4.2700  -28.2900   17.4230 C.3   102  SER102      0.1924
    114  C         -3.5340  -26.9870   17.7480 C.2   102  SER102      0.2314
    115  O         -2.4960  -26.9850   18.4290 O.2   102  SER102     -0.2863
    116  CB        -5.4890  -28.3860   18.3310 C.3   102  SER102      0.2116
    117  OG        -5.1180  -28.0380   19.6470 O.3   102  SER102     -0.2180
    118  N        -12.5320  -21.3150   17.3090 N.3   142  LYS142     -0.1245
    119  CA       -11.6640  -21.2910   18.4860 C.3   142  LYS142      0.1561
    120  C        -10.4670  -22.1710   18.1990 C.2   142  LYS142      0.2260
    121  O        -10.5120  -22.9870   17.2840 O.2   142  LYS142     -0.2867
    122  CB       -12.3910  -21.7970   19.7290 C.3   142  LYS142      0.0271
    123  CG       -12.9970  -23.1870   19.5760 C.3   142  LYS142      0.0035
    124  CD       -13.6790  -23.6050   20.8810 C.3   142  LYS142      0.0206
    125  CE       -14.5060  -24.8800   20.7100 C.3   142  LYS142      0.1093
    126  NZ       -15.1820  -25.2330   21.9970 N.3   142  LYS142     -0.1314
    127  N         -9.1400  -24.6950   19.3950 N.3   144  ASP144     -0.1225
    128  CA        -9.3900  -26.1350   19.4160 C.3   144  ASP144      0.1805
    129  C         -9.8860  -26.6730   18.0810 C.2   144  ASP144      0.2597
    130  O         -9.7130  -27.8490   17.7740 O.2   144  ASP144     -0.2718
    131  CB       -10.4350  -26.4560   20.4710 C.3   144  ASP144      0.1424
    132  CG       -10.1220  -25.8170   21.7890 C.2   144  ASP144      0.3668
    133  OD1       -9.9220  -26.5840   22.7480 O.co2 144  ASP144     -0.2456
    134  OD2      -10.0560  -24.5570   21.8530 O.co2 144  ASP144     -0.2456
    135  N        -10.5140  -25.8120   17.2940 N.am  145  ASN145     -0.1974
    136  CA       -11.0510  -26.2290   16.0010 C.3   145  ASN145      0.1688
    137  C        -10.1280  -25.9020   14.8490 C.2   145  ASN145      0.2292
    138  O        -10.5020  -26.0290   13.6860 O.2   145  ASN145     -0.2864
    139  CB       -12.4490  -25.6500   15.7860 C.3   145  ASN145      0.1181
    140  CG       -13.4610  -26.2520   16.7440 C.2   145  ASN145      0.2629
    141  OD1      -13.2730  -27.3650   17.1990 O.2   145  ASN145     -0.2716
    142  ND2      -14.5200  -25.5130   17.0690 N.am  145  ASN145     -0.0877
    143  N         -6.8280  -27.2200   13.3140 N.3   147  LEU147     -0.1245
    144  CA        -5.9020  -28.3510   13.3500 C.3   147  LEU147      0.1561
    145  C         -4.6890  -28.1020   12.4540 C.2   147  LEU147      0.2260
    146  O         -4.7830  -27.4070   11.4510 O.2   147  LEU147     -0.2867
    147  CB        -6.6200  -29.6490   12.9720 C.3   147  LEU147      0.0270
    148  CG        -7.8690  -29.9820   13.7990 C.3   147  LEU147      0.0019
    149  CD1       -8.4170  -31.3410   13.3870 C.3   147  LEU147      0.0001
    150  CD2       -7.5560  -29.9530   15.2930 C.3   147  LEU147      0.0001
    151  N        -11.8770  -27.1760   11.4560 N.3   157  THR157     -0.1203
    152  CA       -12.7120  -28.3620   11.6460 C.3   157  THR157      0.1994
    153  C        -13.9930  -28.0960   12.4800 C.2   157  THR157      0.2617
    154  O        -14.2340  -26.9840   12.8840 O.2   157  THR157     -0.2717
    155  CB       -11.9010  -29.5210   12.2290 C.3   157  THR157      0.1784
    156  OG1      -12.6330  -30.7210   12.0800 O.3   157  THR157     -0.2211
    157  CG2      -11.6090  -29.3090   13.6870 C.3   157  THR157      0.0376
    158  N        -14.7410  -29.1430   12.8130 N.am  158  ASP158     -0.1973
    159  CA       -15.9720  -28.9970   13.5850 C.3   158  ASP158      0.1709
    160  C        -17.1260  -28.1500   13.0860 C.2   158  ASP158      0.2293
    161  O        -17.3250  -27.0750   13.5140 O.2   158  ASP158     -0.2864
    162  CB       -15.7340  -28.7480   15.0560 C.3   158  ASP158      0.1436
    163  CG       -16.9350  -29.1230   15.9000 C.2   158  ASP158      0.3671
    164  OD1      -18.0460  -29.2790   15.3850 O.co2 158  ASP158     -0.2456
    165  OD2      -16.7670  -29.2380   17.0940 O.co2 158  ASP158     -0.2456
@<TRIPOS>BOND
     1    87    85   ar
     2    86    85   ar
     3    85    84    1
     4    83    84    1
     5    83    80    1
     6    67    66    2
     7    66    65    1
     8    80    79    1
     9    80    81    1
    10    79    73   am
    11    64    65    1
    12    65    68    1
    13    73    72    1
    14    73    74    2
    15    72    71    1
    16    72    75    1
    17    81    88   am
    18    81    82    2
    19    88    89    1
    20    78    77    1
    21    77    76    1
    22    68    69    1
    23    68    70    1
    24    91    90    2
    25    75    76    1
    26   106   105    1
    27   105   107    1
    28   105   104    1
    29    90    89    1
    30    90   100   am
    31    89    92    1
    32    92    93    1
    33    48    49    1
    34    51    50    2
    35   100   101    1
    36   101   104    1
    37   101   102    1
    38    95    93   ar
    39    95    97   ar
    40    50    49    1
    41    93    94   ar
    42   146   145    2
    43   151   152    1
    44    49    52    1
    45   152   155    1
    46   152   153    1
    47   102   103    2
    48   156   155    1
    49   155   157    1
    50   145   144    1
    51   153   158   am
    52   153   154    2
    53    97    98   ar
    54    94    96   ar
    55   158   159    1
    56   147   144    1
    57   147   148    1
    58   160   161    2
    59   160   159    1
    60    56    55    2
    61    53    54    1
    62   143   144    1
    63   149   148    1
    64   159   162    1
    65   138   137    2
    66    98    96   ar
    67    98    99    1
    68   148   150    1
    69    55    54    1
    70    57    54    1
    71    57    58    1
    72   137   136    1
    73   162   163    1
    74    59    60    1
    75    59    58    1
    76    60    61    2
    77   164   163   ar
    78   111   110    2
    79   108   109    1
    80   139   136    1
    81   139   140    1
    82   163   165   ar
    83   136   135    1
    84    63    61    1
    85    46    45    1
    86    61    62    1
    87   110   109    1
    88   110   112   am
    89   140   142   am
    90   140   141    2
    91     8     6    1
    92   121   120    2
    93   135   129   am
    94   118   119    1
    95   113   112    1
    96   113   114    1
    97   113   116    1
    98    45    47    1
    99    45    42    1
   100    42    43    1
   101    42    41    1
   102    43    44    2
   103   114   115    2
   104   130   129    2
   105   129   128    1
   106     6     5    1
   107    34    33    2
   108   120   119    1
   109   116   117    1
   110   119   122    1
   111     7     5    1
   112     5     2    1
   113    33    32    1
   114    33    37   am
   115   127   128    1
   116    35    32    1
   117    35    36    1
   118   128   131    1
   119   123   122    1
   120   123   124    1
   121    38    39    1
   122    38    37    1
   123    39    40    2
   124    32    31    1
   125     1     2    1
   126     2     3    1
   127   131   132    1
   128   125   124    1
   129   125   126    1
   130     3     9   am
   131     3     4    2
   132     9    10    1
   133    12    11    2
   134    31    28   am
   135    10    11    1
   136   132   134   ar
   137   132   133   ar
   138    29    28    2
   139    11    13   am
   140    28    27    1
   141    25    24    2
   142    13    14    1
   143    14    15    1
   144    14    17    1
   145    24    26   am
   146    24    23    1
   147    27    26    1
   148    27    30    1
   149    22    15   am
   150    22    23    1
   151    15    16    2
   152    17    18    1
   153    18    19    1
   154    19    20    2
   155    19    21   am
