@<TRIPOS>MOLECULE
tmp/3q58A03.pdb
 92 87 0 0 0
SMALL
GASTEIGER

@<TRIPOS>ATOM
      1  N         24.9580  -20.3020  -13.3040 N.3    23  CYS23      -0.1221
      2  CA        25.9180  -21.0040  -12.5290 C.3    23  CYS23       0.1808
      3  C         26.2300  -20.3950  -11.1790 C.2    23  CYS23       0.2601
      4  O         27.2970  -19.9850  -10.9500 O.2    23  CYS23      -0.2717
      5  CB        27.1780  -21.2770  -13.3130 C.3    23  CYS23       0.0970
      6  SG        26.8870  -22.1200  -14.8810 S.3    23  CYS23      -0.0800
      7  N         25.2610  -20.4340  -10.2990 N.am   24  GLN24      -0.1966
      8  CA        25.4010  -19.8660   -8.9780 C.3    24  GLN24       0.1718
      9  C         25.1510  -20.8930   -7.8580 C.2    24  GLN24       0.2458
     10  O         24.0600  -21.0750   -7.4670 O.2    24  GLN24      -0.2730
     11  CB        24.4390  -18.6720   -8.8360 C.3    24  GLN24       0.0407
     12  CG        24.6320  -17.5740   -9.8570 C.3    24  GLN24       0.0908
     13  CD        23.6940  -16.4310   -9.6330 C.2    24  GLN24       0.2608
     14  OE1       23.7080  -15.8470   -8.6060 O.2    24  GLN24      -0.2717
     15  NE2       22.8560  -16.1620  -10.5730 N.am   24  GLN24      -0.0878
     16  N         26.1900  -21.5480   -7.3800 N.am   25  PRO25      -0.2727
     17  CA        25.9940  -22.4960   -6.2780 C.3    25  PRO25       0.1402
     18  C         25.5590  -21.7480   -5.0130 C.2    25  PRO25       0.2269
     19  O         25.6660  -20.5180   -4.9680 O.2    25  PRO25      -0.2865
     20  CB        27.3890  -23.0930   -6.0830 C.3    25  PRO25       0.0296
     21  CG        28.3340  -22.0430   -6.6200 C.3    25  PRO25       0.0237
     22  CD        27.6060  -21.3930   -7.7570 C.3    25  PRO25       0.0939
     23  N         25.9160  -19.9000   -1.7940 N.3    27  PRO27      -0.2116
     24  CA        27.1760  -19.2750   -1.3710 C.3    27  PRO27       0.1372
     25  C         27.7580  -19.9190   -0.1150 C.2    27  PRO27       0.2244
     26  O         27.0320  -20.2390    0.8310 O.2    27  PRO27      -0.2868
     27  CB        26.7990  -17.8030   -1.1280 C.3    27  PRO27       0.0268
     28  CG        25.3120  -17.7410   -1.2140 C.3    27  PRO27       0.0207
     29  CD        24.8170  -18.9340   -1.9530 C.3    27  PRO27       0.0892
     30  N         30.8720  -23.8310   -4.0340 N.3    31  ASP31      -0.1239
     31  CA        31.0800  -22.4070   -4.2710 C.3    31  ASP31       0.1674
     32  C         32.5720  -22.0570   -4.3050 C.2    31  ASP31       0.2266
     33  O         33.1000  -21.4300   -3.3810 O.2    31  ASP31      -0.2867
     34  CB        30.3440  -21.5840   -3.2080 C.3    31  ASP31       0.1410
     35  CG        30.4110  -20.1050   -3.4780 C.2    31  ASP31       0.3668
     36  OD1       30.6500  -19.7460   -4.6470 O.co2  31  ASP31      -0.2456
     37  OD2       30.2210  -19.3030   -2.5330 O.co2  31  ASP31      -0.2456
     38  N         35.6010  -20.7940   -7.3950 N.3    33  PRO33      -0.2116
     39  CA        35.6280  -20.2730   -8.7660 C.3    33  PRO33       0.1372
     40  C         35.9270  -21.3450   -9.8200 C.2    33  PRO33       0.2244
     41  O         35.3120  -21.3200  -10.8870 O.2    33  PRO33      -0.2868
     42  CB        36.7360  -19.2120   -8.7130 C.3    33  PRO33       0.0268
     43  CG        36.7360  -18.7620   -7.2850 C.3    33  PRO33       0.0207
     44  CD        36.4540  -20.0110   -6.4830 C.3    33  PRO33       0.0892
     45  N         32.7120  -23.2760  -10.2770 N.3    36  VAL36      -0.1245
     46  CA        31.7940  -22.4560  -11.0690 C.3    36  VAL36       0.1561
     47  C         32.1990  -22.5210  -12.5450 C.2    36  VAL36       0.2260
     48  O         31.3620  -22.7430  -13.4180 O.2    36  VAL36      -0.2867
     49  CB        31.7140  -21.0060  -10.5520 C.3    36  VAL36       0.0252
     50  CG1       30.8800  -20.1490  -11.4930 C.3    36  VAL36       0.0019
     51  CG2       31.1280  -20.9870   -9.1440 C.3    36  VAL36       0.0019
     52  N         27.7510  -14.8850  -11.3180 N.3    53  GLU53      -0.1231
     53  CA        27.8060  -13.8080  -10.3210 C.3    53  GLU53       0.1699
     54  C         29.2270  -13.6610   -9.7990 C.2    53  GLU53       0.2592
     55  O         29.8410  -14.6480   -9.4050 O.2    53  GLU53      -0.2718
     56  CB        26.8730  -14.1140   -9.1410 C.3    53  GLU53       0.0402
     57  CG        26.6660  -12.9480   -8.1270 C.3    53  GLU53       0.1161
     58  CD        27.8810  -12.6460   -7.2420 C.2    53  GLU53       0.3649
     59  OE1       28.6360  -13.5820   -6.8880 O.co2  53  GLU53      -0.2457
     60  OE2       28.0710  -11.4630   -6.8780 O.co2  53  GLU53      -0.2457
     61  N         29.7480  -12.4350   -9.7900 N.am   54  GLY54      -0.1957
     62  CA        30.9970  -12.1630   -9.0980 C.3    54  GLY54       0.1869
     63  C         32.2160  -12.0700   -9.9950 C.2    54  GLY54       0.2309
     64  O         32.3690  -12.8310  -10.9620 O.2    54  GLY54      -0.2863
     65  N         35.5380  -12.6430   -9.3810 N.3    56  GLU56      -0.1231
     66  CA        36.4870  -13.7520   -9.3310 C.3    56  GLU56       0.1699
     67  C         35.9810  -14.9650  -10.1190 C.2    56  GLU56       0.2592
     68  O         36.7390  -15.5990  -10.8570 O.2    56  GLU56      -0.2718
     69  CB        36.8010  -14.1360   -7.8840 C.3    56  GLU56       0.0402
     70  CG        37.9590  -15.1100   -7.7490 C.3    56  GLU56       0.1161
     71  CD        38.2330  -15.5030   -6.3080 C.2    56  GLU56       0.3649
     72  OE1       37.4830  -15.0540   -5.4140 O.co2  56  GLU56      -0.2457
     73  OE2       39.1990  -16.2590   -6.0690 O.co2  56  GLU56      -0.2457
     74  N         34.6980  -15.2890   -9.9720 N.am   57  ASN57      -0.1974
     75  CA        34.1100  -16.3460  -10.7770 C.3    57  ASN57       0.1688
     76  C         34.2200  -16.0420  -12.2680 C.2    57  ASN57       0.2292
     77  O         34.6430  -16.8820  -13.0610 O.2    57  ASN57      -0.2864
     78  CB        32.6350  -16.5810  -10.4240 C.3    57  ASN57       0.1181
     79  CG        32.4400  -17.2090   -9.0550 C.2    57  ASN57       0.2629
     80  OD1       31.4060  -17.0030   -8.4210 O.2    57  ASN57      -0.2716
     81  ND2       33.4250  -17.9710   -8.5930 N.am   57  ASN57      -0.0877
     82  N         22.6310  -26.0090   -8.1980 N.3   210  ARG210     -0.1245
     83  CA        22.5800  -25.9510   -6.7360 C.3   210  ARG210      0.1563
     84  C         22.2790  -27.3140   -6.1310 C.2   210  ARG210      0.2260
     85  O         21.1270  -27.6410   -5.8540 O.2   210  ARG210     -0.2867
     86  CB        21.5620  -24.9100   -6.2410 C.3   210  ARG210      0.0307
     87  CG        22.0820  -23.4740   -6.2610 C.3   210  ARG210      0.0489
     88  CD        21.1180  -22.5120   -5.5600 C.3   210  ARG210      0.2205
     89  NE        21.5830  -21.1250   -5.6360 N.pl3 210  ARG210     -0.0865
     90  CZ        20.8720  -20.1240   -6.1420 C.cat 210  ARG210      0.5346
     91  NH1       19.6520  -20.3430   -6.6110 N.pl3 210  ARG210      0.1354
     92  NH2       21.3790  -18.8980   -6.1740 N.pl3 210  ARG210      0.1354
@<TRIPOS>BOND
     1     6     5    1
     2    48    47    2
     3     5     2    1
     4     1     2    1
     5    77    76    2
     6    47    46    1
     7     2     3    1
     8    76    75    1
     9    50    49    1
    10    52    53    1
    11     3     4    2
    12     3     7   am
    13    46    49    1
    14    46    45    1
    15    64    63    2
    16    41    40    2
    17    68    67    2
    18    75    78    1
    19    75    74    1
    20    15    13   am
    21    49    51    1
    22    78    79    1
    23    53    54    1
    24    53    56    1
    25     7     8    1
    26    67    74   am
    27    67    66    1
    28    63    62    1
    29    12    13    1
    30    12    11    1
    31    40    39    1
    32    54    61   am
    33    54    55    2
    34    61    62    1
    35    13    14    2
    36    65    66    1
    37    66    69    1
    38    56    57    1
    39    79    81   am
    40    79    80    2
    41     8    11    1
    42     8     9    1
    43    39    42    1
    44    39    38    1
    45    42    43    1
    46    82    83    1
    47    57    58    1
    48    69    70    1
    49     9    10    2
    50     9    16   am
    51    22    16    1
    52    22    21    1
    53    70    71    1
    54    38    44    1
    55    16    17    1
    56    43    44    1
    57    58    59   ar
    58    58    60   ar
    59    83    86    1
    60    83    84    1
    61    21    20    1
    62    91    90    1
    63    71    73   ar
    64    71    72   ar
    65    17    20    1
    66    17    18    1
    67    87    86    1
    68    87    88    1
    69    92    90    1
    70    90    89    2
    71    84    85    2
    72    89    88    1
    73    18    19    2
    74    36    35   ar
    75    32    31    1
    76    32    33    2
    77    31    30    1
    78    31    34    1
    79    35    34    1
    80    35    37   ar
    81    29    23    1
    82    29    28    1
    83    23    24    1
    84    24    27    1
    85    24    25    1
    86    28    27    1
    87    25    26    2
