@<TRIPOS>MOLECULE
tmp/3q58B05.pdb
 137 133 0 0 0
SMALL
GASTEIGER

@<TRIPOS>ATOM
      1  N         24.2840  -40.6000   -5.6580 N.3    21  SER21      -0.1217
      2  CA        25.4140  -41.1280   -6.3500 C.3    21  SER21       0.1889
      3  C         26.1700  -39.9710   -7.0040 C.2    21  SER21       0.2288
      4  O         25.6190  -39.2730   -7.7870 O.2    21  SER21      -0.2866
      5  CB        24.9230  -42.0830   -7.4220 C.3    21  SER21       0.2089
      6  OG        25.9590  -42.5140   -8.1870 O.3    21  SER21      -0.2183
      7  N         28.5750  -39.3980   -9.3900 N.3    23  GLN23      -0.1245
      8  CA        29.3230  -39.8310  -10.5490 C.3    23  GLN23       0.1566
      9  C         29.1040  -38.9270  -11.7620 C.2    23  GLN23       0.2260
     10  O         28.1880  -39.1280  -12.4590 O.2    23  GLN23      -0.2867
     11  CB        28.9310  -41.2870  -10.9220 C.3    23  GLN23       0.0367
     12  CG        29.1610  -42.2580   -9.8100 C.3    23  GLN23       0.0905
     13  CD        28.7740  -43.6710  -10.1740 C.2    23  GLN23       0.2608
     14  OE1       29.2830  -44.2110  -11.1000 O.2    23  GLN23      -0.2717
     15  NE2       27.8620  -44.2270   -9.4470 N.am   23  GLN23      -0.0878
     16  N         19.6480  -51.4480   -9.1040 N.3   151  THR151     -0.1218
     17  CA        20.5930  -50.6780   -9.9080 C.3   151  THR151      0.1862
     18  C         20.7140  -51.0870  -11.3710 C.2   151  THR151      0.2287
     19  O         20.8050  -50.2290  -12.2570 O.2   151  THR151     -0.2866
     20  CB        21.9900  -50.7560   -9.2750 C.3   151  THR151      0.1770
     21  OG1       21.8990  -50.3890   -7.8960 O.3   151  THR151     -0.2211
     22  CG2       22.9610  -49.8250   -9.9790 C.3   151  THR151      0.0375
     23  N         19.6210  -52.4290  -17.5890 N.3   155  TYR155     -0.1241
     24  CA        20.9900  -52.1360  -18.0380 C.3   155  TYR155      0.1605
     25  C         21.7840  -53.3730  -18.4360 C.2   155  TYR155      0.2264
     26  O         23.0150  -53.3390  -18.5150 O.2   155  TYR155     -0.2867
     27  CB        21.7290  -51.3380  -16.9680 C.3   155  TYR155      0.0534
     28  CG        20.9920  -50.0430  -16.7060 C.ar  155  TYR155     -0.0201
     29  CD1       20.9890  -49.0270  -17.6560 C.ar  155  TYR155     -0.0009
     30  CD2       20.2460  -49.8650  -15.5450 C.ar  155  TYR155     -0.0009
     31  CE1       20.2870  -47.8520  -17.4410 C.ar  155  TYR155      0.0417
     32  CE2       19.5430  -48.6940  -15.3200 C.ar  155  TYR155      0.0417
     33  CZ        19.5680  -47.6940  -16.2750 C.ar  155  TYR155      0.1957
     34  OH        18.8620  -46.5340  -16.0610 O.3   155  TYR155     -0.2866
     35  N         17.2380  -47.8160   -7.3660 N.3   181  GLU181     -0.1231
     36  CA        18.3270  -47.1400   -8.0610 C.3   181  GLU181      0.1699
     37  C         18.1690  -47.3610   -9.5580 C.2   181  GLU181      0.2593
     38  O         17.9710  -48.4960  -10.0100 O.2   181  GLU181     -0.2718
     39  CB        19.6820  -47.6860   -7.5770 C.3   181  GLU181      0.0402
     40  CG        20.8790  -46.9440   -8.1840 C.3   181  GLU181      0.1161
     41  CD        22.1550  -47.1190   -7.3810 C.2   181  GLU181      0.3649
     42  OE1       22.0860  -47.5850   -6.2300 O.co2 181  GLU181     -0.2457
     43  OE2       23.2320  -46.7670   -7.8970 O.co2 181  GLU181     -0.2457
     44  N         18.2410  -46.2800  -10.3280 N.am  182  GLY182     -0.1942
     45  CA        18.0210  -46.3510  -11.7600 C.3   182  GLY182      0.2014
     46  C         16.8050  -45.5510  -12.2070 C.2   182  GLY182      0.2639
     47  O         15.6680  -45.9970  -12.0520 O.2   182  GLY182     -0.2714
     48  N         17.0570  -44.3670  -12.7620 N.am  183  ARG183     -0.1963
     49  CA        16.0270  -43.5340  -13.3960 C.3   183  ARG183      0.1729
     50  C         15.0580  -42.8610  -12.4320 C.2   183  ARG183      0.2616
     51  O         13.9650  -42.4360  -12.8270 O.2   183  ARG183     -0.2715
     52  CB        15.2750  -44.3200  -14.4820 C.3   183  ARG183      0.0348
     53  CG        16.2040  -45.1310  -15.3770 C.3   183  ARG183      0.0492
     54  CD        15.4940  -45.7990  -16.5590 C.3   183  ARG183      0.2205
     55  NE        14.6130  -46.9160  -16.1860 N.pl3 183  ARG183     -0.0865
     56  CZ        15.0260  -48.1420  -15.8850 C.cat 183  ARG183      0.5346
     57  NH1       16.3240  -48.4260  -15.8670 N.pl3 183  ARG183      0.1354
     58  NH2       14.1370  -49.0870  -15.5910 N.pl3 183  ARG183      0.1354
     59  N         15.4560  -42.7390  -11.1720 N.am  184  TYR184     -0.1960
     60  CA        14.6630  -41.9620  -10.2280 C.3   184  TYR184      0.1771
     61  C         15.1010  -40.5050  -10.2890 C.2   184  TYR184      0.2619
     62  O         15.7230  -39.9860   -9.3650 O.2   184  TYR184     -0.2715
     63  CB        14.7700  -42.5350   -8.8170 C.3   184  TYR184      0.0574
     64  CG        14.1220  -43.9070   -8.7370 C.ar  184  TYR184     -0.0198
     65  CD1       12.7380  -44.0300   -8.6200 C.ar  184  TYR184     -0.0009
     66  CD2       14.8840  -45.0650   -8.8350 C.ar  184  TYR184     -0.0009
     67  CE1       12.1230  -45.2690   -8.5790 C.ar  184  TYR184      0.0417
     68  CE2       14.2740  -46.3280   -8.7880 C.ar  184  TYR184      0.0417
     69  CZ        12.8910  -46.4120   -8.6650 C.ar  184  TYR184      0.1957
     70  OH        12.2630  -47.6380   -8.6170 O.3   184  TYR184     -0.2866
     71  N         14.7760  -39.8550  -11.3990 N.am  185  ASN185     -0.1972
     72  CA        15.2930  -38.5190  -11.6800 C.3   185  ASN185      0.1688
     73  C         14.2980  -37.3750  -11.5230 C.2   185  ASN185      0.2292
     74  O         14.5670  -36.2470  -11.9470 O.2   185  ASN185     -0.2864
     75  CB        15.9240  -38.4850  -13.0640 C.3   185  ASN185      0.1181
     76  CG        17.2150  -39.2530  -13.1080 C.2   185  ASN185      0.2629
     77  OD1       18.0360  -39.1550  -12.1810 O.2   185  ASN185     -0.2716
     78  ND2       17.3920  -40.0600  -14.1550 N.am  185  ASN185     -0.0877
     79  N         18.4020  -44.2440   -4.4530 N.3   202  THR202     -0.1203
     80  CA        19.6490  -43.6200   -4.8930 C.3   202  THR202      0.1994
     81  C         19.3980  -42.7750   -6.1390 C.2   202  THR202      0.2618
     82  O         18.9210  -43.2830   -7.1550 O.2   202  THR202     -0.2717
     83  CB        20.7600  -44.6640   -5.1790 C.3   202  THR202      0.1784
     84  OG1       21.0690  -45.3860   -3.9770 O.3   202  THR202     -0.2211
     85  CG2       22.0200  -43.9680   -5.6870 C.3   202  THR202      0.0376
     86  N         19.6960  -41.4770   -6.0390 N.am  203  VAL203     -0.1965
     87  CA        19.5700  -40.5630   -7.1630 C.3   203  VAL203      0.1727
     88  C         20.9590  -40.1200   -7.6040 C.2   203  VAL203      0.2617
     89  O         21.7860  -39.7400   -6.7770 O.2   203  VAL203     -0.2715
     90  CB        18.7520  -39.3260   -6.7770 C.3   203  VAL203      0.0290
     91  CG1       18.5930  -38.3760   -7.9840 C.3   203  VAL203      0.0023
     92  CG2       17.3930  -39.7520   -6.2390 C.3   203  VAL203      0.0023
     93  N         21.2150  -40.1930   -8.9050 N.am  204  GLY204     -0.1940
     94  CA        22.5000  -39.8040   -9.4600 C.3   204  GLY204      0.2014
     95  C         22.4080  -38.6720  -10.4740 C.2   204  GLY204      0.2639
     96  O         22.6510  -37.5160  -10.1380 O.2   204  GLY204     -0.2714
     97  N         22.0610  -39.0010  -11.7170 N.am  205  SER205     -0.1949
     98  CA        22.1120  -38.0150  -12.7920 C.3   205  SER205      0.1924
     99  C         21.4030  -36.7000  -12.4480 C.2   205  SER205      0.2314
    100  O         21.9450  -35.6320  -12.7000 O.2   205  SER205     -0.2863
    101  CB        21.5700  -38.5950  -14.1030 C.3   205  SER205      0.2116
    102  OG        22.2960  -39.7580  -14.4800 O.3   205  SER205     -0.2180
    103  N         24.9530  -34.9860  -12.5310 N.3   209  ARG209     -0.1245
    104  CA        25.3980  -35.0240  -13.9240 C.3   209  ARG209      0.1563
    105  C         24.8450  -33.8260  -14.6870 C.2   209  ARG209      0.2260
    106  O         23.8020  -33.9240  -15.3280 O.2   209  ARG209     -0.2867
    107  CB        25.0030  -36.3390  -14.6160 C.3   209  ARG209      0.0307
    108  CG        25.8380  -37.5380  -14.1990 C.3   209  ARG209      0.0489
    109  CD        25.6470  -38.6970  -15.1700 C.3   209  ARG209      0.2205
    110  NE        26.4760  -39.8500  -14.8260 N.pl3 209  ARG209     -0.0865
    111  CZ        25.9900  -41.0040  -14.3850 C.cat 209  ARG209      0.5346
    112  NH1       24.6800  -41.1540  -14.2460 N.pl3 209  ARG209      0.1354
    113  NH2       26.8090  -42.0070  -14.0930 N.pl3 209  ARG209      0.1354
    114  N         23.6490  -34.2160  -18.2620 N.3   212  HIS212     -0.1241
    115  CA        22.3760  -34.9050  -18.4470 C.3   212  HIS212      0.1621
    116  C         21.2230  -33.9490  -18.1570 C.2   212  HIS212      0.2264
    117  O         20.2450  -33.8940  -18.9020 O.2   212  HIS212     -0.2867
    118  CB        22.2710  -36.1610  -17.5680 C.3   212  HIS212      0.0745
    119  CG        23.1470  -37.2870  -18.0230 C.ar  212  HIS212      0.0817
    120  ND1       22.8290  -38.6110  -17.8070 N.ar  212  HIS212     -0.2268
    121  CD2       24.3240  -37.2870  -18.6910 C.ar  212  HIS212      0.1154
    122  CE1       23.7760  -39.3770  -18.3190 C.ar  212  HIS212      0.1986
    123  NE2       24.6960  -38.5990  -18.8600 N.ar  212  HIS212     -0.2212
    124  N         18.0770  -32.6370  -20.6210 N.3   216  TRP216     -0.1241
    125  CA        16.6460  -32.7600  -20.3620 C.3   216  TRP216      0.1605
    126  C         15.9520  -31.4190  -20.5840 C.2   216  TRP216      0.2264
    127  O         14.8930  -31.3560  -21.2120 O.2   216  TRP216     -0.2867
    128  CB        16.3680  -33.2590  -18.9430 C.3   216  TRP216      0.0550
    129  CG        17.0370  -34.5370  -18.5660 C.ar  216  TRP216      0.0003
    130  CD1       17.4750  -35.5320  -19.4000 C.ar  216  TRP216      0.0946
    131  CD2       17.3410  -34.9600  -17.2400 C.ar  216  TRP216      0.0152
    132  NE1       18.0340  -36.5550  -18.6610 N.ar  216  TRP216     -0.2442
    133  CE2       17.9640  -36.2230  -17.3330 C.ar  216  TRP216      0.0810
    134  CE3       17.1470  -34.3900  -15.9760 C.ar  216  TRP216      0.0012
    135  CZ2       18.3940  -36.9250  -16.2100 C.ar  216  TRP216      0.0191
    136  CZ3       17.5750  -35.0930  -14.8600 C.ar  216  TRP216      0.0001
    137  CH2       18.1960  -36.3450  -14.9860 C.ar  216  TRP216      0.0015
@<TRIPOS>BOND
     1   127   126    2
     2   124   125    1
     3   126   125    1
     4   125   128    1
     5   130   132   ar
     6   130   129   ar
     7   128   129    1
     8   117   116    2
     9   123   121   ar
    10   123   122   ar
    11   121   119   ar
    12   132   133   ar
    13   129   131   ar
    14    26    25    2
    15   115   114    1
    16   115   116    1
    17   115   118    1
    18    25    24    1
    19   122   120   ar
    20    24    23    1
    21    24    27    1
    22   119   120   ar
    23   119   118    1
    24    29    31   ar
    25    29    28   ar
    26    31    33   ar
    27   133   131   ar
    28   133   135   ar
    29   131   134   ar
    30    27    28    1
    31    28    30   ar
    32    54    55    1
    33    54    53    1
    34    33    34    1
    35    33    32   ar
    36   135   137   ar
    37    55    56    2
    38   134   136   ar
    39    56    57    1
    40    56    58    1
    41    30    32   ar
    42    53    52    1
    43   106   105    2
    44   109   110    1
    45   109   108    1
    46   137   136   ar
    47   110   111    2
    48   105   104    1
    49   107   108    1
    50   107   104    1
    51    52    49    1
    52   102   101    1
    53   111   112    1
    54   111   113    1
    55    78    76   am
    56   101    98    1
    57   104   103    1
    58    49    48    1
    59    49    50    1
    60    76    75    1
    61    76    77    2
    62    75    72    1
    63    51    50    2
    64    98    99    1
    65    98    97    1
    66    48    46   am
    67   100    99    2
    68    10     9    2
    69    50    59   am
    70    19    18    2
    71    46    47    2
    72    46    45    1
    73    74    73    2
    74     9     8    1
    75    45    44    1
    76    97    95   am
    77    72    73    1
    78    72    71    1
    79    71    61   am
    80    18    17    1
    81    59    60    1
    82    14    13    2
    83    11     8    1
    84    11    12    1
    85     8     7    1
    86    95    96    2
    87    95    94    1
    88    44    37   am
    89    61    60    1
    90    61    62    2
    91    60    63    1
    92    13    12    1
    93    13    15   am
    94    38    37    2
    95    22    20    1
    96    17    20    1
    97    17    16    1
    98    37    36    1
    99    94    93    1
   100    20    21    1
   101    93    88   am
   102    66    68   ar
   103    66    64   ar
   104    63    64    1
   105    68    69   ar
   106    64    65   ar
   107    69    70    1
   108    69    67   ar
   109    65    67   ar
   110     6     5    1
   111    40    39    1
   112    40    41    1
   113    36    39    1
   114    36    35    1
   115    91    90    1
   116    43    41   ar
   117     4     3    2
   118    88    87    1
   119    88    89    2
   120     5     2    1
   121    41    42   ar
   122    87    90    1
   123    87    86    1
   124    82    81    2
   125     3     2    1
   126    90    92    1
   127     2     1    1
   128    81    86   am
   129    81    80    1
   130    85    83    1
   131    83    80    1
   132    83    84    1
   133    80    79    1
