@<TRIPOS>MOLECULE
tmp/3q58B04.pdb
 101 91 0 0 0
SMALL
GASTEIGER

@<TRIPOS>ATOM
      1  N         24.2840  -40.6000   -5.6580 N.3    21  SER21      -0.1217
      2  CA        25.4140  -41.1280   -6.3500 C.3    21  SER21       0.1889
      3  C         26.1700  -39.9710   -7.0040 C.2    21  SER21       0.2288
      4  O         25.6190  -39.2730   -7.7870 O.2    21  SER21      -0.2866
      5  CB        24.9230  -42.0830   -7.4220 C.3    21  SER21       0.2089
      6  OG        25.9590  -42.5140   -8.1870 O.3    21  SER21      -0.2183
      7  N         28.5750  -39.3980   -9.3900 N.3    23  GLN23      -0.1245
      8  CA        29.3230  -39.8310  -10.5490 C.3    23  GLN23       0.1566
      9  C         29.1040  -38.9270  -11.7620 C.2    23  GLN23       0.2260
     10  O         28.1880  -39.1280  -12.4590 O.2    23  GLN23      -0.2867
     11  CB        28.9310  -41.2870  -10.9220 C.3    23  GLN23       0.0367
     12  CG        29.1610  -42.2580   -9.8100 C.3    23  GLN23       0.0905
     13  CD        28.7740  -43.6710  -10.1740 C.2    23  GLN23       0.2608
     14  OE1       29.2830  -44.2110  -11.1000 O.2    23  GLN23      -0.2717
     15  NE2       27.8620  -44.2270   -9.4470 N.am   23  GLN23      -0.0878
     16  N         27.1160  -42.6500   -3.0240 N.3    50  ARG50      -0.1245
     17  CA        27.8170  -43.6630   -3.8120 C.3    50  ARG50       0.1563
     18  C         28.9380  -43.0020   -4.6000 C.2    50  ARG50       0.2260
     19  O         28.7050  -42.0460   -5.3340 O.2    50  ARG50      -0.2867
     20  CB        26.8710  -44.3930   -4.7670 C.3    50  ARG50       0.0307
     21  CG        27.6120  -45.2550   -5.7970 C.3    50  ARG50       0.0489
     22  CD        26.6780  -46.0840   -6.6750 C.3    50  ARG50       0.2205
     23  NE        26.0140  -47.1390   -5.9130 N.pl3  50  ARG50      -0.0865
     24  CZ        25.7430  -48.3540   -6.3830 C.cat  50  ARG50       0.5346
     25  NH1       26.0810  -48.6920   -7.6240 N.pl3  50  ARG50       0.1354
     26  NH2       25.1290  -49.2400   -5.6050 N.pl3  50  ARG50       0.1354
     27  N         32.2320  -48.2090   -5.3370 N.3    71  ILE71      -0.1245
     28  CA        32.3080  -49.1110   -6.4690 C.3    71  ILE71       0.1561
     29  C         33.4880  -48.7480   -7.3590 C.2    71  ILE71       0.2260
     30  O         33.9940  -47.6280   -7.3230 O.2    71  ILE71      -0.2867
     31  CB        31.0330  -49.0570   -7.3480 C.3    71  ILE71       0.0252
     32  CG1       30.8220  -47.6420   -7.9000 C.3    71  ILE71       0.0019
     33  CG2       29.8140  -49.5470   -6.5660 C.3    71  ILE71       0.0019
     34  CD1       29.7660  -47.5580   -8.9950 C.3    71  ILE71       0.0001
     35  N         33.9790  -49.1130  -11.5250 N.3    73  LYS73      -0.1245
     36  CA        33.2700  -49.4580  -12.7300 C.3    73  LYS73       0.1561
     37  C         34.2600  -49.7770  -13.8290 C.2    73  LYS73       0.2260
     38  O         35.0990  -48.9960  -14.1180 O.2    73  LYS73      -0.2867
     39  CB        32.3170  -48.3140  -13.1130 C.3    73  LYS73       0.0271
     40  CG        31.1850  -48.6330  -13.9470 C.3    73  LYS73       0.0035
     41  CD        30.0910  -47.5670  -13.8460 C.3    73  LYS73       0.0206
     42  CE        29.1790  -47.5950  -15.0810 C.3    73  LYS73       0.1093
     43  NZ        28.4230  -46.2930  -15.4780 N.3    73  LYS73      -0.1314
     44  N         30.3590  -53.4600  -12.5960 N.3    83  ILE83      -0.1245
     45  CA        30.4120  -52.9430  -11.2280 C.3    83  ILE83       0.1561
     46  C         31.1570  -53.8470  -10.2340 C.2    83  ILE83       0.2260
     47  O         30.6470  -54.8880   -9.7970 O.2    83  ILE83      -0.2867
     48  CB        29.0100  -52.5960  -10.6940 C.3    83  ILE83       0.0252
     49  CG1       28.3350  -51.5740  -11.6150 C.3    83  ILE83       0.0019
     50  CG2       29.1040  -52.0620   -9.2720 C.3    83  ILE83       0.0019
     51  CD1       26.9050  -51.2470  -11.2160 C.3    83  ILE83       0.0001
     52  N         19.6480  -51.4480   -9.1040 N.3   151  THR151     -0.1218
     53  CA        20.5930  -50.6780   -9.9080 C.3   151  THR151      0.1862
     54  C         20.7140  -51.0870  -11.3710 C.2   151  THR151      0.2287
     55  O         20.8050  -50.2290  -12.2570 O.2   151  THR151     -0.2866
     56  CB        21.9900  -50.7560   -9.2750 C.3   151  THR151      0.1770
     57  OG1       21.8990  -50.3890   -7.8960 O.3   151  THR151     -0.2211
     58  CG2       22.9610  -49.8250   -9.9790 C.3   151  THR151      0.0375
     59  N         19.6210  -52.4290  -17.5890 N.3   155  TYR155     -0.1241
     60  CA        20.9900  -52.1360  -18.0380 C.3   155  TYR155      0.1605
     61  C         21.7840  -53.3730  -18.4360 C.2   155  TYR155      0.2264
     62  O         23.0150  -53.3390  -18.5150 O.2   155  TYR155     -0.2867
     63  CB        21.7290  -51.3380  -16.9680 C.3   155  TYR155      0.0534
     64  CG        20.9920  -50.0430  -16.7060 C.ar  155  TYR155     -0.0201
     65  CD1       20.9890  -49.0270  -17.6560 C.ar  155  TYR155     -0.0009
     66  CD2       20.2460  -49.8650  -15.5450 C.ar  155  TYR155     -0.0009
     67  CE1       20.2870  -47.8520  -17.4410 C.ar  155  TYR155      0.0417
     68  CE2       19.5430  -48.6940  -15.3200 C.ar  155  TYR155      0.0417
     69  CZ        19.5680  -47.6940  -16.2750 C.ar  155  TYR155      0.1957
     70  OH        18.8620  -46.5340  -16.0610 O.3   155  TYR155     -0.2866
     71  N         17.2380  -47.8160   -7.3660 N.3   181  GLU181     -0.1231
     72  CA        18.3270  -47.1400   -8.0610 C.3   181  GLU181      0.1699
     73  C         18.1690  -47.3610   -9.5580 C.2   181  GLU181      0.2592
     74  O         17.9710  -48.4960  -10.0100 O.2   181  GLU181     -0.2718
     75  CB        19.6820  -47.6860   -7.5770 C.3   181  GLU181      0.0402
     76  CG        20.8790  -46.9440   -8.1840 C.3   181  GLU181      0.1161
     77  CD        22.1550  -47.1190   -7.3810 C.2   181  GLU181      0.3649
     78  OE1       22.0860  -47.5850   -6.2300 O.co2 181  GLU181     -0.2457
     79  OE2       23.2320  -46.7670   -7.8970 O.co2 181  GLU181     -0.2457
     80  N         18.2410  -46.2800  -10.3280 N.am  182  GLY182     -0.1957
     81  CA        18.0210  -46.3510  -11.7600 C.3   182  GLY182      0.1869
     82  C         16.8050  -45.5510  -12.2070 C.2   182  GLY182      0.2309
     83  O         15.6680  -45.9970  -12.0520 O.2   182  GLY182     -0.2863
     84  N         18.4020  -44.2440   -4.4530 N.3   202  THR202     -0.1218
     85  CA        19.6490  -43.6200   -4.8930 C.3   202  THR202      0.1862
     86  C         19.3980  -42.7750   -6.1390 C.2   202  THR202      0.2287
     87  O         18.9210  -43.2830   -7.1550 O.2   202  THR202     -0.2866
     88  CB        20.7600  -44.6640   -5.1790 C.3   202  THR202      0.1770
     89  OG1       21.0690  -45.3860   -3.9770 O.3   202  THR202     -0.2211
     90  CG2       22.0200  -43.9680   -5.6870 C.3   202  THR202      0.0375
     91  N         24.9530  -34.9860  -12.5310 N.3   209  ARG209     -0.1245
     92  CA        25.3980  -35.0240  -13.9240 C.3   209  ARG209      0.1563
     93  C         24.8450  -33.8260  -14.6870 C.2   209  ARG209      0.2260
     94  O         23.8020  -33.9240  -15.3280 O.2   209  ARG209     -0.2867
     95  CB        25.0030  -36.3390  -14.6160 C.3   209  ARG209      0.0307
     96  CG        25.8380  -37.5380  -14.1990 C.3   209  ARG209      0.0489
     97  CD        25.6470  -38.6970  -15.1700 C.3   209  ARG209      0.2205
     98  NE        26.4760  -39.8500  -14.8260 N.pl3 209  ARG209     -0.0865
     99  CZ        25.9900  -41.0040  -14.3850 C.cat 209  ARG209      0.5346
    100  NH1       24.6800  -41.1540  -14.2460 N.pl3 209  ARG209      0.1354
    101  NH2       26.8090  -42.0070  -14.0930 N.pl3 209  ARG209      0.1354
@<TRIPOS>BOND
     1    62    61    2
     2    61    60    1
     3    60    59    1
     4    60    63    1
     5    65    67   ar
     6    65    64   ar
     7    67    69   ar
     8    63    64    1
     9    64    66   ar
    10    69    70    1
    11    69    68   ar
    12    66    68   ar
    13    43    42    1
    14    94    93    2
    15    97    98    1
    16    97    96    1
    17    42    41    1
    18    98    99    2
    19    93    92    1
    20    95    96    1
    21    95    92    1
    22    99   100    1
    23    99   101    1
    24    38    37    2
    25    40    41    1
    26    40    39    1
    27    92    91    1
    28    37    36    1
    29    39    36    1
    30    36    35    1
    31    44    45    1
    32    10     9    2
    33    55    54    2
    34    82    83    2
    35    82    81    1
    36     9     8    1
    37    81    80    1
    38    49    51    1
    39    49    48    1
    40    54    53    1
    41    45    48    1
    42    45    46    1
    43    14    13    2
    44    11     8    1
    45    11    12    1
    46    48    50    1
    47     8     7    1
    48    80    73   am
    49    46    47    2
    50    13    12    1
    51    13    15   am
    52    74    73    2
    53    58    56    1
    54    53    56    1
    55    53    52    1
    56    73    72    1
    57    56    57    1
    58    34    32    1
    59     6     5    1
    60    76    75    1
    61    76    77    1
    62    72    75    1
    63    72    71    1
    64    32    31    1
    65    79    77   ar
    66     4     3    2
    67    25    24    1
    68     5     2    1
    69    77    78   ar
    70    29    30    2
    71    29    28    1
    72    31    33    1
    73    31    28    1
    74    87    86    2
    75     3     2    1
    76    22    23    1
    77    22    21    1
    78    28    27    1
    79    24    23    2
    80    24    26    1
    81     2     1    1
    82    86    85    1
    83    21    20    1
    84    90    88    1
    85    19    18    2
    86    88    85    1
    87    88    89    1
    88    85    84    1
    89    20    17    1
    90    18    17    1
    91    17    16    1
