@<TRIPOS>MOLECULE
tmp/3q58A06.pdb
 74 68 0 0 0
SMALL
GASTEIGER

@<TRIPOS>ATOM
      1  N         29.9070   -4.8750  -32.2060 N.3     2  ASN2       -0.1225
      2  CA        30.1180   -6.1750  -31.5900 C.3     2  ASN2        0.1785
      3  C         28.8910   -6.6120  -30.8000 C.2     2  ASN2        0.2597
      4  O         28.6010   -7.8040  -30.6970 O.2     2  ASN2       -0.2718
      5  CB        31.3560   -6.1550  -30.6990 C.3     2  ASN2        0.1169
      6  CG        32.6390   -6.0440  -31.4950 C.2     2  ASN2        0.2627
      7  OD1       32.6160   -5.8040  -32.7030 O.2     2  ASN2       -0.2716
      8  ND2       33.7690   -6.2190  -30.8210 N.am    2  ASN2       -0.0877
      9  N         28.1660   -5.6420  -30.2470 N.am    3  ALA3       -0.1979
     10  CA        26.9570   -5.9510  -29.4910 C.3     3  ALA3        0.1597
     11  C         25.8430   -6.4860  -30.4000 C.2     3  ALA3        0.2287
     12  O         25.1860   -7.4790  -30.0660 O.2     3  ALA3       -0.2864
     13  CB        26.4840   -4.7360  -28.7080 C.3     3  ALA3        0.0319
     14  N         26.8070   -9.9150  -31.6460 N.3     5  LEU5       -0.1245
     15  CA        26.6460  -10.9070  -30.5910 C.3     5  LEU5        0.1561
     16  C         25.1730  -11.2720  -30.4120 C.2     5  LEU5        0.2260
     17  O         24.8330  -12.4380  -30.2570 O.2     5  LEU5       -0.2867
     18  CB        27.2460  -10.4250  -29.2670 C.3     5  LEU5        0.0270
     19  CG        27.3210  -11.5220  -28.1940 C.3     5  LEU5        0.0019
     20  CD1       28.4510  -11.2470  -27.2250 C.3     5  LEU5        0.0001
     21  CD2       26.0030  -11.6650  -27.4560 C.3     5  LEU5        0.0001
     22  N         35.8550  -16.9820  -17.7910 N.3    62  ARG62      -0.1245
     23  CA        35.9090  -16.3310  -19.1090 C.3    62  ARG62       0.1563
     24  C         36.8520  -16.9660  -20.1340 C.2    62  ARG62       0.2260
     25  O         36.4600  -17.1910  -21.2780 O.2    62  ARG62      -0.2867
     26  CB        36.2370  -14.8310  -18.9540 C.3    62  ARG62       0.0307
     27  CG        36.4000  -14.0610  -20.2660 C.3    62  ARG62       0.0489
     28  CD        35.0570  -13.7800  -20.9470 C.3    62  ARG62       0.2205
     29  NE        34.5130  -14.9530  -21.6370 N.pl3  62  ARG62      -0.0865
     30  CZ        33.3170  -14.9850  -22.2200 C.cat  62  ARG62       0.5346
     31  NH1       32.5310  -13.9100  -22.1890 N.pl3  62  ARG62       0.1354
     32  NH2       32.9020  -16.0910  -22.8260 N.pl3  62  ARG62       0.1354
     33  N         32.2700   -5.5050  -16.9740 N.3    95  ALA95      -0.1245
     34  CA        32.7320   -5.2830  -18.3350 C.3    95  ALA95       0.1562
     35  C         34.2190   -5.6250  -18.4600 C.2    95  ALA95       0.2260
     36  O         34.6440   -6.2730  -19.4190 O.2    95  ALA95      -0.2867
     37  CB        32.4790   -3.8460  -18.7460 C.3    95  ALA95       0.0290
     38  N         34.9840   -9.3980  -18.5190 N.3    98  GLY98      -0.1210
     39  CA        34.6390  -10.1240  -19.7250 C.3    98  GLY98       0.1956
     40  C         33.1770  -10.4800  -19.9130 C.2    98  GLY98       0.2612
     41  O         32.8550  -11.2700  -20.7950 O.2    98  GLY98      -0.2717
     42  N         32.2850   -9.9110  -19.1100 N.am   99  ALA99      -0.1965
     43  CA        30.8560  -10.1370  -19.3420 C.3    99  ALA99       0.1728
     44  C         30.4760   -9.6690  -20.7490 C.2    99  ALA99       0.2616
     45  O         30.9820   -8.6550  -21.2290 O.2    99  ALA99      -0.2715
     46  CB        30.0200   -9.4150  -18.2980 C.3    99  ALA99       0.0334
     47  N         29.5910  -10.4060  -21.4150 N.am  100  ASP100     -0.1971
     48  CA        29.1210  -10.0100  -22.7410 C.3   100  ASP100      0.1709
     49  C         27.8190   -9.2440  -22.5940 C.2   100  ASP100      0.2293
     50  O         27.5010   -8.3580  -23.3950 O.2   100  ASP100     -0.2864
     51  CB        28.8850  -11.2440  -23.6170 C.3   100  ASP100      0.1436
     52  CG        30.1400  -12.0590  -23.8080 C.2   100  ASP100      0.3671
     53  OD1       31.0380  -11.5950  -24.5410 O.co2 100  ASP100     -0.2456
     54  OD2       30.2320  -13.1480  -23.2100 O.co2 100  ASP100     -0.2456
     55  N         29.7260   -0.6260  -24.6230 N.3   126  GLY126     -0.1210
     56  CA        29.3430   -1.2870  -25.8580 C.3   126  GLY126      0.1956
     57  C         28.8320   -2.7010  -25.6490 C.2   126  GLY126      0.2612
     58  O         28.9460   -3.5430  -26.5330 O.2   126  GLY126     -0.2717
     59  N         28.2710   -2.9610  -24.4750 N.am  127  LEU127     -0.1965
     60  CA        27.7350   -4.2760  -24.1520 C.3   127  LEU127      0.1728
     61  C         26.2040   -4.2990  -24.2160 C.2   127  LEU127      0.2616
     62  O         25.5540   -3.2570  -24.2050 O.2   127  LEU127     -0.2715
     63  CB        28.2100   -4.7040  -22.7520 C.3   127  LEU127      0.0311
     64  CG        29.7320   -4.8050  -22.5600 C.3   127  LEU127      0.0022
     65  CD1       30.0890   -5.1610  -21.1300 C.3   127  LEU127      0.0001
     66  CD2       30.3220   -5.8380  -23.5260 C.3   127  LEU127      0.0001
     67  N         25.6420   -5.5030  -24.2680 N.am  128  LEU128     -0.1977
     68  CA        24.1940   -5.7040  -24.2050 C.3   128  LEU128      0.1596
     69  C         23.7240   -5.6580  -22.7660 C.2   128  LEU128      0.2287
     70  O         24.4750   -5.9720  -21.8480 O.2   128  LEU128     -0.2864
     71  CB        23.8140   -7.0670  -24.8030 C.3   128  LEU128      0.0297
     72  CG        24.1170   -7.2330  -26.2910 C.3   128  LEU128      0.0022
     73  CD1       24.0220   -8.6990  -26.6900 C.3   128  LEU128      0.0001
     74  CD2       23.1660   -6.3870  -27.1110 C.3   128  LEU128      0.0001
@<TRIPOS>BOND
     1     7     6    2
     2     1     2    1
     3    14    15    1
     4     2     3    1
     5     2     5    1
     6     6     8   am
     7     6     5    1
     8     3     4    2
     9     3     9   am
    10    15    16    1
    11    15    18    1
    12    16    17    2
    13    11    12    2
    14    11    10    1
    15     9    10    1
    16    10    13    1
    17    18    19    1
    18    19    21    1
    19    19    20    1
    20    74    72    1
    21    73    72    1
    22    58    57    2
    23    72    71    1
    24    56    57    1
    25    56    55    1
    26    57    59   am
    27    71    68    1
    28    53    52   ar
    29    59    60    1
    30    67    61   am
    31    67    68    1
    32    61    62    2
    33    61    60    1
    34    68    69    1
    35    60    63    1
    36    52    51    1
    37    52    54   ar
    38    51    48    1
    39    66    64    1
    40    50    49    2
    41    32    30    1
    42    69    70    2
    43    63    64    1
    44    48    49    1
    45    48    47    1
    46    64    65    1
    47    30    31    1
    48    30    29    2
    49    29    28    1
    50    47    44   am
    51    25    24    2
    52    45    44    2
    53    28    27    1
    54    41    40    2
    55    44    43    1
    56    27    26    1
    57    24    23    1
    58    40    39    1
    59    40    42   am
    60    39    38    1
    61    36    35    2
    62    43    42    1
    63    43    46    1
    64    23    26    1
    65    23    22    1
    66    37    34    1
    67    35    34    1
    68    34    33    1
