@<TRIPOS>MOLECULE
tmp/3q58A01.pdb
 85 82 0 0 0
SMALL
GASTEIGER

@<TRIPOS>ATOM
      1  N         10.1490  -12.0570   -5.7040 N.3   156  TYR156     -0.1241
      2  CA        11.2440  -11.7970   -4.7680 C.3   156  TYR156      0.1605
      3  C         11.2720  -10.3590   -4.2520 C.2   156  TYR156      0.2264
      4  O         12.2420   -9.9500   -3.6190 O.2   156  TYR156     -0.2867
      5  CB        12.5820  -12.1690   -5.4030 C.3   156  TYR156      0.0534
      6  CG        12.5350  -13.5890   -5.8820 C.ar  156  TYR156     -0.0201
      7  CD1       12.5440  -14.6340   -4.9670 C.ar  156  TYR156     -0.0009
      8  CD2       12.4050  -13.8910   -7.2310 C.ar  156  TYR156     -0.0009
      9  CE1       12.4540  -15.9430   -5.3810 C.ar  156  TYR156      0.0417
     10  CE2       12.3210  -15.2090   -7.6590 C.ar  156  TYR156      0.0417
     11  CZ        12.3470  -16.2260   -6.7240 C.ar  156  TYR156      0.1957
     12  OH        12.2520  -17.5310   -7.1170 O.3   156  TYR156     -0.2866
     13  N          7.0490  -15.6810   -2.0430 N.3   161  THR161     -0.1218
     14  CA         7.4150  -16.2480   -3.3300 C.3   161  THR161      0.1862
     15  C          6.4370  -17.3600   -3.6670 C.2   161  THR161      0.2287
     16  O          6.3040  -18.3150   -2.9080 O.2   161  THR161     -0.2866
     17  CB         8.8350  -16.8400   -3.3120 C.3   161  THR161      0.1770
     18  OG1        9.7660  -15.8610   -2.8400 O.3   161  THR161     -0.2211
     19  CG2        9.2390  -17.2790   -4.7070 C.3   161  THR161      0.0375
     20  N         13.5010  -17.7360  -12.9160 N.3   183  GLY183     -0.1210
     21  CA        12.9530  -17.8430  -11.5800 C.3   183  GLY183      0.1956
     22  C         11.9940  -19.0170  -11.4650 C.2   183  GLY183      0.2612
     23  O         10.8840  -18.9690  -11.9990 O.2   183  GLY183     -0.2717
     24  N         12.4360  -20.0670  -10.7680 N.am  184  ARG184     -0.1965
     25  CA        11.6100  -21.2510  -10.4730 C.3   184  ARG184      0.1729
     26  C         11.2680  -22.1530  -11.6620 C.2   184  ARG184      0.2616
     27  O         10.3370  -22.9700  -11.5860 O.2   184  ARG184     -0.2715
     28  CB        10.3410  -20.8470   -9.7150 C.3   184  ARG184      0.0348
     29  CG        10.6370  -19.8870   -8.5710 C.3   184  ARG184      0.0492
     30  CD         9.4330  -19.6060   -7.7050 C.3   184  ARG184      0.2205
     31  NE         8.3790  -18.8680   -8.3940 N.pl3 184  ARG184     -0.0865
     32  CZ         8.3680  -17.5470   -8.5510 C.cat 184  ARG184      0.5346
     33  NH1        9.3760  -16.8030   -8.0900 N.pl3 184  ARG184      0.1354
     34  NH2        7.3480  -16.9710   -9.1780 N.pl3 184  ARG184      0.1354
     35  N         12.0210  -22.0270  -12.7510 N.am  185  TYR185     -0.1960
     36  CA        11.8760  -22.9600  -13.8650 C.3   185  TYR185      0.1771
     37  C         12.7100  -24.2170  -13.6010 C.2   185  TYR185      0.2619
     38  O         13.7100  -24.4730  -14.2610 O.2   185  TYR185     -0.2715
     39  CB        12.2180  -22.2940  -15.2080 C.3   185  TYR185      0.0574
     40  CG        11.1800  -21.2530  -15.5500 C.ar  185  TYR185     -0.0198
     41  CD1        9.9430  -21.6320  -16.0550 C.ar  185  TYR185     -0.0009
     42  CD2       11.4080  -19.9030  -15.3030 C.ar  185  TYR185     -0.0009
     43  CE1        8.9690  -20.7040  -16.3360 C.ar  185  TYR185      0.0417
     44  CE2       10.4300  -18.9600  -15.5800 C.ar  185  TYR185      0.0417
     45  CZ         9.2170  -19.3700  -16.0980 C.ar  185  TYR185      0.1957
     46  OH         8.2370  -18.4450  -16.3770 O.3   185  TYR185     -0.2866
     47  N         12.2800  -24.9890  -12.6120 N.am  186  ASN186     -0.1972
     48  CA        13.1070  -26.0640  -12.0780 C.3   186  ASN186      0.1688
     49  C         12.7050  -27.4790  -12.5310 C.2   186  ASN186      0.2292
     50  O         13.2100  -28.4760  -12.0080 O.2   186  ASN186     -0.2864
     51  CB        13.2040  -25.9430  -10.5520 C.3   186  ASN186      0.1181
     52  CG        14.1320  -24.8110  -10.1200 C.2   186  ASN186      0.2629
     53  OD1       15.1990  -24.6060  -10.7170 O.2   186  ASN186     -0.2716
     54  ND2       13.7300  -24.0660   -9.0960 N.am  186  ASN186     -0.0877
     55  N         18.4820  -22.2670  -12.9940 N.3   205  GLY205     -0.1210
     56  CA        19.5490  -22.1450  -12.0220 C.3   205  GLY205      0.1956
     57  C         19.6440  -23.3380  -11.0890 C.2   205  GLY205      0.2612
     58  O         20.3980  -24.2740  -11.3410 O.2   205  GLY205     -0.2717
     59  N         18.8660  -23.3020  -10.0150 N.am  206  SER206     -0.1952
     60  CA        18.9460  -24.3060   -8.9530 C.3   206  SER206      0.1924
     61  C         18.9170  -25.7630   -9.4310 C.2   206  SER206      0.2314
     62  O         19.7170  -26.5800   -8.9830 O.2   206  SER206     -0.2863
     63  CB        17.8320  -24.0790   -7.9300 C.3   206  SER206      0.2116
     64  OG        17.9260  -22.7720   -7.3920 O.3   206  SER206     -0.2180
     65  N         22.6310  -26.0090   -8.1980 N.3   210  ARG210     -0.1245
     66  CA        22.5800  -25.9510   -6.7360 C.3   210  ARG210      0.1563
     67  C         22.2790  -27.3140   -6.1310 C.2   210  ARG210      0.2260
     68  O         21.1270  -27.6410   -5.8540 O.2   210  ARG210     -0.2867
     69  CB        21.5620  -24.9100   -6.2410 C.3   210  ARG210      0.0307
     70  CG        22.0820  -23.4740   -6.2610 C.3   210  ARG210      0.0489
     71  CD        21.1180  -22.5120   -5.5600 C.3   210  ARG210      0.2205
     72  NE        21.5830  -21.1250   -5.6360 N.pl3 210  ARG210     -0.0865
     73  CZ        20.8720  -20.1240   -6.1420 C.cat 210  ARG210      0.5346
     74  NH1       19.6520  -20.3430   -6.6110 N.pl3 210  ARG210      0.1354
     75  NH2       21.3790  -18.8980   -6.1740 N.pl3 210  ARG210      0.1354
     76  N         19.9740  -27.6180   -3.0240 N.3   213  HIS213     -0.1241
     77  CA        18.5540  -27.4210   -3.2840 C.3   213  HIS213      0.1621
     78  C         17.9110  -28.6370   -3.9480 C.2   213  HIS213      0.2264
     79  O         16.7970  -29.0210   -3.5920 O.2   213  HIS213     -0.2867
     80  CB        18.3240  -26.1630   -4.1300 C.3   213  HIS213      0.0745
     81  CG        18.5260  -24.8940   -3.3660 C.ar  213  HIS213      0.0817
     82  ND1       18.0860  -23.6680   -3.8200 N.ar  213  HIS213     -0.2268
     83  CD2       19.1130  -24.6610   -2.1680 C.ar  213  HIS213      0.1154
     84  CE1       18.4010  -22.7360   -2.9360 C.ar  213  HIS213      0.1986
     85  NE2       19.0250  -23.3140   -1.9230 N.ar  213  HIS213     -0.2212
@<TRIPOS>BOND
     1    46    45    1
     2    43    45   ar
     3    43    41   ar
     4    45    44   ar
     5    41    40   ar
     6    44    42   ar
     7    40    42   ar
     8    40    39    1
     9    39    36    1
    10    38    37    2
    11    36    37    1
    12    36    35    1
    13    37    47   am
    14    55    56    1
    15    20    21    1
    16    35    26   am
    17    47    48    1
    18    49    48    1
    19    49    50    2
    20    48    51    1
    21    56    57    1
    22    23    22    2
    23    26    27    2
    24    26    25    1
    25    21    22    1
    26    22    24   am
    27    58    57    2
    28    57    59   am
    29    24    25    1
    30    53    52    2
    31    51    52    1
    32    25    28    1
    33    52    54   am
    34    59    60    1
    35    28    29    1
    36    61    62    2
    37    61    60    1
    38    34    32    1
    39    60    63    1
    40    29    30    1
    41    32    31    2
    42    32    33    1
    43    31    30    1
    44    65    66    1
    45    63    64    1
    46    10     8   ar
    47    10    11   ar
    48     8     6   ar
    49    12    11    1
    50    66    69    1
    51    66    67    1
    52    11     9   ar
    53    74    73    1
    54    70    69    1
    55    70    71    1
    56    75    73    1
    57    73    72    2
    58    67    68    2
    59     6     5    1
    60     6     7   ar
    61     1     2    1
    62    72    71    1
    63     5     2    1
    64     9     7   ar
    65     2     3    1
    66    19    17    1
    67     3     4    2
    68    80    81    1
    69    80    77    1
    70    78    79    2
    71    78    77    1
    72    82    81   ar
    73    82    84   ar
    74    15    14    1
    75    15    16    2
    76    81    83   ar
    77    14    17    1
    78    14    13    1
    79    17    18    1
    80    77    76    1
    81    84    85   ar
    82    83    85   ar
