@<TRIPOS>MOLECULE
tmp/3q5eA00.pdb
 196 193 0 0 0
SMALL
GASTEIGER

@<TRIPOS>ATOM
      1  N        -11.0660   23.8240  -13.2010 N.3    46  ALA46      -0.1231
      2  CA       -11.2420   25.2280  -13.5070 C.3    46  ALA46       0.1694
      3  C        -10.2730   25.6510  -14.6010 C.2    46  ALA46       0.2592
      4  O         -9.2960   24.9600  -14.8600 O.2    46  ALA46      -0.2718
      5  CB       -11.0290   26.0520  -12.2600 C.3    46  ALA46       0.0304
      6  N        -10.5440   26.7770  -15.2490 N.am   47  PHE47      -0.1962
      7  CA        -9.5850   27.3340  -16.1890 C.3    47  PHE47       0.1771
      8  C         -8.4090   27.8640  -15.4190 C.2    47  PHE47       0.2619
      9  O         -8.5540   28.2550  -14.2620 O.2    47  PHE47      -0.2715
     10  CB       -10.1860   28.4740  -16.9930 C.3    47  PHE47       0.0574
     11  CG       -10.9590   28.0220  -18.1850 C.ar   47  PHE47      -0.0200
     12  CD1      -12.3090   28.2960  -18.2680 C.ar   47  PHE47      -0.0042
     13  CD2      -10.3480   27.3010  -19.2110 C.ar   47  PHE47      -0.0042
     14  CE1      -13.0490   27.8770  -19.3690 C.ar   47  PHE47      -0.0003
     15  CE2      -11.0630   26.8790  -20.2840 C.ar   47  PHE47      -0.0003
     16  CZ       -12.4220   27.1650  -20.3780 C.ar   47  PHE47      -0.0000
     17  N         -7.2520   27.8930  -16.0760 N.am   48  ARG48      -0.1963
     18  CA        -6.0530   28.4930  -15.5130 C.3    48  ARG48       0.1729
     19  C         -5.6780   27.8730  -14.1700 C.2    48  ARG48       0.2616
     20  O         -5.4900   28.5750  -13.1840 O.2    48  ARG48      -0.2715
     21  CB        -6.2520   30.0090  -15.3570 C.3    48  ARG48       0.0348
     22  CG        -5.4330   30.8840  -16.3090 C.3    48  ARG48       0.0492
     23  CD        -5.3020   32.3080  -15.7540 C.3    48  ARG48       0.2205
     24  NE        -4.4680   33.1860  -16.5740 N.pl3  48  ARG48      -0.0865
     25  CZ        -4.7500   34.4640  -16.8190 C.cat  48  ARG48       0.5346
     26  NH1       -5.8470   35.0140  -16.3100 N.pl3  48  ARG48       0.1354
     27  NH2       -3.9420   35.1930  -17.5750 N.pl3  48  ARG48       0.1354
     28  N         -5.5680   26.5520  -14.1360 N.am   49  LYS49      -0.1963
     29  CA        -5.2140   25.8400  -12.9040 C.3    49  LYS49       0.1728
     30  C         -4.0750   24.8450  -13.1160 C.2    49  LYS49       0.2617
     31  O         -3.7580   24.0620  -12.2370 O.2    49  LYS49      -0.2715
     32  CB        -6.4340   25.1220  -12.3210 C.3    49  LYS49       0.0311
     33  CG        -7.0370   25.8120  -11.1120 C.3    49  LYS49       0.0038
     34  CD        -7.4690   27.2280  -11.4470 C.3    49  LYS49       0.0206
     35  CE        -7.1980   28.1900  -10.2920 C.3    49  LYS49       0.1093
     36  NZ        -8.1270   27.9880   -9.1410 N.3    49  LYS49      -0.1314
     37  N         -3.4720   24.8840  -14.2950 N.am   50  GLY50      -0.1940
     38  CA        -2.3060   24.0780  -14.5830 C.3    50  GLY50       0.2014
     39  C         -2.6170   22.7320  -15.2060 C.2    50  GLY50       0.2639
     40  O         -1.8020   21.8150  -15.1480 O.2    50  GLY50      -0.2714
     41  N         -3.7940   22.6050  -15.8090 N.am   51  LYS51      -0.1963
     42  CA        -4.1600   21.3590  -16.4590 C.3    51  LYS51       0.1728
     43  C         -3.2590   21.0420  -17.6490 C.2    51  LYS51       0.2617
     44  O         -2.5340   20.0520  -17.6210 O.2    51  LYS51      -0.2715
     45  CB        -5.6230   21.3600  -16.8770 C.3    51  LYS51       0.0311
     46  CG        -6.5840   21.2250  -15.7290 C.3    51  LYS51       0.0038
     47  CD        -7.8290   20.4960  -16.1860 C.3    51  LYS51       0.0206
     48  CE        -8.2950   21.0100  -17.5330 C.3    51  LYS51       0.1093
     49  NZ        -8.8160   22.3950  -17.4050 N.3    51  LYS51      -0.1314
     50  N         -3.2980   21.8640  -18.6940 N.am   52  SER52      -0.1936
     51  CA        -2.4580   21.5920  -19.8550 C.3    52  SER52       0.2055
     52  C         -1.0260   21.3560  -19.4120 C.2    52  SER52       0.2643
     53  O         -0.3760   20.4150  -19.8590 O.2    52  SER52      -0.2714
     54  CB        -2.5160   22.7240  -20.8750 C.3    52  SER52       0.2130
     55  OG        -3.1870   23.8480  -20.3350 O.3    52  SER52      -0.2179
     56  N         -0.5390   22.1970  -18.5090 N.am   53  PHE53      -0.1973
     57  CA         0.8450   22.0900  -18.0850 C.3    53  PHE53       0.1639
     58  C          1.1510   20.6670  -17.6820 C.2    53  PHE53       0.2290
     59  O          2.0800   20.0580  -18.1910 O.2    53  PHE53      -0.2864
     60  CB         1.1430   23.0270  -16.9260 C.3    53  PHE53       0.0560
     61  CG         2.5960   23.0980  -16.5880 C.ar   53  PHE53      -0.0200
     62  CD1        3.4950   23.6270  -17.4900 C.ar   53  PHE53      -0.0042
     63  CD2        3.0650   22.6170  -15.3840 C.ar   53  PHE53      -0.0042
     64  CE1        4.8350   23.6830  -17.1920 C.ar   53  PHE53      -0.0003
     65  CE2        4.3930   22.6710  -15.0760 C.ar   53  PHE53      -0.0003
     66  CZ         5.2860   23.2050  -15.9800 C.ar   53  PHE53      -0.0000
     67  N         -1.7590   22.9330  -25.0220 N.3    84  ARG84      -0.1245
     68  CA        -2.0740   24.3550  -25.0370 C.3    84  ARG84       0.1563
     69  C         -2.2010   24.8820  -26.4660 C.2    84  ARG84       0.2260
     70  O         -2.9610   25.8130  -26.7060 O.2    84  ARG84      -0.2867
     71  CB        -1.1080   25.1850  -24.1490 C.3    84  ARG84       0.0307
     72  CG         0.4190   25.0380  -24.4020 C.3    84  ARG84       0.0489
     73  CD         0.9590   23.5670  -24.3070 C.3    84  ARG84       0.2205
     74  NE         0.4060   22.6660  -23.2710 N.pl3  84  ARG84      -0.0865
     75  CZ         0.5610   21.3340  -23.2840 C.cat  84  ARG84       0.5346
     76  NH1        1.2750   20.7470  -24.2340 N.pl3  84  ARG84       0.1354
     77  NH2        0.0210   20.5800  -22.3410 N.pl3  84  ARG84       0.1354
     78  N         -5.8020   29.9830  -25.1390 N.3    88  GLU88      -0.1245
     79  CA        -7.2400   30.1550  -24.9730 C.3    88  GLU88       0.1567
     80  C         -7.6510   31.6280  -24.8030 C.2    88  GLU88       0.2260
     81  O         -7.0680   32.3340  -23.9800 O.2    88  GLU88      -0.2867
     82  CB        -7.7330   29.2980  -23.7960 C.3    88  GLU88       0.0388
     83  CG        -6.6790   28.9350  -22.7510 C.3    88  GLU88       0.1160
     84  CD        -6.1120   27.5330  -22.9430 C.2    88  GLU88       0.3649
     85  OE1       -6.4480   26.8810  -23.9560 O.co2  88  GLU88      -0.2457
     86  OE2       -5.3310   27.0810  -22.0760 O.co2  88  GLU88      -0.2457
     87  N         -9.0710   16.1560  -22.1120 N.3   117  ASP117     -0.1239
     88  CA        -8.9000   17.3870  -21.3660 C.3   117  ASP117      0.1674
     89  C        -10.2560   18.0490  -21.2400 C.2   117  ASP117      0.2266
     90  O        -10.9200   18.2970  -22.2390 O.2   117  ASP117     -0.2867
     91  CB        -7.9370   18.3120  -22.0870 C.3   117  ASP117      0.1410
     92  CG        -7.9490   19.6920  -21.5200 C.2   117  ASP117      0.3668
     93  OD1       -6.8950   20.1510  -21.0460 O.co2 117  ASP117     -0.2456
     94  OD2       -9.0200   20.3190  -21.5450 O.co2 117  ASP117     -0.2456
     95  N        -12.2510   21.2980  -19.9260 N.3   119  GLN119     -0.1245
     96  CA       -12.1970   22.6870  -19.4810 C.3   119  GLN119      0.1566
     97  C        -13.5830   23.2540  -19.2590 C.2   119  GLN119      0.2260
     98  O        -14.4770   23.0810  -20.0760 O.2   119  GLN119     -0.2867
     99  CB       -11.4640   23.5630  -20.4940 C.3   119  GLN119      0.0367
    100  CG        -9.9910   23.2800  -20.6080 C.3   119  GLN119      0.0905
    101  CD        -9.1650   24.5480  -20.7230 C.2   119  GLN119      0.2608
    102  OE1       -8.3700   24.8680  -19.8400 O.2   119  GLN119     -0.2717
    103  NE2       -9.3440   25.2720  -21.8240 N.am  119  GLN119     -0.0878
    104  N         -3.3580   20.7750   -6.3280 N.3   188  ARG188     -0.1231
    105  CA        -2.2730   21.3990   -7.1070 C.3   188  ARG188      0.1694
    106  C         -1.0860   22.1100   -6.4250 C.2   188  ARG188      0.2592
    107  O          0.0600   21.8780   -6.8160 O.2   188  ARG188     -0.2718
    108  CB        -2.8540   22.3160   -8.1860 C.3   188  ARG188      0.0321
    109  CG        -3.1590   21.5900   -9.4570 C.3   188  ARG188      0.0489
    110  CD        -2.0580   20.6100   -9.7450 C.3   188  ARG188      0.2205
    111  NE        -1.0550   21.1730  -10.6280 N.pl3 188  ARG188     -0.0865
    112  CZ        -1.1570   21.1540  -11.9500 C.cat 188  ARG188      0.5346
    113  NH1       -2.2200   20.6010  -12.5200 N.pl3 188  ARG188      0.1354
    114  NH2       -0.2030   21.6920  -12.7020 N.pl3 188  ARG188      0.1354
    115  N         -1.3290   23.0060   -5.4730 N.am  189  ASP189     -0.1974
    116  CA        -0.1980   23.6550   -4.7960 C.3   189  ASP189      0.1709
    117  C         -0.2820   23.4040   -3.3080 C.2   189  ASP189      0.2293
    118  O         -0.6180   24.2950   -2.5320 O.2   189  ASP189     -0.2864
    119  CB        -0.1070   25.1640   -5.0600 C.3   189  ASP189      0.1436
    120  CG         0.1170   25.5020   -6.5250 C.2   189  ASP189      0.3671
    121  OD1        0.9450   24.8380   -7.1660 O.co2 189  ASP189     -0.2456
    122  OD2       -0.5420   26.4440   -7.0370 O.co2 189  ASP189     -0.2456
    123  N          3.9230   23.2200   -5.2400 N.3   242  HIS242     -0.1227
    124  CA         4.0360   24.4240   -6.1030 C.3   242  HIS242      0.1737
    125  C          5.1930   24.3000   -7.0960 C.2   242  HIS242      0.2438
    126  O          6.2970   23.9160   -6.7260 O.2   242  HIS242     -0.2733
    127  CB         4.2480   25.6640   -5.2160 C.3   242  HIS242      0.0758
    128  CG         3.8720   26.9750   -5.8570 C.ar  242  HIS242      0.0818
    129  ND1        4.4220   27.4270   -7.0320 N.ar  242  HIS242     -0.2268
    130  CD2        3.0450   27.9660   -5.4210 C.ar  242  HIS242      0.1154
    131  CE1        3.9220   28.6220   -7.3220 C.ar  242  HIS242      0.1986
    132  NE2        3.0800   28.9640   -6.3700 N.ar  242  HIS242     -0.2212
    133  N          4.9440   24.6260   -8.3680 N.am  243  PRO243     -0.2729
    134  CA         5.9470   24.5480   -9.4440 C.3   243  PRO243      0.1401
    135  C          7.1280   25.4680   -9.2310 C.2   243  PRO243      0.2269
    136  O          8.0870   25.3790   -9.9840 O.2   243  PRO243     -0.2865
    137  CB         5.1990   25.0450  -10.6790 C.3   243  PRO243      0.0296
    138  CG         3.7620   25.0460  -10.3160 C.3   243  PRO243      0.0237
    139  CD         3.6290   25.0810   -8.8380 C.3   243  PRO243      0.0939
    140  N          7.1410   29.5510  -12.8810 N.3   247  VAL247     -0.1231
    141  CA         6.0310   28.8930  -13.5660 C.3   247  VAL247      0.1692
    142  C          4.6450   29.5170  -13.2670 C.2   247  VAL247      0.2591
    143  O          3.7940   29.6160  -14.1530 O.2   247  VAL247     -0.2718
    144  CB         6.0340   27.3630  -13.2960 C.3   247  VAL247      0.0266
    145  CG1        5.5860   26.6160  -14.5240 C.3   247  VAL247      0.0020
    146  CG2        7.4270   26.9060  -12.9140 C.3   247  VAL247      0.0020
    147  N          4.4400   29.9620  -12.0300 N.am  248  ALA248     -0.1980
    148  CA         3.1300   30.4300  -11.5700 C.3   248  ALA248      0.1597
    149  C          2.7660   31.8400  -12.0230 C.2   248  ALA248      0.2287
    150  O          1.5890   32.1700  -12.1660 O.2   248  ALA248     -0.2864
    151  CB         3.0380   30.3440  -10.0510 C.3   248  ALA248      0.0319
    152  N          3.7140   33.3760  -14.7690 N.3   250  ASN250     -0.1226
    153  CA         3.9460   33.5070  -16.1930 C.3   250  ASN250      0.1770
    154  C          2.9560   32.6380  -16.9520 C.2   250  ASN250      0.2439
    155  O          2.6310   31.5490  -16.5120 O.2   250  ASN250     -0.2733
    156  CB         5.3860   33.1030  -16.5130 C.3   250  ASN250      0.1168
    157  CG         5.6800   33.0900  -17.9990 C.2   250  ASN250      0.2627
    158  OD1        6.6070   33.7480  -18.4630 O.2   250  ASN250     -0.2716
    159  ND2        4.9000   32.3340  -18.7510 N.am  250  ASN250     -0.0877
    160  N          2.4520   33.1410  -18.0840 N.am  251  PRO251     -0.2718
    161  CA         1.5530   32.4220  -18.9920 C.3   251  PRO251      0.1535
    162  C          2.3400   31.8530  -20.1590 C.2   251  PRO251      0.2599
    163  O          3.2100   32.5360  -20.7020 O.2   251  PRO251     -0.2715
    164  CB         0.6420   33.5280  -19.4940 C.3   251  PRO251      0.0310
    165  CG         1.5510   34.7330  -19.5470 C.3   251  PRO251      0.0237
    166  CD         2.5590   34.5710  -18.4350 C.3   251  PRO251      0.0939
    167  N          2.0440   30.6180  -20.5430 N.am  252  ASN252     -0.1959
    168  CA         2.8590   29.9320  -21.5360 C.3   252  ASN252      0.1819
    169  C          4.3300   29.9620  -21.1130 C.2   252  ASN252      0.2621
    170  O          5.1550   30.6200  -21.7470 O.2   252  ASN252     -0.2715
    171  CB         2.6790   30.5640  -22.9180 C.3   252  ASN252      0.1195
    172  CG         1.2260   30.8930  -23.2300 C.2   252  ASN252      0.2630
    173  OD1        0.9360   31.8870  -23.9000 O.2   252  ASN252     -0.2716
    174  ND2        0.3060   30.0640  -22.7420 N.am  252  ASN252     -0.0877
    175  N          4.6420   29.2500  -20.0310 N.am  253  PHE253     -0.1974
    176  CA         5.9900   29.2310  -19.4670 C.3   253  PHE253      0.1639
    177  C          6.9950   28.6480  -20.4420 C.2   253  PHE253      0.2290
    178  O          6.8700   27.5040  -20.8640 O.2   253  PHE253     -0.2864
    179  CB         6.0060   28.4340  -18.1600 C.3   253  PHE253      0.0560
    180  CG         7.3700   27.9190  -17.7670 C.ar  253  PHE253     -0.0200
    181  CD1        7.8290   26.7060  -18.2460 C.ar  253  PHE253     -0.0042
    182  CD2        8.1730   28.6350  -16.9040 C.ar  253  PHE253     -0.0042
    183  CE1        9.0630   26.2210  -17.8890 C.ar  253  PHE253     -0.0003
    184  CE2        9.4110   28.1530  -16.5420 C.ar  253  PHE253     -0.0003
    185  CZ         9.8540   26.9400  -17.0350 C.ar  253  PHE253     -0.0000
    186  N          8.6900   19.9130   -6.9560 N.3   264  PHE264     -0.1241
    187  CA         7.6260   19.7610   -7.9250 C.3   264  PHE264      0.1605
    188  C          8.0220   18.7150   -8.9600 C.2   264  PHE264      0.2264
    189  O          7.2170   17.8800   -9.3300 O.2   264  PHE264     -0.2867
    190  CB         7.2980   21.0790   -8.6020 C.3   264  PHE264      0.0534
    191  CG         6.2850   20.9540   -9.6900 C.ar  264  PHE264     -0.0203
    192  CD1        4.9470   21.0930   -9.4130 C.ar  264  PHE264     -0.0042
    193  CD2        6.6720   20.6980  -10.9910 C.ar  264  PHE264     -0.0042
    194  CE1        4.0080   20.9790  -10.4140 C.ar  264  PHE264     -0.0003
    195  CE2        5.7410   20.5870  -11.9950 C.ar  264  PHE264     -0.0003
    196  CZ         4.4060   20.7270  -11.7070 C.ar  264  PHE264     -0.0000
@<TRIPOS>BOND
     1    70    69    2
     2    69    68    1
     3    78    79    1
     4    68    67    1
     5    68    71    1
     6    79    80    1
     7    79    82    1
     8    80    81    2
     9    72    73    1
    10    72    71    1
    11    73    74    1
    12    76    75    1
    13    85    84   ar
    14   173   172    2
    15    82    83    1
    16    75    74    2
    17    75    77    1
    18   172   171    1
    19   172   174   am
    20    84    83    1
    21    84    86   ar
    22   171   168    1
    23    90    89    2
    24    87    88    1
    25    91    92    1
    26    91    88    1
    27   103   101   am
    28   170   169    2
    29    94    92   ar
    30   168   169    1
    31   168   167    1
    32    92    93   ar
    33    88    89    1
    34   169   175   am
    35    54    55    1
    36    54    51    1
    37   178   177    2
    38   101   100    1
    39   101   102    2
    40   163   162    2
    41   100    99    1
    42   167   162   am
    43    99    96    1
    44   177   176    1
    45    16    15   ar
    46    16    14   ar
    47    15    13   ar
    48   162   161    1
    49    98    97    2
    50   175   176    1
    51    95    96    1
    52    53    52    2
    53    51    52    1
    54    51    50    1
    55   165   164    1
    56   165   166    1
    57   164   161    1
    58    96    97    1
    59   176   179    1
    60    52    56   am
    61    14    12   ar
    62    13    11   ar
    63   161   160    1
    64   159   157   am
    65    50    43   am
    66    56    57    1
    67   158   157    2
    68   166   160    1
    69    12    11   ar
    70   181   183   ar
    71   181   180   ar
    72    59    58    2
    73    11    10    1
    74   179   180    1
    75    57    58    1
    76    57    60    1
    77   160   154   am
    78   157   156    1
    79   183   185   ar
    80   180   182   ar
    81    43    44    2
    82    43    42    1
    83    27    25    1
    84    48    49    1
    85    48    47    1
    86    62    64   ar
    87    62    61   ar
    88    64    66   ar
    89   185   184   ar
    90    10     7    1
    91   154   155    2
    92   154   153    1
    93    60    61    1
    94   182   184   ar
    95    45    42    1
    96    45    46    1
    97    25    24    2
    98    25    26    1
    99    61    63   ar
   100    24    23    1
   101   156   153    1
   102    42    41    1
   103    22    23    1
   104    22    21    1
   105   153   152    1
   106     7     8    1
   107     7     6    1
   108    47    46    1
   109    17    18    1
   110    17     8   am
   111    66    65   ar
   112    41    39   am
   113    18    21    1
   114    18    19    1
   115     8     9    2
   116    63    65   ar
   117     6     3   am
   118    39    40    2
   119    39    38    1
   120     4     3    2
   121     3     2    1
   122    38    37    1
   123   145   144    1
   124    37    30   am
   125    19    28   am
   126    19    20    2
   127   143   142    2
   128    28    29    1
   129   141   144    1
   130   141   142    1
   131   141   140    1
   132     2     1    1
   133     2     5    1
   134   144   146    1
   135   142   147   am
   136    30    29    1
   137    30    31    2
   138    29    32    1
   139   114   112    1
   140   113   112    1
   141    32    33    1
   142   150   149    2
   143   147   148    1
   144   149   148    1
   145   195   196   ar
   146   195   193   ar
   147   112   111    2
   148   196   194   ar
   149   148   151    1
   150    34    33    1
   151    34    35    1
   152   193   191   ar
   153   137   138    1
   154   137   134    1
   155   111   110    1
   156   194   192   ar
   157   138   139    1
   158    35    36    1
   159   136   135    2
   160   110   109    1
   161   191   192   ar
   162   191   190    1
   163   109   108    1
   164   134   135    1
   165   134   133    1
   166   189   188    2
   167   188   187    1
   168   139   133    1
   169   190   187    1
   170   133   125   am
   171   108   105    1
   172   187   186    1
   173   131   129   ar
   174   131   132   ar
   175   121   120   ar
   176   105   106    1
   177   105   104    1
   178   125   126    2
   179   125   124    1
   180   122   120   ar
   181   129   128   ar
   182   107   106    2
   183   120   119    1
   184   106   115   am
   185   132   130   ar
   186   124   123    1
   187   124   127    1
   188   128   130   ar
   189   128   127    1
   190   115   116    1
   191   119   116    1
   192   116   117    1
   193   117   118    2
