@<TRIPOS>MOLECULE
tmp/3q5hB00.pdb
 212 205 0 0 0
SMALL
GASTEIGER

@<TRIPOS>ATOM
      1  N         41.0730  -27.2210  -18.5040 N.3    16  THR16      -0.1203
      2  CA        40.0850  -26.7110  -19.4620 C.3    16  THR16       0.1994
      3  C         40.6380  -26.2170  -20.7910 C.2    16  THR16       0.2618
      4  O         39.8690  -26.1650  -21.7600 O.2    16  THR16      -0.2717
      5  CB        39.1370  -25.6300  -18.8590 C.3    16  THR16       0.1784
      6  OG1       39.9050  -24.4960  -18.4770 O.3    16  THR16      -0.2211
      7  CG2       38.3410  -26.1410  -17.6770 C.3    16  THR16       0.0376
      8  N         41.9270  -25.8380  -20.8270 N.am   17  GLN17      -0.1965
      9  CA        42.6190  -25.3380  -22.0280 C.3    17  GLN17       0.1733
     10  C         43.9470  -26.0880  -22.2140 C.2    17  GLN17       0.2616
     11  O         44.8300  -26.0940  -21.2960 O.2    17  GLN17      -0.2715
     12  CB        42.8950  -23.8090  -21.9510 C.3    17  GLN17       0.0408
     13  CG        41.6340  -22.9290  -21.7250 C.3    17  GLN17       0.0908
     14  CD        41.9280  -21.4120  -21.6870 C.2    17  GLN17       0.2608
     15  OE1       42.8660  -20.9030  -22.3440 O.2    17  GLN17      -0.2717
     16  NE2       41.0890  -20.6770  -20.9630 N.am   17  GLN17      -0.0878
     17  N         44.0690  -26.7640  -23.3630 N.am   18  TYR18      -0.1974
     18  CA        45.1870  -27.6870  -23.6080 C.3    18  TYR18       0.1639
     19  C         45.7460  -27.2240  -24.9170 C.2    18  TYR18       0.2290
     20  O         45.0030  -27.2360  -25.9230 O.2    18  TYR18      -0.2864
     21  CB        44.6990  -29.1300  -23.8310 C.3    18  TYR18       0.0560
     22  CG        44.3090  -29.8830  -22.5990 C.ar   18  TYR18      -0.0198
     23  CD1       43.0230  -29.7550  -22.0650 C.ar   18  TYR18      -0.0009
     24  CD2       45.2230  -30.7240  -21.9400 C.ar   18  TYR18      -0.0009
     25  CE1       42.6630  -30.4260  -20.9040 C.ar   18  TYR18       0.0417
     26  CE2       44.8530  -31.3950  -20.7820 C.ar   18  TYR18       0.0417
     27  CZ        43.5650  -31.2470  -20.2770 C.ar   18  TYR18       0.1957
     28  OH        43.1560  -31.9510  -19.1440 O.3    18  TYR18      -0.2866
     29  N         45.5040  -24.3140  -29.6610 N.3    34  VAL34      -0.1245
     30  CA        44.5830  -25.4340  -29.4310 C.3    34  VAL34       0.1561
     31  C         44.4360  -26.2370  -30.7220 C.2    34  VAL34       0.2260
     32  O         44.2180  -25.7010  -31.8110 O.2    34  VAL34      -0.2867
     33  CB        43.1660  -24.9300  -28.9670 C.3    34  VAL34       0.0252
     34  CG1       42.2200  -26.1290  -28.6810 C.3    34  VAL34       0.0019
     35  CG2       43.3210  -24.1010  -27.7110 C.3    34  VAL34       0.0019
     36  N         42.0890  -28.5580  -32.5140 N.3    36  ASP36      -0.1239
     37  CA        40.6470  -28.6820  -32.3510 C.3    36  ASP36       0.1674
     38  C         40.0610  -29.5540  -33.4490 C.2    36  ASP36       0.2266
     39  O         39.8190  -29.0630  -34.5530 O.2    36  ASP36      -0.2867
     40  CB        40.0650  -27.2730  -32.4470 C.3    36  ASP36       0.1410
     41  CG        38.5300  -27.2400  -32.3690 C.2    36  ASP36       0.3668
     42  OD1       37.9290  -28.2080  -31.8100 O.co2  36  ASP36      -0.2456
     43  OD2       37.9250  -26.2250  -32.8540 O.co2  36  ASP36      -0.2456
     44  N         37.1920  -30.3340  -33.7400 N.3    38  GLY38      -0.1210
     45  CA        35.8250  -29.8310  -34.0270 C.3    38  GLY38       0.1956
     46  C         35.8080  -28.6570  -35.0250 C.2    38  GLY38       0.2612
     47  O         34.7520  -28.1680  -35.4250 O.2    38  GLY38      -0.2717
     48  N         36.9710  -28.1940  -35.4690 N.am   39  SER39      -0.1952
     49  CA        36.9580  -27.2680  -36.6210 C.3    39  SER39       0.1924
     50  C         38.1020  -27.6360  -37.5760 C.2    39  SER39       0.2314
     51  O         38.8360  -28.5930  -37.3180 O.2    39  SER39      -0.2863
     52  CB        37.0210  -25.8020  -36.1500 C.3    39  SER39       0.2116
     53  OG        38.2490  -25.5750  -35.4570 O.3    39  SER39      -0.2180
     54  N         32.7100  -19.4400  -33.8750 N.3    81  TYR81      -0.1227
     55  CA        32.6650  -20.4730  -32.8630 C.3    81  TYR81       0.1736
     56  C         31.4870  -20.3280  -31.8780 C.2    81  TYR81       0.2596
     57  O         30.7130  -19.3420  -31.9150 O.2    81  TYR81      -0.2718
     58  CB        33.9700  -20.4830  -32.1000 C.3    81  TYR81       0.0548
     59  CG        35.1980  -20.6830  -32.9610 C.ar   81  TYR81      -0.0200
     60  CD1       35.5180  -21.9400  -33.4770 C.ar   81  TYR81      -0.0009
     61  CD2       36.0270  -19.6110  -33.2670 C.ar   81  TYR81      -0.0009
     62  CE1       36.6420  -22.1220  -34.2640 C.ar   81  TYR81       0.0417
     63  CE2       37.1620  -19.7710  -34.0580 C.ar   81  TYR81       0.0417
     64  CZ        37.4760  -21.0300  -34.5560 C.ar   81  TYR81       0.1957
     65  OH        38.6140  -21.1920  -35.3130 O.3    81  TYR81      -0.2866
     66  N         31.3590  -21.3310  -31.0000 N.am   82  SER82      -0.1938
     67  CA        30.3520  -21.3400  -29.9340 C.3    82  SER82       0.2055
     68  C         30.6430  -20.1500  -29.0330 C.2    82  SER82       0.2643
     69  O         29.7170  -19.5660  -28.4730 O.2    82  SER82      -0.2714
     70  CB        30.4610  -22.6310  -29.1200 C.3    82  SER82       0.2130
     71  OG        31.7780  -22.6550  -28.5420 O.3    82  SER82      -0.2179
     72  N         31.9320  -19.8050  -28.9230 N.am   83  THR83      -0.1950
     73  CA        32.4120  -18.7470  -28.0190 C.3    83  THR83       0.1897
     74  C         32.3860  -17.3630  -28.6260 C.2    83  THR83       0.2313
     75  O         32.4520  -16.3550  -27.9120 O.2    83  THR83      -0.2863
     76  CB        33.8580  -18.9630  -27.5470 C.3    83  THR83       0.1794
     77  OG1       34.7380  -19.0080  -28.6680 O.3    83  THR83      -0.2208
     78  CG2       33.9960  -20.2460  -26.7960 C.3    83  THR83       0.0378
     79  N         35.3670  -13.9000  -25.8910 N.3   116  PRO116     -0.2102
     80  CA        36.0350  -14.6570  -24.8300 C.3   116  PRO116      0.1504
     81  C         37.5470  -14.6330  -24.8170 C.2   116  PRO116      0.2575
     82  O         38.1490  -15.2350  -23.9000 O.2   116  PRO116     -0.2718
     83  CB        35.6680  -16.1060  -25.1820 C.3   116  PRO116      0.0282
     84  CG        35.6830  -16.1270  -26.7250 C.3   116  PRO116      0.0208
     85  CD        35.4210  -14.6420  -27.1750 C.3   116  PRO116      0.0893
     86  N         38.1800  -13.9960  -25.7930 N.am  117  PHE117     -0.1977
     87  CA        39.5880  -14.2680  -25.9640 C.3   117  PHE117      0.1639
     88  C         40.5460  -13.7370  -24.9140 C.2   117  PHE117      0.2290
     89  O         41.6960  -14.1510  -24.8890 O.2   117  PHE117     -0.2864
     90  CB        40.0110  -13.9390  -27.3980 C.3   117  PHE117      0.0560
     91  CG        39.3770  -14.8510  -28.3970 C.ar  117  PHE117     -0.0200
     92  CD1       39.9320  -16.1130  -28.6530 C.ar  117  PHE117     -0.0042
     93  CD2       38.1560  -14.5180  -29.0090 C.ar  117  PHE117     -0.0042
     94  CE1       39.3380  -16.9920  -29.5440 C.ar  117  PHE117     -0.0003
     95  CE2       37.5390  -15.4340  -29.8940 C.ar  117  PHE117     -0.0003
     96  CZ        38.1490  -16.6820  -30.1380 C.ar  117  PHE117     -0.0000
     97  N         40.2020  -14.5330  -21.9500 N.3   119  LEU119     -0.1231
     98  CA        40.1460  -15.7190  -21.1040 C.3   119  LEU119      0.1693
     99  C         40.8900  -16.8660  -21.7470 C.2   119  LEU119      0.2591
    100  O         41.0490  -17.9240  -21.1390 O.2   119  LEU119     -0.2718
    101  CB        38.6970  -16.1210  -20.9870 C.3   119  LEU119      0.0284
    102  CG        37.8230  -15.4740  -19.9050 C.3   119  LEU119      0.0019
    103  CD1       38.3970  -14.2420  -19.2030 C.3   119  LEU119      0.0001
    104  CD2       36.4290  -15.2240  -20.4430 C.3   119  LEU119      0.0001
    105  N         41.3310  -16.6780  -22.9890 N.am  120  ALA120     -0.1980
    106  CA        42.1470  -17.7000  -23.6280 C.3   120  ALA120      0.1597
    107  C         43.5870  -17.6010  -23.1550 C.2   120  ALA120      0.2287
    108  O         44.1420  -16.5290  -23.0860 O.2   120  ALA120     -0.2864
    109  CB        42.0740  -17.5700  -25.1120 C.3   120  ALA120      0.0319
    110  N         45.7260  -19.3490  -24.8060 N.3   122  PHE122     -0.1241
    111  CA        46.3790  -19.7300  -26.0340 C.3   122  PHE122      0.1605
    112  C         46.1690  -18.5770  -26.9960 C.2   122  PHE122      0.2264
    113  O         45.2610  -17.7670  -26.7870 O.2   122  PHE122     -0.2867
    114  CB        45.7130  -20.9740  -26.6060 C.3   122  PHE122      0.0534
    115  CG        44.2040  -20.8620  -26.7410 C.ar  122  PHE122     -0.0203
    116  CD1       43.3710  -21.1800  -25.6610 C.ar  122  PHE122     -0.0042
    117  CD2       43.6210  -20.4630  -27.9530 C.ar  122  PHE122     -0.0042
    118  CE1       41.9960  -21.1170  -25.7690 C.ar  122  PHE122     -0.0003
    119  CE2       42.2260  -20.3860  -28.0780 C.ar  122  PHE122     -0.0003
    120  CZ        41.3980  -20.7140  -26.9710 C.ar  122  PHE122     -0.0000
    121  N         44.0300  -21.2160  -32.9490 N.3   125  VAL125     -0.1245
    122  CA        43.6490  -22.6080  -33.1660 C.3   125  VAL125      0.1561
    123  C         44.1670  -23.2770  -34.4360 C.2   125  VAL125      0.2260
    124  O         44.2240  -22.6740  -35.5210 O.2   125  VAL125     -0.2867
    125  CB        42.1070  -22.8170  -32.9670 C.3   125  VAL125      0.0252
    126  CG1       41.3920  -21.5320  -32.5330 C.3   125  VAL125      0.0019
    127  CG2       41.4550  -23.5750  -34.1370 C.3   125  VAL125      0.0019
    128  N         45.5170  -36.4350  -23.0330 N.3   160  TYR160     -0.1241
    129  CA        45.2640  -35.2400  -22.2580 C.3   160  TYR160      0.1605
    130  C         45.4500  -35.6020  -20.7700 C.2   160  TYR160      0.2264
    131  O         44.6850  -36.3950  -20.2250 O.2   160  TYR160     -0.2867
    132  CB        43.8180  -34.7600  -22.4560 C.3   160  TYR160      0.0534
    133  CG        43.5790  -33.7980  -23.5660 C.ar  160  TYR160     -0.0201
    134  CD1       44.6080  -33.1620  -24.1950 C.ar  160  TYR160     -0.0009
    135  CD2       42.2600  -33.5150  -23.9880 C.ar  160  TYR160     -0.0009
    136  CE1       44.3600  -32.2450  -25.2700 C.ar  160  TYR160      0.0417
    137  CE2       42.0120  -32.5830  -24.9910 C.ar  160  TYR160      0.0417
    138  CZ        43.0590  -31.9590  -25.6310 C.ar  160  TYR160      0.1957
    139  OH        42.7800  -31.0560  -26.6390 O.3   160  TYR160     -0.2866
    140  N         30.1470  -36.0320  -31.2960 N.3   222  LEU222     -0.1245
    141  CA        31.3070  -35.4210  -31.8860 C.3   222  LEU222      0.1561
    142  C         32.4600  -35.6900  -30.9230 C.2   222  LEU222      0.2260
    143  O         32.2990  -35.5080  -29.6660 O.2   222  LEU222     -0.2867
    144  CB        31.0390  -33.9380  -31.8690 C.3   222  LEU222      0.0270
    145  CG        31.2850  -33.0140  -33.0210 C.3   222  LEU222      0.0019
    146  CD1       31.6470  -31.6010  -32.5150 C.3   222  LEU222      0.0001
    147  CD2       32.3240  -33.5920  -34.0010 C.3   222  LEU222      0.0001
    148  N         35.6190  -34.2400  -29.6870 N.3   224  ASP224     -0.1225
    149  CA        35.9890  -32.8160  -29.9270 C.3   224  ASP224      0.1805
    150  C         37.1560  -32.3620  -29.0820 C.2   224  ASP224      0.2598
    151  O         36.9780  -31.9390  -27.9260 O.2   224  ASP224     -0.2718
    152  CB        34.7920  -31.9140  -29.7090 C.3   224  ASP224      0.1424
    153  CG        34.9910  -30.5450  -30.3000 C.2   224  ASP224      0.3668
    154  OD1       36.1690  -30.1310  -30.4180 O.co2 224  ASP224     -0.2456
    155  OD2       33.9610  -29.8770  -30.6280 O.co2 224  ASP224     -0.2456
    156  N         38.3640  -32.4350  -29.6400 N.am  225  THR225     -0.1939
    157  CA        39.5160  -32.2270  -28.8210 C.3   225  THR225      0.2028
    158  C         39.5950  -30.7550  -28.4240 C.2   225  THR225      0.2643
    159  O         40.4490  -30.3790  -27.6370 O.2   225  THR225     -0.2714
    160  CB        40.7890  -32.6040  -29.5580 C.3   225  THR225      0.1808
    161  OG1       40.8550  -31.8360  -30.7550 O.3   225  THR225     -0.2208
    162  CG2       40.8240  -34.0840  -29.8980 C.3   225  THR225      0.0379
    163  N         38.7270  -29.9320  -29.0030 N.am  226  GLY226     -0.1939
    164  CA        38.7650  -28.5050  -28.7000 C.3   226  GLY226      0.2014
    165  C         37.7420  -28.0880  -27.6480 C.2   226  GLY226      0.2639
    166  O         37.5990  -26.9020  -27.3620 O.2   226  GLY226     -0.2714
    167  N         37.0310  -29.0540  -27.0690 N.am  227  ALA227     -0.1963
    168  CA        35.9780  -28.7620  -26.0980 C.3   227  ALA227      0.1728
    169  C         36.5390  -29.1890  -24.7480 C.2   227  ALA227      0.2617
    170  O         37.0920  -30.2950  -24.6350 O.2   227  ALA227     -0.2715
    171  CB        34.6200  -29.5380  -26.4540 C.3   227  ALA227      0.0334
    172  N         36.4710  -28.2640  -23.7750 N.am  228  SER228     -0.1936
    173  CA        36.8870  -28.4880  -22.3840 C.3   228  SER228      0.2055
    174  C         36.0660  -29.5950  -21.7670 C.2   228  SER228      0.2643
    175  O         36.5810  -30.4280  -21.0780 O.2   228  SER228     -0.2714
    176  CB        36.6560  -27.2240  -21.5240 C.3   228  SER228      0.2130
    177  OG        37.2780  -26.0860  -22.0910 O.3   228  SER228     -0.2179
    178  N         34.7600  -29.5710  -22.0050 N.am  229  TYR229     -0.1973
    179  CA        33.8530  -30.3980  -21.2830 C.3   229  TYR229      0.1639
    180  C         33.1770  -31.4680  -22.1500 C.2   229  TYR229      0.2290
    181  O         33.2860  -31.4880  -23.3660 O.2   229  TYR229     -0.2864
    182  CB        32.7730  -29.4720  -20.6990 C.3   229  TYR229      0.0560
    183  CG        33.2190  -28.6120  -19.5330 C.ar  229  TYR229     -0.0198
    184  CD1       34.5260  -28.6790  -18.9980 C.ar  229  TYR229     -0.0009
    185  CD2       32.3090  -27.7820  -18.8970 C.ar  229  TYR229     -0.0009
    186  CE1       34.9010  -27.8950  -17.8980 C.ar  229  TYR229      0.0417
    187  CE2       32.6660  -27.0230  -17.7840 C.ar  229  TYR229      0.0417
    188  CZ        33.9610  -27.0780  -17.2930 C.ar  229  TYR229      0.1957
    189  OH        34.2580  -26.2930  -16.1760 O.3   229  TYR229     -0.2866
    190  N         28.4280  -29.7520  -19.5410 N.3   299  HIS299     -0.1241
    191  CA        27.5280  -28.5930  -19.6780 C.3   299  HIS299      0.1621
    192  C         26.6520  -28.7050  -20.8890 C.2   299  HIS299      0.2264
    193  O         26.7050  -29.6830  -21.5750 O.2   299  HIS299     -0.2867
    194  CB        28.2920  -27.2810  -19.6550 C.3   299  HIS299      0.0745
    195  CG        29.0690  -26.9900  -20.8990 C.ar  299  HIS299      0.0817
    196  ND1       29.2230  -25.7160  -21.3890 N.ar  299  HIS299     -0.2268
    197  CD2       29.7330  -27.8020  -21.7590 C.ar  299  HIS299      0.1154
    198  CE1       29.9590  -25.7540  -22.4860 C.ar  299  HIS299      0.1986
    199  NE2       30.2840  -27.0080  -22.7290 N.ar  299  HIS299     -0.2212
    200  N         25.4140  -27.5900  -24.5680 N.3   301  MET301     -0.1245
    201  CA        25.7480  -26.8410  -25.7890 C.3   301  MET301      0.1570
    202  C         24.8560  -27.2970  -26.9170 C.2   301  MET301      0.2261
    203  O         24.7570  -28.4760  -27.2550 O.2   301  MET301     -0.2867
    204  CB        27.2140  -26.9620  -26.1760 C.3   301  MET301      0.0387
    205  CG        27.6550  -25.9230  -27.2800 C.3   301  MET301      0.0595
    206  SD        29.3030  -25.2990  -26.8820 S.3   301  MET301     -0.1393
    207  CE        30.2990  -26.7840  -27.1110 C.3   301  MET301      0.0692
    208  N         37.4980  -32.6860  -23.4780 N.3   315  ALA315     -0.1245
    209  CA        38.6300  -33.0810  -22.6090 C.3   315  ALA315      0.1562
    210  C         38.2330  -33.9660  -21.4200 C.2   315  ALA315      0.2260
    211  O         39.0010  -34.8570  -21.0370 O.2   315  ALA315     -0.2867
    212  CB        39.4540  -31.8850  -22.1550 C.3   315  ALA315      0.0290
@<TRIPOS>BOND
     1    50    51    2
     2    50    49    1
     3    49    52    1
     4    49    48    1
     5    52    53    1
     6   124   123    2
     7    48    46   am
     8    47    46    2
     9    65    64    1
    10    46    45    1
    11    64    62   ar
    12    64    63   ar
    13    39    38    2
    14   123   122    1
    15    62    60   ar
    16   127   125    1
    17    63    61   ar
    18    45    44    1
    19   147   145    1
    20    54    55    1
    21    60    59   ar
    22    38    37    1
    23    61    59   ar
    24   122   125    1
    25   122   121    1
    26   145   146    1
    27   145   144    1
    28   125   126    1
    29    59    58    1
    30    55    58    1
    31    55    56    1
    32    43    41   ar
    33    36    37    1
    34    40    41    1
    35    40    37    1
    36    41    42   ar
    37    57    56    2
    38   141   144    1
    39   141   140    1
    40   141   142    1
    41    56    66   am
    42    32    31    2
    43    66    67    1
    44   142   143    2
    45   161   160    1
    46    31    30    1
    47   155   153   ar
    48   154   153   ar
    49   153   152    1
    50    96    95   ar
    51    96    94   ar
    52    67    70    1
    53    67    68    1
    54   149   152    1
    55   149   148    1
    56   149   150    1
    57   162   160    1
    58    95    93   ar
    59    29    30    1
    60   156   150   am
    61   156   157    1
    62   160   157    1
    63    94    92   ar
    64    30    33    1
    65    70    71    1
    66   150   151    2
    67    68    72   am
    68    68    69    2
    69    93    91   ar
    70   163   164    1
    71   163   158   am
    72    33    34    1
    73    33    35    1
    74    72    73    1
    75   157   158    1
    76   164   165    1
    77    77    76    1
    78    92    91   ar
    79    74    73    1
    80    74    75    2
    81   158   159    2
    82    91    90    1
    83   119   117   ar
    84   119   120   ar
    85    73    76    1
    86   117   115   ar
    87   165   166    2
    88   165   167   am
    89    76    78    1
    90    90    87    1
    91   205   206    1
    92   205   204    1
    93   203   202    2
    94    85    84    1
    95    85    79    1
    96   207   206    1
    97   167   168    1
    98   112   113    2
    99   112   111    1
   100   120   118   ar
   101   202   201    1
   102   115   114    1
   103   115   116   ar
   104    84    83    1
   105   139   138    1
   106   114   111    1
   107   171   168    1
   108   204   201    1
   109   168   169    1
   110   111   110    1
   111    87    86    1
   112    87    88    1
   113    20    19    2
   114    79    80    1
   115    86    81   am
   116   201   200    1
   117   118   116   ar
   118   138   136   ar
   119   138   137   ar
   120   136   134   ar
   121    83    80    1
   122   109   106    1
   123   137   135   ar
   124    19    18    1
   125    88    89    2
   126    80    81    1
   127    81    82    2
   128   169   170    2
   129   169   172   am
   130   134   133   ar
   131   135   133   ar
   132    21    18    1
   133    21    22    1
   134   172   173    1
   135   106   107    1
   136   106   105    1
   137    18    17    1
   138   133   132    1
   139   208   209    1
   140   181   180    2
   141    17    10   am
   142   107   108    2
   143   128   129    1
   144   105    99   am
   145   199   198   ar
   146   199   197   ar
   147   209   212    1
   148   209   210    1
   149    22    23   ar
   150    22    24   ar
   151   198   196   ar
   152   132   129    1
   153   173   174    1
   154   173   176    1
   155    15    14    2
   156   129   130    1
   157    10     9    1
   158    10    11    2
   159   180   179    1
   160   177   176    1
   161    23    25   ar
   162     9    12    1
   163     9     8    1
   164   178   174   am
   165   178   179    1
   166    12    13    1
   167    97    98    1
   168    24    26   ar
   169   174   175    2
   170     4     3    2
   171   197   195   ar
   172    99   100    2
   173    99    98    1
   174    13    14    1
   175    14    16   am
   176   193   192    2
   177   210   211    2
   178   196   195   ar
   179   179   182    1
   180    98   101    1
   181   101   102    1
   182    25    27   ar
   183   195   194    1
   184   192   191    1
   185     8     3   am
   186     3     2    1
   187    26    27   ar
   188   130   131    2
   189   182   183    1
   190   104   102    1
   191    27    28    1
   192   102   103    1
   193   191   194    1
   194   191   190    1
   195   183   184   ar
   196   183   185   ar
   197     2     5    1
   198     2     1    1
   199   184   186   ar
   200   185   187   ar
   201     5     6    1
   202     5     7    1
   203   186   188   ar
   204   187   188   ar
   205   188   189    1
