@<TRIPOS>MOLECULE
tmp/3q5iA00.pdb
 151 143 0 0 0
SMALL
GASTEIGER

@<TRIPOS>ATOM
      1  N         -3.8380   -7.2130  -39.3850 N.3    35  LEU35      -0.1231
      2  CA        -2.9560   -8.3790  -39.2590 C.3    35  LEU35       0.1693
      3  C         -3.4040   -9.5420  -40.1450 C.2    35  LEU35       0.2593
      4  O         -2.5850  -10.3520  -40.5690 O.2    35  LEU35      -0.2718
      5  CB        -2.8040   -8.8040  -37.8020 C.3    35  LEU35       0.0284
      6  CG        -1.9780   -7.8500  -36.9210 C.3    35  LEU35       0.0019
      7  CD1       -1.9860   -8.3180  -35.4860 C.3    35  LEU35       0.0001
      8  CD2       -0.5590   -7.6920  -37.4300 C.3    35  LEU35       0.0001
      9  N         -4.6840   -9.5990  -40.4740 N.am   36  GLY36      -0.1942
     10  CA        -5.1630  -10.6280  -41.3750 C.3    36  GLY36       0.2014
     11  C         -6.6710  -10.6820  -41.5330 C.2    36  GLY36       0.2639
     12  O         -7.3850   -9.9450  -40.8620 O.2    36  GLY36      -0.2714
     13  N         -7.1140  -11.5790  -42.4320 N.am   37  SER37      -0.1949
     14  CA        -8.5180  -11.9880  -42.6530 C.3    37  SER37       0.1924
     15  C         -9.3940  -10.8580  -43.1780 C.2    37  SER37       0.2314
     16  O         -9.1370  -10.3330  -44.2610 O.2    37  SER37      -0.2863
     17  CB        -9.1160  -12.6010  -41.3760 C.3    37  SER37       0.2116
     18  OG        -8.5040  -13.8070  -41.0850 O.3    37  SER37      -0.2180
     19  N        -15.7080  -14.5300  -41.5160 N.3    38  TYR38      -0.1241
     20  CA       -15.4520  -14.4120  -40.0660 C.3    38  TYR38       0.1605
     21  C        -15.2210  -12.9500  -39.5970 C.2    38  TYR38       0.2264
     22  O        -15.8670  -12.4770  -38.6510 O.2    38  TYR38      -0.2867
     23  CB       -14.2460  -15.2840  -39.6530 C.3    38  TYR38       0.0534
     24  CG       -14.0940  -15.4560  -38.1710 C.ar   38  TYR38      -0.0201
     25  CD1      -15.0810  -16.0570  -37.4050 C.ar   38  TYR38      -0.0009
     26  CD2      -12.8980  -15.1790  -37.5430 C.ar   38  TYR38      -0.0009
     27  CE1      -14.8870  -16.3270  -36.0670 C.ar   38  TYR38       0.0417
     28  CE2      -12.6780  -15.4400  -36.2230 C.ar   38  TYR38       0.0417
     29  CZ       -13.6730  -16.0310  -35.4690 C.ar   38  TYR38       0.1957
     30  OH       -13.5300  -16.3230  -34.1350 O.3    38  TYR38      -0.2866
     31  N         -8.4000   -9.4450  -37.9800 N.3    41  VAL41      -0.1245
     32  CA        -7.5420   -9.2700  -36.8010 C.3    41  VAL41       0.1561
     33  C         -6.7320   -8.0090  -37.0420 C.2    41  VAL41       0.2260
     34  O         -6.1250   -7.8850  -38.0890 O.2    41  VAL41      -0.2867
     35  CB        -6.6400  -10.4980  -36.5140 C.3    41  VAL41       0.0252
     36  CG1       -5.7090  -10.2110  -35.3690 C.3    41  VAL41       0.0019
     37  CG2       -7.4990  -11.7620  -36.2150 C.3    41  VAL41       0.0019
     38  N         -3.6740   -7.3410  -30.1620 N.3    54  ALA54      -0.1245
     39  CA        -4.2680   -7.9000  -31.3570 C.3    54  ALA54       0.1562
     40  C         -5.7420   -7.9970  -31.0570 C.2    54  ALA54       0.2260
     41  O         -6.1590   -8.7670  -30.1960 O.2    54  ALA54      -0.2867
     42  CB        -3.6980   -9.2890  -31.6820 C.3    54  ALA54       0.0290
     43  N         -9.2480   -9.1370  -32.3090 N.3    56  LYS56      -0.1245
     44  CA        -9.9740   -9.9930  -33.2420 C.3    56  LYS56       0.1561
     45  C        -11.3970   -9.4400  -33.3670 C.2    56  LYS56       0.2260
     46  O        -12.1590   -9.3950  -32.3850 O.2    56  LYS56      -0.2867
     47  CB        -9.9550  -11.4440  -32.7580 C.3    56  LYS56       0.0271
     48  CG       -10.4890  -12.4410  -33.7920 C.3    56  LYS56       0.0035
     49  CD       -10.7190  -13.8390  -33.2360 C.3    56  LYS56       0.0206
     50  CE        -9.5350  -14.7810  -33.4550 C.3    56  LYS56       0.1093
     51  NZ        -9.9540  -16.2080  -33.2890 N.3    56  LYS56      -0.1314
     52  N         -2.1030  -18.1490  -25.9300 N.3    82  ILE82      -0.1245
     53  CA        -2.5880  -16.7890  -26.0580 C.3    82  ILE82       0.1561
     54  C         -3.2900  -16.3350  -24.7700 C.2    82  ILE82       0.2260
     55  O         -3.9200  -17.1360  -24.0890 O.2    82  ILE82      -0.2867
     56  CB        -3.5230  -16.6570  -27.3290 C.3    82  ILE82       0.0252
     57  CG1       -3.8930  -15.1830  -27.6230 C.3    82  ILE82       0.0019
     58  CG2       -4.7710  -17.5550  -27.1800 C.3    82  ILE82       0.0019
     59  CD1       -4.2370  -14.9010  -29.0970 C.3    82  ILE82       0.0001
     60  N         -6.6600   -9.4380  -27.4620 N.3    98  THR98      -0.1203
     61  CA        -5.6300  -10.4520  -27.1460 C.3    98  THR98       0.1994
     62  C         -4.1990   -9.9080  -27.2280 C.2    98  THR98       0.2618
     63  O         -3.9640   -8.8320  -27.7520 O.2    98  THR98      -0.2717
     64  CB        -5.7360  -11.6660  -28.0760 C.3    98  THR98       0.1784
     65  OG1       -5.3580  -11.2850  -29.4040 O.3    98  THR98      -0.2211
     66  CG2       -7.1460  -12.2430  -28.0820 C.3    98  THR98       0.0376
     67  N         -3.2500  -10.6700  -26.6820 N.am   99  GLU99      -0.1965
     68  CA        -1.8350  -10.2880  -26.6500 C.3    99  GLU99       0.1733
     69  C         -1.2870  -10.4270  -28.0590 C.2    99  GLU99       0.2616
     70  O         -1.5430  -11.4310  -28.7200 O.2    99  GLU99      -0.2715
     71  CB        -1.1180  -11.2390  -25.7000 C.3    99  GLU99       0.0429
     72  CG         0.2840  -10.8330  -25.2830 C.3    99  GLU99       0.1163
     73  CD         0.8240  -11.6980  -24.1570 C.2    99  GLU99       0.3649
     74  OE1        0.7020  -12.9400  -24.2470 O.co2  99  GLU99      -0.2457
     75  OE2        1.3670  -11.1410  -23.1830 O.co2  99  GLU99      -0.2457
     76  N         -0.5590   -9.4190  -28.5220 N.am  100  PHE100     -0.1960
     77  CA         0.0540   -9.3800  -29.8410 C.3   100  PHE100      0.1771
     78  C          1.4280  -10.0910  -29.8540 C.2   100  PHE100      0.2619
     79  O          2.2910   -9.8270  -29.0070 O.2   100  PHE100     -0.2715
     80  CB         0.1930   -7.9240  -30.2980 C.3   100  PHE100      0.0574
     81  CG         1.1030   -7.7130  -31.5000 C.ar  100  PHE100     -0.0200
     82  CD1        0.7740   -8.2190  -32.7400 C.ar  100  PHE100     -0.0042
     83  CD2        2.2780   -6.9550  -31.3830 C.ar  100  PHE100     -0.0042
     84  CE1        1.6190   -8.0250  -33.8420 C.ar  100  PHE100     -0.0003
     85  CE2        3.1200   -6.7630  -32.4840 C.ar  100  PHE100     -0.0003
     86  CZ         2.7730   -7.2870  -33.7110 C.ar  100  PHE100     -0.0000
     87  N          1.6220  -10.9830  -30.8220 N.am  101  TYR101     -0.1974
     88  CA         2.9420  -11.6540  -31.0410 C.3   101  TYR101      0.1639
     89  C          3.4910  -11.1940  -32.3820 C.2   101  TYR101      0.2290
     90  O          2.8400  -11.3890  -33.3900 O.2   101  TYR101     -0.2864
     91  CB         2.7920  -13.1860  -30.9830 C.3   101  TYR101      0.0560
     92  CG         2.0400  -13.5870  -29.7320 C.ar  101  TYR101     -0.0198
     93  CD1        0.8700  -14.3090  -29.7960 C.ar  101  TYR101     -0.0009
     94  CD2        2.5060  -13.2020  -28.4820 C.ar  101  TYR101     -0.0009
     95  CE1        0.1700  -14.6350  -28.6180 C.ar  101  TYR101      0.0417
     96  CE2        1.8310  -13.5180  -27.3160 C.ar  101  TYR101      0.0417
     97  CZ         0.6630  -14.2330  -27.3790 C.ar  101  TYR101      0.1957
     98  OH         0.0010  -14.5170  -26.2090 O.3   101  TYR101     -0.2866
     99  N          5.2330  -13.5550  -36.1600 N.3   104  GLY104     -0.1210
    100  CA         4.4740  -14.2400  -37.2120 C.3   104  GLY104      0.1956
    101  C          4.2620  -15.7250  -36.9300 C.2   104  GLY104      0.2611
    102  O          4.6720  -16.2260  -35.8930 O.2   104  GLY104     -0.2717
    103  N          3.6240  -16.4130  -37.8760 N.am  105  GLU105     -0.1979
    104  CA         3.2310  -17.8220  -37.7550 C.3   105  GLU105      0.1602
    105  C          4.4140  -18.7730  -37.9080 C.2   105  GLU105      0.2287
    106  O          5.3710  -18.4970  -38.6550 O.2   105  GLU105     -0.2864
    107  CB         2.2110  -18.2070  -38.8270 C.3   105  GLU105      0.0415
    108  CG         0.9440  -17.4070  -38.8080 C.3   105  GLU105      0.1163
    109  CD         0.0300  -17.6510  -39.9940 C.2   105  GLU105      0.3649
    110  OE1        0.3370  -18.5050  -40.8700 O.co2 105  GLU105     -0.2457
    111  OE2       -0.9960  -16.9590  -40.0390 O.co2 105  GLU105     -0.2457
    112  N         -0.0370  -22.6950  -38.7200 N.3   148  GLU148     -0.1231
    113  CA        -0.6800  -21.4050  -38.9450 C.3   148  GLU148      0.1699
    114  C         -1.2840  -20.8760  -37.6460 C.2   148  GLU148      0.2592
    115  O         -1.5230  -19.6830  -37.5270 O.2   148  GLU148     -0.2718
    116  CB        -1.7950  -21.5210  -40.0110 C.3   148  GLU148      0.0402
    117  CG        -1.3290  -21.8800  -41.3960 C.3   148  GLU148      0.1161
    118  CD        -1.2790  -23.3760  -41.6590 C.2   148  GLU148      0.3649
    119  OE1       -0.9670  -24.1210  -40.7280 O.co2 148  GLU148     -0.2457
    120  OE2       -1.5010  -23.7970  -42.8150 O.co2 148  GLU148     -0.2457
    121  N         -1.5250  -21.7630  -36.6750 N.am  149  ASN149     -0.1974
    122  CA        -2.0930  -21.3880  -35.3760 C.3   149  ASN149      0.1688
    123  C         -1.0860  -21.4120  -34.2810 C.2   149  ASN149      0.2292
    124  O         -1.4580  -21.5260  -33.0870 O.2   149  ASN149     -0.2864
    125  CB        -3.2680  -22.2900  -35.0450 C.3   149  ASN149      0.1181
    126  CG        -4.4560  -21.9630  -35.9090 C.2   149  ASN149      0.2629
    127  OD1       -4.5650  -20.8510  -36.4130 O.2   149  ASN149     -0.2716
    128  ND2       -5.2870  -22.9170  -36.1470 N.am  149  ASN149     -0.0877
    129  N          2.1520  -18.9720  -33.1270 N.3   151  LEU151     -0.1245
    130  CA         2.8460  -17.7070  -33.3820 C.3   151  LEU151      0.1561
    131  C          4.1020  -17.5640  -32.5520 C.2   151  LEU151      0.2260
    132  O          4.2080  -18.1000  -31.4320 O.2   151  LEU151     -0.2867
    133  CB         1.9370  -16.4890  -33.1420 C.3   151  LEU151      0.0270
    134  CG         0.5110  -16.4940  -33.7340 C.3   151  LEU151      0.0019
    135  CD1       -0.1550  -15.1390  -33.4720 C.3   151  LEU151      0.0001
    136  CD2        0.5060  -16.7690  -35.2360 C.3   151  LEU151      0.0001
    137  N         -2.5840  -20.1880  -30.5330 N.3   164  VAL164     -0.1231
    138  CA        -3.6360  -19.1890  -30.6950 C.3   164  VAL164      0.1692
    139  C         -4.8070  -19.8720  -31.4150 C.2   164  VAL164      0.2592
    140  O         -4.7650  -21.0900  -31.6830 O.2   164  VAL164     -0.2718
    141  CB        -3.1230  -17.9060  -31.4400 C.3   164  VAL164      0.0266
    142  CG1       -1.8290  -17.3760  -30.7920 C.3   164  VAL164      0.0020
    143  CG2       -2.8350  -18.1810  -32.9280 C.3   164  VAL164      0.0020
    144  N         -5.8450  -19.0800  -31.7170 N.am  165  ASP165     -0.1974
    145  CA        -7.0090  -19.5020  -32.5050 C.3   165  ASP165      0.1709
    146  C         -7.7840  -20.6580  -31.8750 C.2   165  ASP165      0.2293
    147  O         -7.6670  -21.8070  -32.2900 O.2   165  ASP165     -0.2864
    148  CB        -6.6350  -19.7890  -33.9580 C.3   165  ASP165      0.1436
    149  CG        -7.8530  -19.9210  -34.8820 C.2   165  ASP165      0.3671
    150  OD1       -8.9920  -19.6230  -34.4330 O.co2 165  ASP165     -0.2456
    151  OD2       -7.6580  -20.3120  -36.0690 O.co2 165  ASP165     -0.2456
@<TRIPOS>BOND
     1    16    15    2
     2    15    14    1
     3   120   118   ar
     4    14    13    1
     5    14    17    1
     6    13    11   am
     7   118   117    1
     8   118   119   ar
     9    11    10    1
    10    11    12    2
    11    19    20    1
    12   117   116    1
    13    17    18    1
    14    10     9    1
    15   110   109   ar
    16     4     3    2
    17     9     3   am
    18     3     2    1
    19    20    23    1
    20    20    21    1
    21   111   109   ar
    22   116   113    1
    23   109   108    1
    24    23    24    1
    25    21    22    2
    26     1     2    1
    27     2     5    1
    28   113   112    1
    29   113   114    1
    30   107   108    1
    31   107   104    1
    32   106   105    2
    33    24    26   ar
    34    24    25   ar
    35    34    33    2
    36    31    32    1
    37   105   104    1
    38   103   104    1
    39   103   101   am
    40     5     6    1
    41   114   115    2
    42   114   121   am
    43    26    28   ar
    44     8     6    1
    45    25    27   ar
    46   100   101    1
    47   100    99    1
    48    33    32    1
    49   101   102    2
    50     6     7    1
    51    32    35    1
    52   121   122    1
    53    35    37    1
    54    35    36    1
    55   127   126    2
    56    28    29   ar
    57   128   126   am
    58   151   149   ar
    59    27    29   ar
    60   126   125    1
    61    29    30    1
    62   122   125    1
    63   122   123    1
    64   136   134    1
    65   149   150   ar
    66   149   148    1
    67   123   124    2
    68   148   145    1
    69    84    86   ar
    70    84    82   ar
    71    48    49    1
    72    48    47    1
    73   134   135    1
    74   134   133    1
    75    86    85   ar
    76    50    51    1
    77    50    49    1
    78    90    89    2
    79   130   133    1
    80   130   129    1
    81   130   131    1
    82    45    44    1
    83    45    46    2
    84    44    47    1
    85    44    43    1
    86   143   141    1
    87    82    81   ar
    88   131   132    2
    89   145   146    1
    90   145   144    1
    91    85    83   ar
    92    89    88    1
    93   147   146    2
    94   144   139   am
    95   140   139    2
    96    42    39    1
    97    81    83   ar
    98    81    80    1
    99   141   142    1
   100   141   138    1
   101   139   138    1
   102    39    40    1
   103    39    38    1
   104    40    41    2
   105    88    91    1
   106    88    87    1
   107    91    92    1
   108    87    78   am
   109   138   137    1
   110    80    77    1
   111    78    77    1
   112    78    79    2
   113    77    76    1
   114    93    92   ar
   115    93    95   ar
   116    92    94   ar
   117    65    64    1
   118    59    57    1
   119    70    69    2
   120    95    97   ar
   121    76    69   am
   122    94    96   ar
   123    66    64    1
   124    64    61    1
   125    69    68    1
   126    63    62    2
   127    57    56    1
   128    60    61    1
   129    97    96   ar
   130    97    98    1
   131    56    58    1
   132    56    53    1
   133    62    61    1
   134    62    67   am
   135    67    68    1
   136    68    71    1
   137    53    52    1
   138    53    54    1
   139    71    72    1
   140    72    73    1
   141    54    55    2
   142    74    73   ar
   143    73    75   ar
