@<TRIPOS>MOLECULE
tmp/3q5jA00.pdb
 176 164 0 0 0
SMALL
GASTEIGER

@<TRIPOS>ATOM
      1  N         -8.1790   26.5240    0.6630 N.3    40  LEU40      -0.1245
      2  CA        -6.8790   26.0270    1.1200 C.3    40  LEU40       0.1561
      3  C         -6.0000   27.1450    1.7210 C.2    40  LEU40       0.2260
      4  O         -5.3700   26.9220    2.7600 O.2    40  LEU40      -0.2867
      5  CB        -6.1220   25.2870    0.0070 C.3    40  LEU40       0.0270
      6  CG        -6.7160   23.9630   -0.4860 C.3    40  LEU40       0.0019
      7  CD1       -5.8940   23.3920   -1.6280 C.3    40  LEU40       0.0001
      8  CD2       -6.8130   22.9330    0.6430 C.3    40  LEU40       0.0001
      9  N         -7.1120   30.0040    3.0390 N.3    42  SER42      -0.1202
     10  CA        -7.8210   30.3860    4.2700 C.3    42  SER42       0.2020
     11  C         -7.4760   29.4120    5.4280 C.2    42  SER42       0.2619
     12  O         -7.1840   29.8620    6.5360 O.2    42  SER42      -0.2717
     13  CB        -9.3260   30.4630    4.0070 C.3    42  SER42       0.2103
     14  OG       -10.0790   30.6580    5.1890 O.3    42  SER42      -0.2182
     15  N         -7.4280   28.0950    5.1430 N.am   43  ASN43      -0.1960
     16  CA        -7.0530   27.0770    6.1240 C.3    43  ASN43       0.1819
     17  C         -5.6080   27.2750    6.5780 C.2    43  ASN43       0.2621
     18  O         -5.3270   27.2120    7.7810 O.2    43  ASN43      -0.2715
     19  CB        -7.2530   25.6710    5.5460 C.3    43  ASN43       0.1195
     20  CG        -8.6890   25.2860    5.2910 C.2    43  ASN43       0.2630
     21  OD1       -9.6430   25.9750    5.6760 O.2    43  ASN43      -0.2716
     22  ND2       -8.8760   24.1350    4.6750 N.am   43  ASN43      -0.0877
     23  N         -4.6920   27.5390    5.6150 N.am   44  ALA44      -0.1977
     24  CA        -3.2740   27.8000    5.8870 C.3    44  ALA44       0.1597
     25  C         -3.1280   29.0060    6.8230 C.2    44  ALA44       0.2287
     26  O         -2.4100   28.9180    7.8240 O.2    44  ALA44      -0.2864
     27  CB        -2.5170   28.0370    4.5900 C.3    44  ALA44       0.0319
     28  N         -5.4450   30.2430    8.8800 N.3    46  ASP46      -0.1225
     29  CA        -5.9370   29.8430   10.2060 C.3    46  ASP46       0.1805
     30  C         -4.8500   29.0450   10.9860 C.2    46  ASP46       0.2597
     31  O         -4.6770   29.2970   12.1760 O.2    46  ASP46      -0.2718
     32  CB        -7.2530   29.0490   10.1130 C.3    46  ASP46       0.1424
     33  CG        -7.7840   28.6430   11.4750 C.2    46  ASP46       0.3668
     34  OD1       -8.5090   29.4540   12.0920 O.co2  46  ASP46      -0.2456
     35  OD2       -7.4120   27.5390   11.9600 O.co2  46  ASP46      -0.2456
     36  N         -4.1340   28.1110   10.3190 N.am   47  ALA47      -0.1979
     37  CA        -3.0550   27.3140   10.9350 C.3    47  ALA47       0.1597
     38  C         -1.8870   28.2140   11.4130 C.2    47  ALA47       0.2287
     39  O         -1.3200   27.9620   12.4730 O.2    47  ALA47      -0.2864
     40  CB        -2.5440   26.2580    9.9640 C.3    47  ALA47       0.0319
     41  N         -3.1410   30.0570   14.6110 N.3    50  LYS50      -0.1245
     42  CA        -3.1480   29.2060   15.8000 C.3    50  LYS50       0.1561
     43  C         -1.7910   29.2120   16.5020 C.2    50  LYS50       0.2260
     44  O         -1.7570   29.3750   17.7240 O.2    50  LYS50      -0.2867
     45  CB        -3.6210   27.7730   15.4830 C.3    50  LYS50       0.0271
     46  CG        -5.1050   27.7170   15.2780 C.3    50  LYS50       0.0035
     47  CD        -5.3240   26.2280   15.2800 C.3    50  LYS50       0.0206
     48  CE        -6.3510   25.7730   14.2970 C.3    50  LYS50       0.1093
     49  NZ        -7.6380   26.4070   14.4830 N.3    50  LYS50      -0.1314
     50  N          2.1830   25.6250    4.2960 N.3    78  ASP78      -0.1239
     51  CA         2.2450   26.6060    5.3780 C.3    78  ASP78       0.1674
     52  C          3.1590   26.0860    6.4830 C.2    78  ASP78       0.2266
     53  O          3.3120   24.8690    6.6240 O.2    78  ASP78      -0.2867
     54  CB         0.8300   26.8840    5.9490 C.3    78  ASP78       0.1410
     55  CG         0.1870   25.7060    6.6830 C.2    78  ASP78       0.3668
     56  OD1        0.5160   25.4920    7.8820 O.co2  78  ASP78      -0.2456
     57  OD2       -0.6390   24.9980    6.0630 O.co2  78  ASP78      -0.2456
     58  N          0.6730   25.7900   12.7360 N.3    81  ILE81      -0.1231
     59  CA         0.6780   24.8900   13.8920 C.3    81  ILE81       0.1692
     60  C          0.9200   23.3860   13.5330 C.2    81  ILE81       0.2593
     61  O          1.5320   22.6550   14.3240 O.2    81  ILE81      -0.2718
     62  CB        -0.6270   25.1040   14.7310 C.3    81  ILE81       0.0266
     63  CG1       -0.5440   24.3600   16.0910 C.3    81  ILE81       0.0019
     64  CG2       -1.9110   24.7180   13.9570 C.3    81  ILE81       0.0020
     65  CD1       -0.8930   25.2260   17.2610 C.3    81  ILE81       0.0001
     66  N          0.4210   22.9360   12.3810 N.am   82  GLY82      -0.1942
     67  CA         0.5360   21.5310   12.0100 C.3    82  GLY82       0.2014
     68  C         -0.5010   20.6810   12.7280 C.2    82  GLY82       0.2638
     69  O         -1.1500   21.1200   13.6870 O.2    82  GLY82      -0.2714
     70  N         -0.6730   19.4620   12.2630 N.am   83  MET83      -0.1976
     71  CA        -1.6530   18.5360   12.8220 C.3    83  MET83       0.1605
     72  C         -0.9770   17.2610   13.3190 C.2    83  MET83       0.2287
     73  O         -0.0320   16.7790   12.6910 O.2    83  MET83      -0.2864
     74  CB        -2.6970   18.1950   11.7570 C.3    83  MET83       0.0413
     75  CG        -3.6900   19.3270   11.5270 C.3    83  MET83       0.0598
     76  SD        -4.8070   18.9830   10.1620 S.3    83  MET83      -0.1393
     77  CE        -3.7340   19.3520    8.7500 C.3    83  MET83       0.0692
     78  N         -5.3270   14.5170   15.1850 N.3    87  ASP87      -0.1239
     79  CA        -5.9800   15.6390   14.4750 C.3    87  ASP87       0.1674
     80  C         -6.4180   15.2110   13.0680 C.2    87  ASP87       0.2266
     81  O         -7.5340   15.5030   12.6610 O.2    87  ASP87      -0.2867
     82  CB        -5.0180   16.8330   14.3410 C.3    87  ASP87       0.1410
     83  CG        -4.7480   17.5990   15.6130 C.2    87  ASP87       0.3668
     84  OD1       -5.6070   17.5610   16.5250 O.co2  87  ASP87      -0.2456
     85  OD2       -3.7020   18.2830   15.6800 O.co2  87  ASP87      -0.2456
     86  N        -10.3060   14.8340   12.6890 N.3    91  ASN91      -0.1225
     87  CA       -10.8850   16.0010   12.0070 C.3    91  ASN91       0.1785
     88  C        -10.8620   15.8930   10.4910 C.2    91  ASN91       0.2597
     89  O        -11.4280   16.7490    9.8070 O.2    91  ASN91      -0.2718
     90  CB       -10.2000   17.3040   12.4640 C.3    91  ASN91       0.1169
     91  CG       -10.4650   17.6450   13.9040 C.2    91  ASN91       0.2627
     92  OD1      -11.3810   18.3990   14.2170 O.2    91  ASN91      -0.2716
     93  ND2       -9.6390   17.1460   14.8090 N.am   91  ASN91      -0.0877
     94  N        -10.2380   14.8480    9.9640 N.am   92  LEU92      -0.1980
     95  CA       -10.1780   14.6690    8.5200 C.3    92  LEU92       0.1596
     96  C        -10.7390   13.3130    8.0730 C.2    92  LEU92       0.2287
     97  O        -10.2230   12.7010    7.1330 O.2    92  LEU92      -0.2864
     98  CB        -8.7520   14.9080    7.9990 C.3    92  LEU92       0.0297
     99  CG        -8.6010   15.7420    6.7400 C.3    92  LEU92       0.0022
    100  CD1       -9.3160   17.1010    6.8650 C.3    92  LEU92       0.0001
    101  CD2       -7.1200   15.9680    6.4230 C.3    92  LEU92       0.0001
    102  N        -18.6720   16.5110   11.6270 N.3    97  ARG97      -0.1245
    103  CA       -18.8750   17.8860   12.0550 C.3    97  ARG97       0.1563
    104  C        -20.3590   18.1650   11.7400 C.2    97  ARG97       0.2260
    105  O        -20.9270   17.5280   10.8420 O.2    97  ARG97      -0.2867
    106  CB       -17.9760   18.8340   11.2420 C.3    97  ARG97       0.0307
    107  CG       -16.4770   18.6420   11.4730 C.3    97  ARG97       0.0489
    108  CD       -15.6350   19.7630   10.8770 C.3    97  ARG97       0.2205
    109  NE       -15.8370   21.0280   11.5880 N.pl3  97  ARG97      -0.0865
    110  CZ       -15.1560   21.4020   12.6650 C.cat  97  ARG97       0.5346
    111  NH1      -15.4270   22.5570   13.2600 N.pl3  97  ARG97       0.1354
    112  NH2      -14.1930   20.6260   13.1540 N.pl3  97  ARG97       0.1354
    113  N        -16.8520   27.3180    3.3260 N.3   117  GLY117     -0.1225
    114  CA       -16.0270   27.8310    4.4210 C.3   117  GLY117      0.1811
    115  C        -16.7200   28.0260    5.7570 C.2   117  GLY117      0.2280
    116  O        -16.1670   27.6460    6.7930 O.2   117  GLY117     -0.2866
    117  N        -17.0580   24.6720    8.0240 N.3   120  GLY120     -0.1210
    118  CA       -15.8820   23.9670    8.5480 C.3   120  GLY120      0.1956
    119  C        -15.5010   22.7310    7.7610 C.2   120  GLY120      0.2612
    120  O        -14.9130   21.8000    8.3190 O.2   120  GLY120     -0.2717
    121  N        -15.8630   22.6960    6.4580 N.am  121  VAL121     -0.1965
    122  CA       -15.6330   21.5580    5.5610 C.3   121  VAL121      0.1727
    123  C        -15.0390   22.0160    4.2260 C.2   121  VAL121      0.2617
    124  O        -15.0290   21.2390    3.2740 O.2   121  VAL121     -0.2715
    125  CB       -16.9060   20.6700    5.3510 C.3   121  VAL121      0.0290
    126  CG1      -17.3290   19.9740    6.6450 C.3   121  VAL121      0.0023
    127  CG2      -18.0740   21.4700    4.7620 C.3   121  VAL121      0.0023
    128  N        -14.5680   23.2600    4.1680 N.am  122  GLY122     -0.1940
    129  CA       -13.9580   23.8600    2.9790 C.3   122  GLY122      0.2014
    130  C        -12.7800   23.0900    2.3940 C.2   122  GLY122      0.2639
    131  O        -12.5340   23.1680    1.1810 O.2   122  GLY122     -0.2714
    132  N        -12.0510   22.3120    3.2370 N.am  123  PHE123     -0.1959
    133  CA       -10.9260   21.4800    2.7650 C.3   123  PHE123      0.1771
    134  C        -11.3870   20.5360    1.6320 C.2   123  PHE123      0.2619
    135  O        -10.6830   20.3570    0.6450 O.2   123  PHE123     -0.2715
    136  CB       -10.3520   20.6390    3.9260 C.3   123  PHE123      0.0574
    137  CG        -9.5800   19.4120    3.4790 C.ar  123  PHE123     -0.0200
    138  CD1       -8.2630   19.5210    3.0430 C.ar  123  PHE123     -0.0042
    139  CD2      -10.1900   18.1580    3.4450 C.ar  123  PHE123     -0.0042
    140  CE1       -7.5700   18.3980    2.5890 C.ar  123  PHE123     -0.0003
    141  CE2       -9.4950   17.0370    2.9940 C.ar  123  PHE123     -0.0003
    142  CZ        -8.1780   17.1560    2.6000 C.ar  123  PHE123     -0.0000
    143  N        -12.5730   19.9380    1.7900 N.am  124  TYR124     -0.1974
    144  CA       -13.1210   18.9500    0.8510 C.3   124  TYR124      0.1639
    145  C        -13.4350   19.5380   -0.5480 C.2   124  TYR124      0.2290
    146  O        -13.6410   18.7680   -1.4790 O.2   124  TYR124     -0.2864
    147  CB       -14.3430   18.2650    1.4730 C.3   124  TYR124      0.0560
    148  CG       -13.9870   17.4710    2.7110 C.ar  124  TYR124     -0.0198
    149  CD1      -13.4000   16.2140    2.6110 C.ar  124  TYR124     -0.0009
    150  CD2      -14.2210   17.9840    3.9850 C.ar  124  TYR124     -0.0009
    151  CE1      -13.0370   15.4900    3.7450 C.ar  124  TYR124      0.0417
    152  CE2      -13.8950   17.2520    5.1290 C.ar  124  TYR124      0.0417
    153  CZ       -13.3050   16.0020    5.0030 C.ar  124  TYR124      0.1957
    154  OH       -12.9390   15.2750    6.1160 O.3   124  TYR124     -0.2866
    155  N         -2.2640   15.0130    2.4510 N.3   135  VAL135     -0.1245
    156  CA        -2.0050   15.9690    3.5340 C.3   135  VAL135      0.1561
    157  C         -0.8090   15.4680    4.3610 C.2   135  VAL135      0.2260
    158  O         -0.8860   14.4080    5.0010 O.2   135  VAL135     -0.2867
    159  CB        -3.2410   16.2500    4.4220 C.3   135  VAL135      0.0252
    160  CG1       -2.9160   17.3080    5.4750 C.3   135  VAL135      0.0019
    161  CG2       -4.4390   16.6830    3.5860 C.3   135  VAL135      0.0019
    162  N          2.1420   22.2190    7.3950 N.3   166  THR166     -0.1218
    163  CA         1.3310   21.3560    6.5520 C.3   166  THR166      0.1862
    164  C          1.5420   21.6480    5.0800 C.2   166  THR166      0.2287
    165  O          1.6620   22.8040    4.6740 O.2   166  THR166     -0.2866
    166  CB        -0.1510   21.5030    6.9370 C.3   166  THR166      0.1770
    167  OG1       -0.2840   21.3730    8.3560 O.3   166  THR166     -0.2211
    168  CG2       -1.0670   20.4970    6.2200 C.3   166  THR166      0.0375
    169  N         -0.4130   20.4950    1.4630 N.3   168  ILE168     -0.1245
    170  CA        -1.5910   19.8480    0.8890 C.3   168  ILE168      0.1561
    171  C         -1.3760   19.6990   -0.6180 C.2   168  ILE168      0.2260
    172  O         -1.3130   20.6940   -1.3390 O.2   168  ILE168     -0.2867
    173  CB        -2.9080   20.5830    1.2930 C.3   168  ILE168      0.0252
    174  CG1       -3.0960   20.4590    2.8350 C.3   168  ILE168      0.0019
    175  CG2       -4.1180   19.9830    0.5410 C.3   168  ILE168      0.0019
    176  CD1       -4.0840   21.2330    3.4480 C.3   168  ILE168      0.0001
@<TRIPOS>BOND
     1     7     6    1
     2   146   145    2
     3   172   171    2
     4   171   170    1
     5   145   144    1
     6     6     5    1
     7     6     8    1
     8     5     2    1
     9   175   173    1
    10   135   134    2
    11     1     2    1
    12   144   147    1
    13   144   143    1
    14   170   173    1
    15   170   169    1
    16     2     3    1
    17   131   130    2
    18   173   174    1
    19   147   148    1
    20   134   143   am
    21   134   133    1
    22     3     4    2
    23   130   129    1
    24   130   132   am
    25   155   156    1
    26   140   142   ar
    27   140   138   ar
    28   142   141   ar
    29   149   148   ar
    30   149   151   ar
    31   148   150   ar
    32   133   132    1
    33   133   136    1
    34   174   176    1
    35   129   128    1
    36   141   139   ar
    37     9    10    1
    38   138   137   ar
    39   124   123    2
    40   113   114    1
    41   139   137   ar
    42   137   136    1
    43   156   157    1
    44   156   159    1
    45   161   159    1
    46   151   153   ar
    47   150   152   ar
    48    13    10    1
    49    13    14    1
    50   128   123   am
    51   123   122    1
    52    10    11    1
    53    50    51    1
    54   157   158    2
    55   114   115    1
    56   159   160    1
    57    27    24    1
    58   165   164    2
    59    22    20   am
    60   127   125    1
    61   153   152   ar
    62   153   154    1
    63   164   163    1
    64    15    11   am
    65    15    16    1
    66    20    19    1
    67    20    21    2
    68   125   122    1
    69   125   126    1
    70    51    54    1
    71    51    52    1
    72    11    12    2
    73    19    16    1
    74   122   121    1
    75    23    24    1
    76    23    17   am
    77   115   116    2
    78    24    25    1
    79    54    55    1
    80    57    55   ar
    81    16    17    1
    82   168   166    1
    83   101    99    1
    84   121   119   am
    85    52    53    2
    86   163   166    1
    87   163   162    1
    88    17    18    2
    89    55    56   ar
    90    99   100    1
    91    99    98    1
    92    25    26    2
    93   166   167    1
    94    97    96    2
    95   119   120    2
    96   119   118    1
    97    98    95    1
    98   117   118    1
    99    96    95    1
   100    95    94    1
   101    77    76    1
   102    28    29    1
   103    89    88    2
   104    40    37    1
   105    94    88   am
   106    32    29    1
   107    32    33    1
   108    76    75    1
   109    29    30    1
   110    36    37    1
   111    36    30   am
   112    88    87    1
   113   105   104    2
   114   108   107    1
   115   108   109    1
   116    37    38    1
   117    30    31    2
   118   106   107    1
   119   106   103    1
   120    38    39    2
   121    33    35   ar
   122    33    34   ar
   123    75    74    1
   124   109   110    2
   125   102   103    1
   126   104   103    1
   127    74    71    1
   128    87    90    1
   129    87    86    1
   130    67    66    1
   131    67    68    1
   132    70    68   am
   133    70    71    1
   134    66    60   am
   135    90    91    1
   136    81    80    2
   137   110   112    1
   138   110   111    1
   139    73    72    2
   140    68    69    2
   141    58    59    1
   142    71    72    1
   143    80    79    1
   144    60    59    1
   145    60    61    2
   146    59    62    1
   147    91    92    2
   148    91    93   am
   149    64    62    1
   150    48    49    1
   151    48    47    1
   152    82    79    1
   153    82    83    1
   154    79    78    1
   155    41    42    1
   156    62    63    1
   157    46    47    1
   158    46    45    1
   159    45    42    1
   160    83    85   ar
   161    83    84   ar
   162    42    43    1
   163    63    65    1
   164    43    44    2
