@<TRIPOS>MOLECULE
tmp/3q5kA00.pdb
 186 175 0 0 0
SMALL
GASTEIGER

@<TRIPOS>ATOM
      1  N        -19.2350   -8.5220    7.5810 N.3    38  LEU38      -0.1245
      2  CA       -18.2310   -9.1620    8.4280 C.3    38  LEU38       0.1561
      3  C        -17.0580   -9.6360    7.5780 C.2    38  LEU38       0.2260
      4  O        -15.9060   -9.3480    7.9310 O.2    38  LEU38      -0.2867
      5  CB       -18.8080  -10.2900    9.2840 C.3    38  LEU38       0.0270
      6  CG       -19.8630   -9.9340   10.3530 C.3    38  LEU38       0.0019
      7  CD1      -20.4210  -11.1890   10.9750 C.3    38  LEU38       0.0001
      8  CD2      -19.3200   -9.0340   11.4330 C.3    38  LEU38       0.0001
      9  N        -15.1360   -6.5800    6.6890 N.3    41  ASN41      -0.1225
     10  CA       -14.3000   -6.2030    7.8230 C.3    41  ASN41       0.1785
     11  C        -13.0240   -7.0600    7.9260 C.2    41  ASN41       0.2597
     12  O        -11.9430   -6.5050    8.1230 O.2    41  ASN41      -0.2718
     13  CB       -15.1160   -6.2160    9.1030 C.3    41  ASN41       0.1169
     14  CG       -15.7860   -4.8850    9.3650 C.2    41  ASN41       0.2627
     15  OD1      -15.5240   -3.8970    8.6960 O.2    41  ASN41      -0.2716
     16  ND2      -16.6460   -4.8050   10.3560 N.am   41  ASN41      -0.0877
     17  N        -13.1770   -8.3960    7.7690 N.am   42  ALA42      -0.1979
     18  CA       -12.1560   -9.4300    7.7870 C.3    42  ALA42       0.1597
     19  C        -11.1020   -9.1450    6.6910 C.2    42  ALA42       0.2287
     20  O         -9.9010   -9.1300    7.0010 O.2    42  ALA42      -0.2864
     21  CB       -12.7950  -10.8040    7.5720 C.3    42  ALA42       0.0319
     22  N        -10.5300   -6.1810    5.1440 N.3    44  ASP44      -0.1225
     23  CA        -9.8040   -4.9490    5.4870 C.3    44  ASP44       0.1805
     24  C         -8.6970   -5.2010    6.5250 C.2    44  ASP44       0.2597
     25  O         -7.6900   -4.4900    6.5190 O.2    44  ASP44      -0.2718
     26  CB       -10.7580   -3.8880    6.0350 C.3    44  ASP44       0.1424
     27  CG       -11.8050   -3.3940    5.0630 C.2    44  ASP44       0.3668
     28  OD1      -11.9140   -3.9700    3.9530 O.co2  44  ASP44      -0.2456
     29  OD2      -12.4940   -2.4060    5.3920 O.co2  44  ASP44      -0.2456
     30  N         -8.8950   -6.2050    7.4140 N.am   45  ALA45      -0.1979
     31  CA        -7.9210   -6.5580    8.4440 C.3    45  ALA45       0.1597
     32  C         -6.7670   -7.3170    7.8180 C.2    45  ALA45       0.2287
     33  O         -5.6300   -7.1730    8.2670 O.2    45  ALA45      -0.2864
     34  CB        -8.5750   -7.3870    9.5380 C.3    45  ALA45       0.0319
     35  N         -4.7140   -4.6560    5.9690 N.3    48  LYS48      -0.1245
     36  CA        -3.9000   -3.9030    6.9380 C.3    48  LYS48       0.1561
     37  C         -2.6000   -4.6250    7.2750 C.2    48  LYS48       0.2260
     38  O         -1.5550   -3.9880    7.3380 O.2    48  LYS48      -0.2867
     39  CB        -4.6990   -3.5680    8.2110 C.3    48  LYS48       0.0271
     40  CG        -5.5810   -2.3290    8.0420 C.3    48  LYS48       0.0035
     41  CD        -6.1010   -1.8020    9.3760 C.3    48  LYS48       0.0206
     42  CE        -7.3380   -2.5370    9.8250 C.3    48  LYS48       0.1093
     43  NZ        -8.4790   -2.1470    8.9680 N.3    48  LYS48      -0.1314
     44  N        -10.7830  -14.5280   10.8730 N.3    79  ASP79      -0.1239
     45  CA        -9.7370  -14.0600    9.9840 C.3    79  ASP79       0.1674
     46  C         -8.3920  -14.0750   10.7410 C.2    79  ASP79       0.2266
     47  O         -8.3790  -14.0620   11.9810 O.2    79  ASP79      -0.2867
     48  CB       -10.0590  -12.6710    9.4150 C.3    79  ASP79       0.1410
     49  CG        -9.9090  -11.5240   10.3920 C.2    79  ASP79       0.3668
     50  OD1       -8.7450  -11.2320   10.8040 O.co2  79  ASP79      -0.2456
     51  OD2      -10.9400  -10.8440   10.6790 O.co2  79  ASP79      -0.2456
     52  N         -4.7900   -8.2290   10.8580 N.3    82  ILE82      -0.1231
     53  CA        -4.0330   -7.4280   11.8200 C.3    82  ILE82       0.1692
     54  C         -4.4140   -7.6030   13.2900 C.2    82  ILE82       0.2593
     55  O         -3.5680   -7.3790   14.1700 O.2    82  ILE82      -0.2718
     56  CB        -3.9290   -5.9250   11.4040 C.3    82  ILE82       0.0266
     57  CG1       -2.7190   -5.2240   12.1240 C.3    82  ILE82       0.0019
     58  CG2       -5.2650   -5.1650   11.6080 C.3    82  ILE82       0.0020
     59  CD1       -2.2800   -3.8560   11.5570 C.3    82  ILE82       0.0001
     60  N         -5.6750   -7.9470   13.5580 N.am   83  GLY83      -0.1942
     61  CA        -6.1670   -8.0700   14.9270 C.3    83  GLY83       0.2014
     62  C         -6.3510   -6.7060   15.5680 C.2    83  GLY83       0.2638
     63  O         -5.9150   -5.6840   15.0180 O.2    83  GLY83      -0.2714
     64  N         -6.9920   -6.6790   16.7390 N.am   84  MET84      -0.1976
     65  CA        -7.2520   -5.4440   17.4770 C.3    84  MET84       0.1605
     66  C         -6.6330   -5.4870   18.8670 C.2    84  MET84       0.2287
     67  O         -6.7760   -6.4880   19.5810 O.2    84  MET84      -0.2864
     68  CB        -8.7720   -5.1810   17.5940 C.3    84  MET84       0.0413
     69  CG        -9.4090   -4.6110   16.3320 C.3    84  MET84       0.0598
     70  SD       -11.2280   -4.7510   16.2830 S.3    84  MET84      -0.1393
     71  CE       -11.4140   -6.5330   15.9320 C.3    84  MET84       0.0692
     72  N         -8.1260   -0.5770   20.8630 N.3    88  ASP88      -0.1225
     73  CA        -9.0230   -0.6760   19.7150 C.3    88  ASP88       0.1805
     74  C        -10.4280   -1.1460   20.1960 C.2    88  ASP88       0.2597
     75  O        -11.4190   -0.4530   19.9600 O.2    88  ASP88      -0.2718
     76  CB        -8.4440   -1.6390   18.6530 C.3    88  ASP88       0.1424
     77  CG        -7.1270   -1.2250   18.0110 C.2    88  ASP88       0.3668
     78  OD1       -6.4030   -2.1190   17.5090 O.co2  88  ASP88      -0.2456
     79  OD2       -6.8470   -0.0090   17.9560 O.co2  88  ASP88      -0.2456
     80  N        -10.4800   -2.2610   20.9410 N.am   89  LEU89      -0.1979
     81  CA       -11.7140   -2.8540   21.4590 C.3    89  LEU89       0.1596
     82  C        -12.4830   -2.0080   22.4840 C.2    89  LEU89       0.2287
     83  O        -13.7140   -1.9240   22.3950 O.2    89  LEU89      -0.2864
     84  CB       -11.4530   -4.2440   22.0460 C.3    89  LEU89       0.0297
     85  CG       -10.8440   -5.2980   21.1420 C.3    89  LEU89       0.0022
     86  CD1      -10.5100   -6.5340   21.9440 C.3    89  LEU89       0.0001
     87  CD2      -11.7730   -5.6660   19.9910 C.3    89  LEU89       0.0001
     88  N        -14.0410    1.1710   20.8560 N.3    92  ASN92      -0.1225
     89  CA       -14.8540    0.7850   19.7000 C.3    92  ASN92       0.1785
     90  C        -14.2930    1.5370   18.4810 C.2    92  ASN92       0.2597
     91  O        -14.9920    2.2990   17.8140 O.2    92  ASN92      -0.2718
     92  CB       -16.3580    1.0230   19.9370 C.3    92  ASN92       0.1169
     93  CG       -16.9510    0.1710   21.0220 C.2    92  ASN92       0.2627
     94  OD1      -17.0150   -1.0660   20.9450 O.2    92  ASN92      -0.2716
     95  ND2      -17.4670    0.8300   22.0310 N.am   92  ASN92      -0.0877
     96  N        -12.9740    1.3800   18.2850 N.am   93  LEU93      -0.1980
     97  CA       -12.1560    2.0170   17.2580 C.3    93  LEU93       0.1596
     98  C        -12.1590    3.5610   17.3330 C.2    93  LEU93       0.2287
     99  O        -11.7730    4.2390   16.3810 O.2    93  LEU93      -0.2864
    100  CB       -12.4380    1.4630   15.8450 C.3    93  LEU93       0.0297
    101  CG       -12.4080   -0.0550   15.6910 C.3    93  LEU93       0.0022
    102  CD1      -12.8000   -0.4450   14.3000 C.3    93  LEU93       0.0001
    103  CD2      -11.0360   -0.6380   16.0210 C.3    93  LEU93       0.0001
    104  N        -13.8560    6.5980   14.9250 N.3    96  ILE96      -0.1231
    105  CA       -14.3510    5.8390   13.7690 C.3    96  ILE96       0.1692
    106  C        -15.8280    5.4540   13.9110 C.2    96  ILE96       0.2591
    107  O        -16.6280    5.8070   13.0420 O.2    96  ILE96      -0.2718
    108  CB       -13.4590    4.6070   13.4750 C.3    96  ILE96       0.0266
    109  CG1      -12.1050    5.1010   12.9250 C.3    96  ILE96       0.0019
    110  CG2      -14.1410    3.6460   12.5320 C.3    96  ILE96       0.0020
    111  CD1      -11.0500    4.0330   12.8500 C.3    96  ILE96       0.0001
    112  N        -16.1910    4.7660   15.0120 N.am   97  ALA97      -0.1980
    113  CA       -17.5690    4.3400   15.2510 C.3    97  ALA97       0.1597
    114  C        -18.5190    5.4940   15.5390 C.2    97  ALA97       0.2287
    115  O        -19.6160    5.5020   14.9920 O.2    97  ALA97      -0.2864
    116  CB       -17.6340    3.3080   16.3660 C.3    97  ALA97       0.0319
    117  N        -18.2700    2.8350    7.7790 N.3   121  GLY121     -0.1210
    118  CA       -17.2730    2.0950    8.5480 C.3   121  GLY121      0.1956
    119  C        -17.8000    1.3240    9.7410 C.2   121  GLY121      0.2611
    120  O        -17.0130    0.7400   10.4960 O.2   121  GLY121     -0.2717
    121  N        -19.1340    1.2900    9.9070 N.am  122  VAL122     -0.1979
    122  CA       -19.7760    0.6720   11.0560 C.3   122  VAL122      0.1595
    123  C        -20.5970   -0.5710   10.7210 C.2   122  VAL122      0.2287
    124  O        -21.5200   -0.9230   11.4500 O.2   122  VAL122     -0.2864
    125  CB       -20.5520    1.7260   11.8830 C.3   122  VAL122      0.0276
    126  CG1      -19.5980    2.7740   12.4560 C.3   122  VAL122      0.0022
    127  CG2      -21.6750    2.3840   11.0680 C.3   122  VAL122      0.0022
    128  N        -19.8570   -3.5790   11.0660 N.3   124  PHE124     -0.1227
    129  CA       -19.7530   -4.6140   12.1190 C.3   124  PHE124      0.1736
    130  C        -21.1230   -4.7890   12.8480 C.2   124  PHE124      0.2595
    131  O        -21.5550   -5.9150   13.1060 O.2   124  PHE124     -0.2718
    132  CB       -18.6240   -4.2820   13.1380 C.3   124  PHE124      0.0547
    133  CG       -18.8010   -4.9540   14.4820 C.ar  124  PHE124     -0.0202
    134  CD1      -18.5900   -6.3220   14.6260 C.ar  124  PHE124     -0.0042
    135  CD2      -19.2680   -4.2360   15.5810 C.ar  124  PHE124     -0.0042
    136  CE1      -18.8150   -6.9560   15.8490 C.ar  124  PHE124     -0.0003
    137  CE2      -19.5250   -4.8780   16.7950 C.ar  124  PHE124     -0.0003
    138  CZ       -19.2750   -6.2320   16.9280 C.ar  124  PHE124     -0.0000
    139  N        -21.7830   -3.6690   13.1560 N.am  125  TYR125     -0.1976
    140  CA       -23.0550   -3.6530   13.8830 C.3   125  TYR125      0.1639
    141  C        -24.2590   -4.3170   13.2210 C.2   125  TYR125      0.2290
    142  O        -25.2270   -4.6450   13.8950 O.2   125  TYR125     -0.2864
    143  CB       -23.3580   -2.2700   14.4170 C.3   125  TYR125      0.0560
    144  CG       -22.3790   -1.8720   15.4920 C.ar  125  TYR125     -0.0198
    145  CD1      -22.4810   -2.3890   16.7830 C.ar  125  TYR125     -0.0009
    146  CD2      -21.3320   -0.9960   15.2180 C.ar  125  TYR125     -0.0009
    147  CE1      -21.5850   -2.0150   17.7830 C.ar  125  TYR125      0.0417
    148  CE2      -20.4320   -0.6140   16.2100 C.ar  125  TYR125      0.0417
    149  CZ       -20.5580   -1.1370   17.4870 C.ar  125  TYR125      0.1957
    150  OH       -19.6950   -0.7440   18.4690 O.3   125  TYR125     -0.2866
    151  N        -16.5720  -10.9560   20.1960 N.3   136  VAL136     -0.1245
    152  CA       -15.4310  -10.6200   19.3480 C.3   136  VAL136      0.1561
    153  C        -14.1430  -10.9470   20.1180 C.2   136  VAL136      0.2260
    154  O        -13.8460  -10.3000   21.1190 O.2   136  VAL136     -0.2867
    155  CB       -15.4750   -9.1270   18.9020 C.3   136  VAL136      0.0252
    156  CG1      -14.2160   -8.7420   18.1240 C.3   136  VAL136      0.0019
    157  CG2      -16.7470   -8.8220   18.0910 C.3   136  VAL136      0.0019
    158  N        -14.4120   -9.1870   23.5070 N.3   148  TRP148     -0.1241
    159  CA       -15.4370   -8.1330   23.5350 C.3   148  TRP148      0.1605
    160  C        -16.7500   -8.8820   23.4330 C.2   148  TRP148      0.2264
    161  O        -16.8490   -9.8140   22.6550 O.2   148  TRP148     -0.2867
    162  CB       -15.2880   -7.2310   22.3020 C.3   148  TRP148      0.0550
    163  CG       -16.2500   -6.0840   22.1940 C.ar  148  TRP148      0.0003
    164  CD1      -15.9840   -4.7740   22.4710 C.ar  148  TRP148      0.0946
    165  CD2      -17.5620   -6.1090   21.6020 C.ar  148  TRP148      0.0152
    166  NE1      -17.0680   -3.9890   22.1430 N.ar  148  TRP148     -0.2442
    167  CE2      -18.0500   -4.7830   21.6050 C.ar  148  TRP148      0.0810
    168  CE3      -18.3760   -7.1250   21.0770 C.ar  148  TRP148      0.0012
    169  CZ2      -19.3200   -4.4510   21.1160 C.ar  148  TRP148      0.0191
    170  CZ3      -19.6330   -6.7990   20.5910 C.ar  148  TRP148      0.0001
    171  CH2      -20.0890   -5.4770   20.5980 C.ar  148  TRP148      0.0015
    172  N         -8.9680  -12.0950   14.2440 N.3   170  THR170     -0.1218
    173  CA       -10.2480  -11.8140   14.8620 C.3   170  THR170      0.1862
    174  C        -11.2100  -12.9340   14.6080 C.2   170  THR170      0.2287
    175  O        -11.3180  -13.4400   13.4880 O.2   170  THR170     -0.2866
    176  CB       -10.7640  -10.4300   14.4670 C.3   170  THR170      0.1770
    177  OG1       -9.8140   -9.4520   14.8840 O.3   170  THR170     -0.2211
    178  CG2      -12.1040  -10.0850   15.1090 C.3   170  THR170      0.0375
    179  N        -15.2110  -13.4910   15.2470 N.3   172  ILE172     -0.1245
    180  CA       -16.4890  -12.8480   15.5610 C.3   172  ILE172      0.1561
    181  C        -17.5100  -13.9490   15.6530 C.2   172  ILE172      0.2260
    182  O        -17.6710  -14.6840   14.6930 O.2   172  ILE172     -0.2867
    183  CB       -16.8800  -11.8040   14.4780 C.3   172  ILE172      0.0252
    184  CG1      -15.6930  -10.8330   14.1870 C.3   172  ILE172      0.0019
    185  CG2      -18.2010  -11.0690   14.8570 C.3   172  ILE172      0.0019
    186  CD1      -16.0110   -9.4120   13.7500 C.3   172  ILE172      0.0001
@<TRIPOS>BOND
     1    28    27   ar
     2    27    29   ar
     3    27    26    1
     4    22    23    1
     5    23    26    1
     6    23    24    1
     7    35    36    1
     8    25    24    2
     9    24    30   am
    10     9    10    1
    11    19    20    2
    12    19    18    1
    13    36    37    1
    14    36    39    1
    15    37    38    2
    16    30    31    1
    17    21    18    1
    18     3     4    2
    19     3     2    1
    20     1     2    1
    21    17    18    1
    22    17    11   am
    23   117   118    1
    24    32    33    2
    25    32    31    1
    26    10    11    1
    27    10    13    1
    28    11    12    2
    29    40    39    1
    30    40    41    1
    31     2     5    1
    32    31    34    1
    33   118   119    1
    34    15    14    2
    35    43    42    1
    36    13    14    1
    37     5     6    1
    38    14    16   am
    39    41    42    1
    40    48    45    1
    41    48    49    1
    42   119   121   am
    43   119   120    2
    44   121   122    1
    45    45    46    1
    46    45    44    1
    47     6     7    1
    48     6     8    1
    49    49    51   ar
    50    49    50   ar
    51   123   122    1
    52   123   124    2
    53    46    47    2
    54    52    53    1
    55   122   125    1
    56   128   129    1
    57   127   125    1
    58    56    58    1
    59    56    53    1
    60    56    57    1
    61    59    57    1
    62    53    54    1
    63   125   126    1
    64   129   130    1
    65   129   132    1
    66   110   108    1
    67   130   131    2
    68   130   139   am
    69   111   109    1
    70   109   108    1
    71   107   106    2
    72   132   133    1
    73   139   140    1
    74   141   140    1
    75   141   142    2
    76    54    60   am
    77    54    55    2
    78   108   105    1
    79   175   174    2
    80    60    61    1
    81   186   184    1
    82   105   106    1
    83   105   104    1
    84   140   143    1
    85   106   112   am
    86   184   183    1
    87   172   173    1
    88   102   101    1
    89   143   144    1
    90   176   173    1
    91   176   177    1
    92   176   178    1
    93   183   185    1
    94   183   180    1
    95   133   134   ar
    96   133   135   ar
    97   174   173    1
    98   134   136   ar
    99   182   181    2
   100    61    62    1
   101   115   114    2
   102   112   113    1
   103    63    62    2
   104   146   144   ar
   105   146   148   ar
   106   179   180    1
   107   113   114    1
   108   113   116    1
   109   144   145   ar
   110   180   181    1
   111    62    64   am
   112   135   137   ar
   113   101   100    1
   114   101   103    1
   115   100    97    1
   116   136   138   ar
   117    71    70    1
   118   148   149   ar
   119    70    69    1
   120    69    68    1
   121    99    98    2
   122    64    65    1
   123   145   147   ar
   124   137   138   ar
   125    97    98    1
   126    97    96    1
   127    65    68    1
   128    65    66    1
   129   149   147   ar
   130   149   150    1
   131    78    77   ar
   132    91    90    2
   133    79    77   ar
   134    77    76    1
   135   157   155    1
   136   156   155    1
   137    96    90   am
   138    90    89    1
   139    76    73    1
   140    66    67    2
   141   155   152    1
   142   152   153    1
   143   152   151    1
   144    89    92    1
   145    89    88    1
   146    73    74    1
   147    73    72    1
   148    92    93    1
   149    75    74    2
   150    87    85    1
   151   153   154    2
   152    74    80   am
   153   170   171   ar
   154   170   168   ar
   155   171   169   ar
   156    80    81    1
   157    94    93    2
   158    93    95   am
   159   168   165   ar
   160   169   167   ar
   161    85    86    1
   162    85    84    1
   163    81    84    1
   164    81    82    1
   165   165   167   ar
   166   165   163   ar
   167   167   166   ar
   168   166   164   ar
   169   163   162    1
   170   163   164   ar
   171   162   159    1
   172    83    82    2
   173   161   160    2
   174   160   159    1
   175   158   159    1
