@<TRIPOS>MOLECULE
tmp/3q5lD00.pdb
 169 158 0 0 0
SMALL
GASTEIGER

@<TRIPOS>ATOM
      1  N        -28.7480  -23.4620   10.5790 N.3    40  LEU40      -0.1245
      2  CA       -28.1710  -22.2200   10.0860 C.3    40  LEU40       0.1561
      3  C        -26.7890  -22.4860    9.5370 C.2    40  LEU40       0.2260
      4  O        -26.4100  -21.9490    8.4810 O.2    40  LEU40      -0.2867
      5  CB       -28.1030  -21.1700   11.1720 C.3    40  LEU40       0.0270
      6  CG       -29.4460  -20.7670   11.7720 C.3    40  LEU40       0.0019
      7  CD1      -29.2390  -19.9190   13.0480 C.3    40  LEU40       0.0001
      8  CD2      -30.3280  -20.0670   10.7480 C.3    40  LEU40       0.0001
      9  N        -25.8790  -25.3030    8.3040 N.3    42  SER42      -0.1202
     10  CA       -26.1080  -26.0670    7.1000 C.3    42  SER42       0.2020
     11  C        -26.3630  -25.1520    5.8840 C.2    42  SER42       0.2619
     12  O        -25.8770  -25.4170    4.7880 O.2    42  SER42      -0.2717
     13  CB       -27.3030  -26.9970    7.2950 C.3    42  SER42       0.2103
     14  OG       -27.3260  -27.9840    6.2810 O.3    42  SER42      -0.2182
     15  N        -27.1260  -24.0830    6.1080 N.am   43  ASN43      -0.1960
     16  CA       -27.4360  -23.1250    5.0730 C.3    43  ASN43       0.1819
     17  C        -26.2240  -22.2980    4.7160 C.2    43  ASN43       0.2621
     18  O        -25.9560  -22.0660    3.5580 O.2    43  ASN43      -0.2715
     19  CB       -28.5680  -22.2230    5.5180 C.3    43  ASN43       0.1195
     20  CG       -29.8370  -22.9880    5.8130 C.2    43  ASN43       0.2630
     21  OD1      -30.0330  -24.1020    5.3250 O.2    43  ASN43      -0.2716
     22  ND2      -30.7160  -22.3830    6.6000 N.am   43  ASN43      -0.0877
     23  N        -25.4880  -21.8690    5.7320 N.am   44  ALA44      -0.1977
     24  CA       -24.2010  -21.2130    5.5580 C.3    44  ALA44       0.1597
     25  C        -23.3270  -22.0480    4.6500 C.2    44  ALA44       0.2287
     26  O        -22.7060  -21.5320    3.7140 O.2    44  ALA44      -0.2864
     27  CB       -23.5200  -21.0230    6.9280 C.3    44  ALA44       0.0319
     28  N        -24.1800  -24.3050    2.5250 N.3    46  ASP46      -0.1225
     29  CA       -24.7490  -24.4100    1.2000 C.3    46  ASP46       0.1805
     30  C        -24.3640  -23.1610    0.3790 C.2    46  ASP46       0.2597
     31  O        -23.9470  -23.2580   -0.7830 O.2    46  ASP46      -0.2718
     32  CB       -26.2660  -24.5500    1.3020 C.3    46  ASP46       0.1424
     33  CG       -26.9550  -24.5880   -0.0750 C.2    46  ASP46       0.3668
     34  OD1      -26.8770  -25.6310   -0.7520 O.co2  46  ASP46      -0.2456
     35  OD2      -27.5910  -23.5840   -0.4580 O.co2  46  ASP46      -0.2456
     36  N        -24.4760  -21.9960    1.0250 N.am   47  ALA47      -0.1979
     37  CA       -24.0520  -20.7130    0.4410 C.3    47  ALA47       0.1597
     38  C        -22.5720  -20.7240    0.0540 C.2    47  ALA47       0.2287
     39  O        -22.1960  -20.1830   -0.9700 O.2    47  ALA47      -0.2864
     40  CB       -24.3250  -19.5930    1.4100 C.3    47  ALA47       0.0319
     41  N        -22.1360  -22.9490   -3.1180 N.3    50  LYS50      -0.1245
     42  CA       -22.6260  -22.3960   -4.3640 C.3    50  LYS50       0.1561
     43  C        -21.6130  -21.4430   -4.9840 C.2    50  LYS50       0.2260
     44  O        -21.4010  -21.4870   -6.1990 O.2    50  LYS50      -0.2867
     45  CB       -24.0070  -21.7520   -4.1960 C.3    50  LYS50       0.0271
     46  CG       -25.0420  -22.7270   -3.6740 C.3    50  LYS50       0.0035
     47  CD       -26.4280  -22.5560   -4.2420 C.3    50  LYS50       0.0206
     48  CE       -27.4110  -23.2660   -3.3570 C.3    50  LYS50       0.1093
     49  NZ       -28.7920  -23.3350   -3.8280 N.3    50  LYS50      -0.1314
     50  N        -21.5230  -16.1150    7.1420 N.3    85  ASP85      -0.1239
     51  CA       -20.7170  -16.7810    6.1240 C.3    85  ASP85       0.1674
     52  C        -20.3100  -15.7800    5.0610 C.2    85  ASP85       0.2266
     53  O        -20.9270  -14.7340    4.9200 O.2    85  ASP85      -0.2867
     54  CB       -21.5050  -17.9070    5.4880 C.3    85  ASP85       0.1410
     55  CG       -22.6320  -17.4060    4.6010 C.2    85  ASP85       0.3668
     56  OD1      -22.3540  -17.0800    3.4310 O.co2  85  ASP85      -0.2456
     57  OD2      -23.7930  -17.3590    5.0580 O.co2  85  ASP85      -0.2456
     58  N        -22.2610  -17.1670   -1.3070 N.3    88  ILE88      -0.1231
     59  CA       -22.7400  -16.4590   -2.5090 C.3    88  ILE88       0.1692
     60  C        -23.6450  -15.2620   -2.1910 C.2    88  ILE88       0.2593
     61  O        -23.8130  -14.3840   -3.0130 O.2    88  ILE88      -0.2718
     62  CB       -23.4990  -17.4240   -3.4560 C.3    88  ILE88       0.0266
     63  CG1      -23.6430  -16.8250   -4.8700 C.3    88  ILE88       0.0019
     64  CG2      -24.8630  -17.7650   -2.8800 C.3    88  ILE88       0.0020
     65  CD1      -23.8430  -17.8740   -5.9920 C.3    88  ILE88       0.0001
     66  N        -24.2400  -15.2510   -1.0080 N.am   89  GLY89      -0.1942
     67  CA       -25.1820  -14.2120   -0.6270 C.3    89  GLY89       0.2014
     68  C        -26.4780  -14.2010   -1.4290 C.2    89  GLY89       0.2638
     69  O        -26.5850  -14.8320   -2.4810 O.2    89  GLY89      -0.2714
     70  N        -27.4510  -13.4470   -0.9190 N.am   90  MET90      -0.1976
     71  CA       -28.7580  -13.3050   -1.5400 C.3    90  MET90       0.1605
     72  C        -28.9950  -11.8800   -2.0530 C.2    90  MET90       0.2287
     73  O        -28.5720  -10.8980   -1.4350 O.2    90  MET90      -0.2864
     74  CB       -29.8420  -13.6690   -0.5280 C.3    90  MET90       0.0413
     75  CG       -29.9550  -15.1620   -0.2790 C.3    90  MET90       0.0598
     76  SD       -30.9090  -15.5730    1.1850 S.3    90  MET90      -0.1393
     77  CE       -29.8120  -14.9410    2.4420 C.3    90  MET90       0.0692
     78  N        -34.0120  -12.5600   -4.2640 N.3    94  ASP94      -0.1239
     79  CA       -33.8320  -13.7810   -3.4510 C.3    94  ASP94       0.1674
     80  C        -34.4880  -13.6780   -2.0590 C.2    94  ASP94       0.2266
     81  O        -35.1160  -14.6220   -1.6130 O.2    94  ASP94      -0.2867
     82  CB       -32.3440  -14.1180   -3.2660 C.3    94  ASP94       0.1410
     83  CG       -31.6650  -14.5590   -4.5520 C.2    94  ASP94       0.3668
     84  OD1      -32.3590  -14.9020   -5.5410 O.co2  94  ASP94      -0.2456
     85  OD2      -30.4140  -14.5530   -4.5670 O.co2  94  ASP94      -0.2456
     86  N        -37.6010  -16.0250   -1.7590 N.3    98  ASN98      -0.1225
     87  CA       -37.2390  -17.2730   -1.1110 C.3    98  ASN98       0.1785
     88  C        -37.3140  -17.2310    0.3970 C.2    98  ASN98       0.2597
     89  O        -37.2070  -18.2770    1.0600 O.2    98  ASN98      -0.2718
     90  CB       -35.8600  -17.6960   -1.5590 C.3    98  ASN98       0.1169
     91  CG       -35.8680  -18.2170   -2.9460 C.2    98  ASN98       0.2627
     92  OD1      -36.2920  -19.3260   -3.1540 O.2    98  ASN98      -0.2716
     93  ND2      -35.4300  -17.4090   -3.9180 N.am   98  ASN98      -0.0877
     94  N        -37.5360  -16.0380    0.9420 N.am   99  LEU99      -0.1980
     95  CA       -37.5650  -15.8580    2.3750 C.3    99  LEU99       0.1596
     96  C        -38.8750  -15.1800    2.8090 C.2    99  LEU99       0.2287
     97  O        -38.8920  -14.3730    3.7360 O.2    99  LEU99      -0.2864
     98  CB       -36.3180  -15.0550    2.7870 C.3    99  LEU99       0.0297
     99  CG       -35.6540  -15.3560    4.1340 C.3    99  LEU99       0.0022
    100  CD1      -35.3800  -16.8310    4.3260 C.3    99  LEU99       0.0001
    101  CD2      -34.3560  -14.5690    4.2610 C.3    99  LEU99       0.0001
    102  N        -42.5320  -23.1120   -1.2230 N.3   104  ARG104     -0.1245
    103  CA       -42.2540  -24.3110   -1.9860 C.3   104  ARG104      0.1563
    104  C        -43.0170  -25.5010   -1.4110 C.2   104  ARG104      0.2260
    105  O        -43.7200  -25.3820   -0.4030 O.2   104  ARG104     -0.2867
    106  CB       -40.7270  -24.5750   -2.0540 C.3   104  ARG104      0.0307
    107  CG       -40.0080  -23.5900   -3.0340 C.3   104  ARG104      0.0489
    108  CD       -38.8790  -24.2220   -3.9140 C.3   104  ARG104      0.2205
    109  NE       -37.8090  -24.9500   -3.2120 N.pl3 104  ARG104     -0.0865
    110  CZ       -37.1900  -24.5670   -2.0850 C.cat 104  ARG104      0.5346
    111  NH1      -36.2410  -25.3600   -1.5860 N.pl3 104  ARG104      0.1354
    112  NH2      -37.4920  -23.4330   -1.4490 N.pl3 104  ARG104      0.1354
    113  N        -34.9830  -29.4640    8.0430 N.3   124  GLY124     -0.1225
    114  CA       -34.0280  -29.1660    6.9830 C.3   124  GLY124      0.1811
    115  C        -34.3810  -29.8670    5.6960 C.2   124  GLY124      0.2280
    116  O        -34.3450  -29.2920    4.6510 O.2   124  GLY124     -0.2866
    117  N        -36.6320  -27.9520    3.3000 N.3   127  GLY127     -0.1210
    118  CA       -36.2050  -26.6840    2.7480 C.3   127  GLY127      0.1956
    119  C        -36.8000  -25.4670    3.4300 C.2   127  GLY127      0.2612
    120  O        -36.8140  -24.3960    2.8430 O.2   127  GLY127     -0.2717
    121  N        -37.2800  -25.6370    4.6670 N.am  128  VAL128     -0.1965
    122  CA       -37.7990  -24.5480    5.4800 C.3   128  VAL128      0.1727
    123  C        -37.1310  -24.5060    6.8630 C.2   128  VAL128      0.2617
    124  O        -37.6770  -23.9260    7.8040 O.2   128  VAL128     -0.2715
    125  CB       -39.3560  -24.6490    5.6800 C.3   128  VAL128      0.0290
    126  CG1      -40.0880  -24.6030    4.3340 C.3   128  VAL128      0.0023
    127  CG2      -39.7460  -25.9020    6.4950 C.3   128  VAL128      0.0023
    128  N        -35.9480  -25.1000    6.9900 N.am  129  GLY129     -0.1940
    129  CA       -35.2580  -25.1560    8.2790 C.3   129  GLY129      0.2014
    130  C        -34.7130  -23.8280    8.7810 C.2   129  GLY129      0.2639
    131  O        -34.3460  -23.7020    9.9550 O.2   129  GLY129     -0.2714
    132  N        -34.6250  -22.8360    7.9000 N.am  130  PHE130     -0.1959
    133  CA       -34.2500  -21.4880    8.3280 C.3   130  PHE130      0.1771
    134  C        -35.1550  -21.0300    9.4560 C.2   130  PHE130      0.2619
    135  O        -34.6900  -20.4870   10.4460 O.2   130  PHE130     -0.2715
    136  CB       -34.3610  -20.5090    7.1790 C.3   130  PHE130      0.0574
    137  CG       -34.4150  -19.0890    7.6070 C.ar  130  PHE130     -0.0200
    138  CD1      -33.2670  -18.4420    8.0580 C.ar  130  PHE130     -0.0042
    139  CD2      -35.6140  -18.3830    7.5590 C.ar  130  PHE130     -0.0042
    140  CE1      -33.3120  -17.1210    8.4500 C.ar  130  PHE130     -0.0003
    141  CE2      -35.6670  -17.0650    7.9520 C.ar  130  PHE130     -0.0003
    142  CZ       -34.5110  -16.4320    8.3970 C.ar  130  PHE130     -0.0000
    143  N        -36.4520  -21.2800    9.2970 N.am  131  TYR131     -0.1974
    144  CA       -37.4550  -20.8140   10.2280 C.3   131  TYR131      0.1639
    145  C        -37.3710  -21.4780   11.5950 C.2   131  TYR131      0.2290
    146  O        -38.0080  -21.0240   12.5380 O.2   131  TYR131     -0.2864
    147  CB       -38.8350  -21.0130    9.6360 C.3   131  TYR131      0.0560
    148  CG       -39.0570  -20.2070    8.3850 C.ar  131  TYR131     -0.0198
    149  CD1      -39.4210  -18.8850    8.4490 C.ar  131  TYR131     -0.0009
    150  CD2      -38.9030  -20.7800    7.1240 C.ar  131  TYR131     -0.0009
    151  CE1      -39.6180  -18.1510    7.2990 C.ar  131  TYR131      0.0417
    152  CE2      -39.1090  -20.0490    5.9810 C.ar  131  TYR131      0.0417
    153  CZ       -39.4590  -18.7400    6.0810 C.ar  131  TYR131      0.1957
    154  OH       -39.6540  -18.0160    4.9510 O.3   131  TYR131     -0.2866
    155  N        -23.5960  -13.4690    4.0810 N.3   176  THR176     -0.1218
    156  CA       -24.8450  -13.2910    4.8280 C.3   176  THR176      0.1862
    157  C        -24.5850  -13.3680    6.3310 C.2   176  THR176      0.2287
    158  O        -23.6980  -14.1010    6.7580 O.2   176  THR176     -0.2866
    159  CB       -25.8620  -14.3680    4.4230 C.3   176  THR176      0.1770
    160  OG1      -26.1410  -14.2390    3.0260 O.3   176  THR176     -0.2211
    161  CG2      -27.1630  -14.2430    5.2020 C.3   176  THR176      0.0375
    162  N        -26.9670  -14.0040    9.8950 N.3   178  ILE178     -0.1245
    163  CA       -28.2710  -14.2970   10.5120 C.3   178  ILE178      0.1561
    164  C        -28.1810  -13.9880   12.0080 C.2   178  ILE178      0.2260
    165  O        -27.6450  -14.7810   12.7810 O.2   178  ILE178     -0.2867
    166  CB       -28.7150  -15.7730   10.3040 C.3   178  ILE178      0.0252
    167  CG1      -28.3460  -16.3000    8.8940 C.3   178  ILE178      0.0019
    168  CG2      -30.1970  -15.9000   10.5230 C.3   178  ILE178      0.0019
    169  CD1      -29.0690  -15.6490    7.7700 C.3   178  ILE178      0.0001
@<TRIPOS>BOND
     1    44    43    2
     2    65    63    1
     3    84    83   ar
     4    43    42    1
     5    63    62    1
     6    85    83   ar
     7    83    82    1
     8    42    45    1
     9    42    41    1
    10    78    79    1
    11    47    46    1
    12    47    48    1
    13    45    46    1
    14    93    91   am
    15   108   109    1
    16   108   107    1
    17    49    48    1
    18    62    64    1
    19    62    59    1
    20    79    82    1
    21    79    80    1
    22   109   110    2
    23    92    91    2
    24   107   106    1
    25    61    60    2
    26    91    90    1
    27    59    60    1
    28    59    58    1
    29    69    68    2
    30    60    66   am
    31   110   111    1
    32   110   112    1
    33    80    81    2
    34   106   103    1
    35    72    71    1
    36    72    73    2
    37   103   104    1
    38   103   102    1
    39    86    87    1
    40    90    87    1
    41    71    70    1
    42    71    74    1
    43    68    70   am
    44    68    67    1
    45   104   105    2
    46    87    88    1
    47    66    67    1
    48    39    38    2
    49    31    30    2
    50    34    33   ar
    51    74    75    1
    52    35    33   ar
    53    75    76    1
    54    33    32    1
    55    38    37    1
    56    30    36   am
    57    30    29    1
    58    88    94   am
    59    88    89    2
    60    37    36    1
    61    37    40    1
    62    94    95    1
    63    76    77    1
    64    29    32    1
    65    29    28    1
    66    95    98    1
    67    95    96    1
    68   118   117    1
    69   118   119    1
    70    98    99    1
    71    96    97    2
    72   120   119    2
    73   160   159    1
    74   119   121   am
    75    56    55   ar
    76    18    17    2
    77    26    25    2
    78   155   156    1
    79    99   101    1
    80    99   100    1
    81   126   125    1
    82   159   156    1
    83   159   161    1
    84    55    57   ar
    85    55    54    1
    86    25    24    1
    87   116   115    2
    88   121   122    1
    89    17    16    1
    90    17    23   am
    91    12    11    2
    92   156   157    1
    93    53    52    2
    94   154   153    1
    95    52    51    1
    96    16    19    1
    97    16    15    1
    98    21    20    2
    99   122   125    1
   100   122   123    1
   101    54    51    1
   102    19    20    1
   103    24    23    1
   104    24    27    1
   105   125   127    1
   106   115   114    1
   107    20    22   am
   108    11    15   am
   109    11    10    1
   110   152   153   ar
   111   152   150   ar
   112   153   151   ar
   113    51    50    1
   114    14    13    1
   115   157   158    2
   116   123   128   am
   117   123   124    2
   118   114   113    1
   119   128   129    1
   120    10    13    1
   121    10     9    1
   122   150   148   ar
   123   136   137    1
   124   136   133    1
   125   151   149   ar
   126   139   137   ar
   127   139   141   ar
   128   137   138   ar
   129   169   167    1
   130   132   133    1
   131   132   130   am
   132   141   142   ar
   133   138   140   ar
   134   129   130    1
   135   133   134    1
   136   148   149   ar
   137   148   147    1
   138   142   140   ar
   139     4     3    2
   140   130   131    2
   141   167   166    1
   142   143   134   am
   143   143   144    1
   144   134   135    2
   145     3     2    1
   146   147   144    1
   147   162   163    1
   148     2     1    1
   149     2     5    1
   150   144   145    1
   151   166   163    1
   152   166   168    1
   153   163   164    1
   154     8     6    1
   155     5     6    1
   156   145   146    2
   157     6     7    1
   158   164   165    2
