@<TRIPOS>MOLECULE
tmp/3q5pA00.pdb
 165 160 0 0 0
SMALL
GASTEIGER

@<TRIPOS>ATOM
      1  N         60.8350   30.6960   66.8070 N.3   143  PRO143     -0.2102
      2  CA        60.3350   29.3630   67.1310 C.3   143  PRO143      0.1504
      3  C         58.8490   29.4380   67.4500 C.2   143  PRO143      0.2575
      4  O         58.0760   28.5170   67.1290 O.2   143  PRO143     -0.2718
      5  CB        61.1220   29.0220   68.3880 C.3   143  PRO143      0.0282
      6  CG        62.3740   29.8010   68.2420 C.3   143  PRO143      0.0208
      7  CD        61.9450   31.0940   67.6830 C.3   143  PRO143      0.0893
      8  N         58.4640   30.5590   68.0590 N.am  144  GLU144     -0.1980
      9  CA        57.0940   30.7920   68.5150 C.3   144  GLU144      0.1602
     10  C         56.0330   30.9000   67.4120 C.2   144  GLU144      0.2287
     11  O         54.8650   30.5970   67.6490 O.2   144  GLU144     -0.2864
     12  CB        57.0480   32.0370   69.4020 C.3   144  GLU144      0.0415
     13  CG        57.5500   31.7870   70.8130 C.3   144  GLU144      0.1163
     14  CD        57.8700   33.0580   71.5720 C.2   144  GLU144      0.3649
     15  OE1       58.3570   34.0410   70.9640 O.co2 144  GLU144     -0.2457
     16  OE2       57.6400   33.0630   72.7950 O.co2 144  GLU144     -0.2457
     17  N         56.7540   30.0590   63.7780 N.3   146  VAL146     -0.1231
     18  CA        57.0930   29.4190   62.5160 C.3   146  VAL146      0.1692
     19  C         56.1540   28.2390   62.1400 C.2   146  VAL146      0.2592
     20  O         55.8180   27.3850   62.9780 O.2   146  VAL146     -0.2718
     21  CB        58.5690   28.9830   62.5220 C.3   146  VAL146      0.0266
     22  CG1       58.7860   27.8390   63.5020 C.3   146  VAL146      0.0020
     23  CG2       59.0140   28.5990   61.1370 C.3   146  VAL146      0.0020
     24  N         55.7420   28.1900   60.8750 N.am  147  LEU147     -0.1966
     25  CA        54.8610   27.1190   60.4020 C.3   147  LEU147      0.1728
     26  C         55.5070   26.1990   59.3660 C.2   147  LEU147      0.2616
     27  O         56.5000   26.5640   58.7300 O.2   147  LEU147     -0.2715
     28  CB        53.5960   27.7150   59.7930 C.3   147  LEU147      0.0311
     29  CG        52.7450   28.5300   60.7500 C.3   147  LEU147      0.0022
     30  CD1       51.7390   29.3190   59.9780 C.3   147  LEU147      0.0001
     31  CD2       52.0580   27.5910   61.7280 C.3   147  LEU147      0.0001
     32  N         54.9220   25.0120   59.1980 N.am  148  ASN148     -0.1972
     33  CA        55.2660   24.1120   58.1040 C.3   148  ASN148      0.1688
     34  C         55.0940   24.7870   56.7530 C.2   148  ASN148      0.2292
     35  O         55.8690   24.5450   55.8260 O.2   148  ASN148     -0.2864
     36  CB        54.3610   22.8950   58.1380 C.3   148  ASN148      0.1181
     37  CG        54.7650   21.9260   59.1830 C.2   148  ASN148      0.2629
     38  OD1       55.9250   21.5680   59.2510 O.2   148  ASN148     -0.2716
     39  ND2       53.8240   21.4950   60.0210 N.am  148  ASN148     -0.0877
     40  N         57.8370   26.4480   55.0020 N.3   151  TYR151     -0.1241
     41  CA        58.8530   25.7110   54.2820 C.3   151  TYR151      0.1605
     42  C         58.4070   25.4070   52.8690 C.2   151  TYR151      0.2264
     43  O         59.1170   24.7390   52.1100 O.2   151  TYR151     -0.2867
     44  CB        59.2000   24.4310   55.0300 C.3   151  TYR151      0.0534
     45  CG        60.0460   24.6970   56.2360 C.ar  151  TYR151     -0.0201
     46  CD1       61.4170   24.6280   56.1610 C.ar  151  TYR151     -0.0009
     47  CD2       59.4740   25.0650   57.4390 C.ar  151  TYR151     -0.0009
     48  CE1       62.1870   24.8910   57.2400 C.ar  151  TYR151      0.0417
     49  CE2       60.2490   25.3290   58.5380 C.ar  151  TYR151      0.0417
     50  CZ        61.6010   25.2360   58.4280 C.ar  151  TYR151      0.1957
     51  OH        62.3930   25.4840   59.5110 O.3   151  TYR151     -0.2866
     52  N         63.4360   19.6680   59.2660 N.3   169  TYR169     -0.1227
     53  CA        63.2910   21.0870   59.0400 C.3   169  TYR169      0.1736
     54  C         64.3290   21.8530   59.8310 C.2   169  TYR169      0.2596
     55  O         64.6050   21.5500   60.9870 O.2   169  TYR169     -0.2718
     56  CB        61.9070   21.5160   59.4770 C.3   169  TYR169      0.0548
     57  CG        60.7940   20.8550   58.6970 C.ar  169  TYR169     -0.0200
     58  CD1       60.1220   21.5500   57.7040 C.ar  169  TYR169     -0.0009
     59  CD2       60.4090   19.5460   58.9550 C.ar  169  TYR169     -0.0009
     60  CE1       59.1100   20.9700   56.9940 C.ar  169  TYR169      0.0417
     61  CE2       59.3810   18.9560   58.2480 C.ar  169  TYR169      0.0417
     62  CZ        58.7340   19.6770   57.2660 C.ar  169  TYR169      0.1957
     63  OH        57.7010   19.1250   56.5340 O.3   169  TYR169     -0.2866
     64  N         64.8950   22.8690   59.2180 N.am  170  GLY170     -0.1942
     65  CA        66.0210   23.5220   59.8310 C.3   170  GLY170      0.2014
     66  C         65.8020   24.9880   60.0940 C.2   170  GLY170      0.2638
     67  O         64.9530   25.6390   59.4800 O.2   170  GLY170     -0.2714
     68  N         66.5950   25.5080   61.0180 N.am  171  ALA171     -0.1977
     69  CA        66.5930   26.9220   61.2790 C.3   171  ALA171      0.1597
     70  C         67.9480   27.2690   61.8640 C.2   171  ALA171      0.2287
     71  O         68.5660   26.4310   62.5210 O.2   171  ALA171     -0.2864
     72  CB        65.4940   27.2500   62.2440 C.3   171  ALA171      0.0319
     73  N         62.9700   32.8470   75.2710 N.3   181  ILE181     -0.1245
     74  CA        62.6880   32.4010   73.9130 C.3   181  ILE181      0.1561
     75  C         62.0080   33.5460   73.1790 C.2   181  ILE181      0.2260
     76  O         62.1040   33.6720   71.9630 O.2   181  ILE181     -0.2867
     77  CB        61.8190   31.1300   73.9660 C.3   181  ILE181      0.0252
     78  CG1       61.3600   30.6900   72.5940 C.3   181  ILE181      0.0019
     79  CG2       60.6220   31.3500   74.8510 C.3   181  ILE181      0.0019
     80  CD1       60.6350   29.4000   72.6560 C.3   181  ILE181      0.0001
     81  N         65.0210   33.6280   64.0260 N.3   186  TYR186     -0.1241
     82  CA        65.8050   32.8270   63.1050 C.3   186  TYR186      0.1605
     83  C         66.3330   33.7250   62.0080 C.2   186  TYR186      0.2264
     84  O         65.6250   34.6160   61.5250 O.2   186  TYR186     -0.2867
     85  CB        64.9390   31.7650   62.4380 C.3   186  TYR186      0.0534
     86  CG        64.4160   30.6600   63.3170 C.ar  186  TYR186     -0.0201
     87  CD1       63.1820   30.0720   63.0490 C.ar  186  TYR186     -0.0009
     88  CD2       65.1490   30.1820   64.3890 C.ar  186  TYR186     -0.0009
     89  CE1       62.6820   29.0570   63.8360 C.ar  186  TYR186      0.0417
     90  CE2       64.6550   29.1490   65.1880 C.ar  186  TYR186      0.0417
     91  CZ        63.4190   28.5950   64.9030 C.ar  186  TYR186      0.1957
     92  OH        62.9130   27.5760   65.6790 O.3   186  TYR186     -0.2866
     93  N         61.2770   16.2780   71.6790 N.3   223  PHE223     -0.1241
     94  CA        60.6720   17.5800   71.9340 C.3   223  PHE223      0.1605
     95  C         59.6380   17.6210   73.0450 C.2   223  PHE223      0.2264
     96  O         58.8770   16.6730   73.2420 O.2   223  PHE223     -0.2867
     97  CB        60.0640   18.2080   70.6820 C.3   223  PHE223      0.0534
     98  CG        59.4860   19.5700   70.9370 C.ar  223  PHE223     -0.0203
     99  CD1       60.3160   20.6530   71.1950 C.ar  223  PHE223     -0.0042
    100  CD2       58.1180   19.7660   70.9610 C.ar  223  PHE223     -0.0042
    101  CE1       59.7880   21.9060   71.4540 C.ar  223  PHE223     -0.0003
    102  CE2       57.5800   21.0210   71.2230 C.ar  223  PHE223     -0.0003
    103  CZ        58.4100   22.0890   71.4680 C.ar  223  PHE223     -0.0000
    104  N         57.8720   21.4330   75.1270 N.3   225  PRO225     -0.2116
    105  CA        58.1110   22.8740   75.1980 C.3   225  PRO225      0.1372
    106  C         58.8610   23.2990   76.4590 C.2   225  PRO225      0.2244
    107  O         59.6200   24.2710   76.4170 O.2   225  PRO225     -0.2868
    108  CB        56.7010   23.4600   75.1270 C.3   225  PRO225      0.0268
    109  CG        55.9480   22.4500   74.3280 C.3   225  PRO225      0.0207
    110  CD        56.4650   21.1290   74.8370 C.3   225  PRO225      0.0892
    111  N         62.6350   22.7240   75.3950 N.3   228  TYR228     -0.1241
    112  CA        63.2500   23.4610   74.2950 C.3   228  TYR228      0.1605
    113  C         64.2640   24.5640   74.6030 C.2   228  TYR228      0.2264
    114  O         65.4020   24.6150   74.0410 O.2   228  TYR228     -0.2867
    115  CB        62.1980   24.1940   73.4640 C.3   228  TYR228      0.0534
    116  CG        62.8170   24.9910   72.3440 C.ar  228  TYR228     -0.0201
    117  CD1       63.1840   24.3790   71.1570 C.ar  228  TYR228     -0.0009
    118  CD2       63.0600   26.3490   72.4800 C.ar  228  TYR228     -0.0009
    119  CE1       63.7610   25.0950   70.1310 C.ar  228  TYR228      0.0417
    120  CE2       63.6300   27.0750   71.4530 C.ar  228  TYR228      0.0417
    121  CZ        63.9790   26.4430   70.2800 C.ar  228  TYR228      0.1957
    122  OH        64.5490   27.1570   69.2530 O.3   228  TYR228     -0.2866
    123  N         69.5910   24.2140   64.0130 N.3   252  GLU252     -0.1245
    124  CA        68.5260   23.5430   64.7150 C.3   252  GLU252      0.1567
    125  C         67.7620   22.7010   63.7080 C.2   252  GLU252      0.2260
    126  O         67.2990   23.2140   62.6860 O.2   252  GLU252     -0.2867
    127  CB        67.6330   24.6060   65.3220 C.3   252  GLU252      0.0388
    128  CG        66.2440   24.1750   65.7300 C.3   252  GLU252      0.1160
    129  CD        65.4950   25.3190   66.4060 C.2   252  GLU252      0.3649
    130  OE1       66.0760   25.9500   67.3170 O.co2 252  GLU252     -0.2457
    131  OE2       64.3430   25.6070   66.0230 O.co2 252  GLU252     -0.2457
    132  N         64.6230   19.7520   63.3440 N.3   254  ILE254     -0.1245
    133  CA        63.5340   18.9950   63.9230 C.3   254  ILE254      0.1561
    134  C         63.1910   17.9130   62.9380 C.2   254  ILE254      0.2260
    135  O         62.7300   18.2190   61.8530 O.2   254  ILE254     -0.2867
    136  CB        62.2880   19.8970   64.1340 C.3   254  ILE254      0.0252
    137  CG1       62.4120   20.7040   65.4240 C.3   254  ILE254      0.0019
    138  CG2       61.0250   19.0940   64.1920 C.3   254  ILE254      0.0019
    139  CD1       63.2890   21.9360   65.3050 C.3   254  ILE254      0.0001
    140  N         60.7410   14.4000   62.5760 N.3   256  PRO256     -0.2116
    141  CA        59.6850   13.5870   63.2040 C.3   256  PRO256      0.1372
    142  C         60.1250   12.1700   63.5640 C.2   256  PRO256      0.2244
    143  O         60.8990   11.5680   62.8040 O.2   256  PRO256     -0.2868
    144  CB        58.6210   13.5030   62.1200 C.3   256  PRO256      0.0268
    145  CG        58.8090   14.7300   61.3300 C.3   256  PRO256      0.0207
    146  CD        60.2880   15.0070   61.3190 C.3   256  PRO256      0.0892
    147  N         58.7580   14.7070   68.0650 N.3   267  TYR267     -0.1241
    148  CA        59.8620   15.1900   67.2340 C.3   267  TYR267      0.1605
    149  C         61.2160   15.1280   67.9050 C.2   267  TYR267      0.2264
    150  O         61.3600   15.5010   69.0650 O.2   267  TYR267     -0.2867
    151  CB        59.6080   16.6340   66.8240 C.3   267  TYR267      0.0534
    152  CG        58.2410   16.8340   66.2510 C.ar  267  TYR267     -0.0201
    153  CD1       57.1360   16.8860   67.0760 C.ar  267  TYR267     -0.0009
    154  CD2       58.0490   16.9560   64.8840 C.ar  267  TYR267     -0.0009
    155  CE1       55.8750   17.0600   66.5640 C.ar  267  TYR267      0.0417
    156  CE2       56.7840   17.1340   64.3550 C.ar  267  TYR267      0.0417
    157  CZ        55.6930   17.1820   65.2020 C.ar  267  TYR267      0.1957
    158  OH        54.4160   17.3580   64.6900 O.3   267  TYR267     -0.2866
    159  N         64.6930   16.7790   68.2630 N.3   269  VAL269     -0.1245
    160  CA        65.3190   18.0680   68.0350 C.3   269  VAL269      0.1561
    161  C         66.8080   17.9790   68.2460 C.2   269  VAL269      0.2260
    162  O         67.2880   17.2330   69.1090 O.2   269  VAL269     -0.2867
    163  CB        64.7540   19.1380   68.9310 C.3   269  VAL269      0.0252
    164  CG1       65.8290   20.0980   69.3010 C.3   269  VAL269      0.0019
    165  CG2       63.6550   19.8450   68.2070 C.3   269  VAL269      0.0019
@<TRIPOS>BOND
     1    43    42    2
     2    42    41    1
     3    41    40    1
     4    41    44    1
     5    44    45    1
     6    35    34    2
     7    46    45   ar
     8    46    48   ar
     9    45    47   ar
    10    63    62    1
    11    34    33    1
    12    60    62   ar
    13    60    58   ar
    14    48    50   ar
    15    62    61   ar
    16    47    49   ar
    17    58    57   ar
    18    33    36    1
    19    33    32    1
    20    36    37    1
    21    61    59   ar
    22    50    49   ar
    23    50    51    1
    24    57    59   ar
    25    57    56    1
    26    27    26    2
    27    53    52    1
    28    53    56    1
    29    53    54    1
    30    37    38    2
    31    37    39   am
    32    32    26   am
    33    64    65    1
    34    64    54   am
    35    26    25    1
    36    67    66    2
    37    28    25    1
    38    28    29    1
    39    65    66    1
    40    54    55    2
    41    30    29    1
    42    66    68   am
    43    25    24    1
    44    29    31    1
    45    24    19   am
    46    68    69    1
    47    23    21    1
    48    69    70    1
    49    69    72    1
    50   146   145    1
    51   146   140    1
    52   145   144    1
    53    84    83    2
    54   135   134    2
    55    70    71    2
    56    83    82    1
    57   144   141    1
    58    19    18    1
    59    19    20    2
    60    85    82    1
    61    85    86    1
    62    18    21    1
    63    18    17    1
    64    21    22    1
    65   140   141    1
    66   126   125    2
    67   143   142    2
    68   134   133    1
    69    87    86   ar
    70    87    89   ar
    71    82    81    1
    72   141   142    1
    73    86    88   ar
    74   132   133    1
    75   125   124    1
    76    89    91   ar
    77   133   136    1
    78   123   124    1
    79   136   138    1
    80   136   137    1
    81   156   154   ar
    82   156   157   ar
    83    88    90   ar
    84   158   157    1
    85   124   127    1
    86   154   152   ar
    87    91    90   ar
    88    91    92    1
    89   157   155   ar
    90   139   137    1
    91   127   128    1
    92   128   129    1
    93   131   129   ar
    94   152   151    1
    95   152   153   ar
    96   129   130   ar
    97   155   153   ar
    98     1     2    1
    99     1     7    1
   100   151   148    1
   101     4     3    2
   102     2     3    1
   103     2     5    1
   104   148   149    1
   105   148   147    1
   106    10    11    2
   107    10     9    1
   108     3     8   am
   109     7     6    1
   110   149   150    2
   111   160   161    1
   112   160   159    1
   113   160   163    1
   114     8     9    1
   115   165   163    1
   116     6     5    1
   117   161   162    2
   118     9    12    1
   119   163   164    1
   120   122   121    1
   121    12    13    1
   122   119   121   ar
   123   119   117   ar
   124   121   120   ar
   125    97    98    1
   126    97    94    1
   127    13    14    1
   128    98   100   ar
   129    98    99   ar
   130   100   102   ar
   131    15    14   ar
   132   117   116   ar
   133    99   101   ar
   134   102   103   ar
   135   120   118   ar
   136   101   103   ar
   137    14    16   ar
   138    93    94    1
   139    94    95    1
   140    76    75    2
   141   116   118   ar
   142   116   115    1
   143    78    80    1
   144    78    77    1
   145    95    96    2
   146    75    74    1
   147   115   112    1
   148    74    77    1
   149    74    73    1
   150    77    79    1
   151   114   113    2
   152   112   113    1
   153   112   111    1
   154   109   110    1
   155   109   108    1
   156   110   104    1
   157   108   105    1
   158   104   105    1
   159   105   106    1
   160   107   106    2
