@<TRIPOS>MOLECULE
tmp/3q5rA00.pdb
 165 160 0 0 0
SMALL
GASTEIGER

@<TRIPOS>ATOM
      1  N         61.3610   30.6680   66.7010 N.3   142  PRO142     -0.2102
      2  CA        60.9590   29.3390   67.1160 C.3   142  PRO142      0.1504
      3  C         59.4940   29.3850   67.4110 C.2   142  PRO142      0.2575
      4  O         58.7900   28.3870   67.2270 O.2   142  PRO142     -0.2718
      5  CB        61.7270   29.1190   68.4140 C.3   142  PRO142      0.0282
      6  CG        62.8620   29.9760   68.3390 C.3   142  PRO142      0.0208
      7  CD        62.5460   31.1340   67.4290 C.3   142  PRO142      0.0893
      8  N         59.0420   30.5700   67.8160 N.am  143  GLU143     -0.1980
      9  CA        57.6710   30.7500   68.2570 C.3   143  GLU143      0.1602
     10  C         56.6400   30.6460   67.1090 C.2   143  GLU143      0.2287
     11  O         55.7190   29.8160   67.1750 O.2   143  GLU143     -0.2864
     12  CB        57.5380   32.0250   69.1030 C.3   143  GLU143      0.0415
     13  CG        57.7480   31.7390   70.6310 C.3   143  GLU143      0.1163
     14  CD        57.7530   32.9910   71.5400 C.2   143  GLU143      0.3649
     15  OE1       56.8620   33.0980   72.4120 O.co2 143  GLU143     -0.2457
     16  OE2       58.6500   33.8580   71.3970 O.co2 143  GLU143     -0.2457
     17  N         57.3230   30.2230   63.5400 N.3   145  VAL145     -0.1231
     18  CA        57.7080   29.5240   62.2970 C.3   145  VAL145      0.1692
     19  C         56.7080   28.3900   61.9490 C.2   145  VAL145      0.2592
     20  O         56.2570   27.6530   62.8510 O.2   145  VAL145     -0.2718
     21  CB        59.1350   28.9360   62.4180 C.3   145  VAL145      0.0266
     22  CG1       59.1270   27.7930   63.3680 C.3   145  VAL145      0.0020
     23  CG2       59.6490   28.4840   61.0990 C.3   145  VAL145      0.0020
     24  N         56.3800   28.2550   60.6540 N.am  146  LEU146     -0.1966
     25  CA        55.3730   27.2980   60.1950 C.3   146  LEU146      0.1728
     26  C         55.9130   26.2600   59.2390 C.2   146  LEU146      0.2616
     27  O         56.9410   26.4790   58.6070 O.2   146  LEU146     -0.2715
     28  CB        54.2550   28.0300   59.4910 C.3   146  LEU146      0.0311
     29  CG        53.4380   28.8820   60.4240 C.3   146  LEU146      0.0022
     30  CD1       52.6670   29.8380   59.5930 C.3   146  LEU146      0.0001
     31  CD2       52.5090   28.0070   61.1830 C.3   146  LEU146      0.0001
     32  N         55.1940   25.1450   59.1080 N.am  147  ASN147     -0.1972
     33  CA        55.4700   24.1770   58.0730 C.3   147  ASN147      0.1688
     34  C         55.4250   24.8430   56.7170 C.2   147  ASN147      0.2292
     35  O         56.3790   24.7310   55.9480 O.2   147  ASN147     -0.2864
     36  CB        54.4930   23.0290   58.1450 C.3   147  ASN147      0.1181
     37  CG        54.8690   22.0340   59.2050 C.2   147  ASN147      0.2629
     38  OD1       56.0430   21.7900   59.4240 O.2   147  ASN147     -0.2716
     39  ND2       53.8760   21.4470   59.8840 N.am  147  ASN147     -0.0877
     40  N         58.0290   26.5600   54.6370 N.3   150  TYR150     -0.1241
     41  CA        59.0690   25.8160   53.9510 C.3   150  TYR150      0.1605
     42  C         58.7270   25.5120   52.5050 C.2   150  TYR150      0.2264
     43  O         59.5230   24.9190   51.7860 O.2   150  TYR150     -0.2867
     44  CB        59.3840   24.5200   54.7070 C.3   150  TYR150      0.0534
     45  CG        60.2540   24.7800   55.8970 C.ar  150  TYR150     -0.0201
     46  CD1       59.6990   25.1540   57.1230 C.ar  150  TYR150     -0.0009
     47  CD2       61.6460   24.7140   55.7930 C.ar  150  TYR150     -0.0009
     48  CE1       60.5210   25.4460   58.2250 C.ar  150  TYR150      0.0417
     49  CE2       62.4650   24.9850   56.8880 C.ar  150  TYR150      0.0417
     50  CZ        61.8970   25.3680   58.0910 C.ar  150  TYR150      0.1957
     51  OH        62.7160   25.6770   59.1510 O.3   150  TYR150     -0.2866
     52  N         63.9600   19.5270   58.8500 N.3   168  TYR168     -0.1227
     53  CA        63.6230   20.9630   58.8650 C.3   168  TYR168      0.1736
     54  C         64.6100   21.7430   59.7070 C.2   168  TYR168      0.2596
     55  O         64.8610   21.4200   60.8670 O.2   168  TYR168     -0.2718
     56  CB        62.2280   21.2080   59.4370 C.3   168  TYR168      0.0548
     57  CG        61.1110   20.6700   58.5960 C.ar  168  TYR168     -0.0200
     58  CD1       60.7250   19.3480   58.6850 C.ar  168  TYR168     -0.0009
     59  CD2       60.4400   21.4850   57.7050 C.ar  168  TYR168     -0.0009
     60  CE1       59.7160   18.8530   57.8950 C.ar  168  TYR168      0.0417
     61  CE2       59.4260   20.9870   56.9040 C.ar  168  TYR168      0.0417
     62  CZ        59.0700   19.6790   57.0080 C.ar  168  TYR168      0.1957
     63  OH        58.0590   19.1950   56.2120 O.3   168  TYR168     -0.2866
     64  N         65.1530   22.7940   59.1300 N.am  169  GLY169     -0.1942
     65  CA        66.3020   23.3980   59.7230 C.3   169  GLY169      0.2014
     66  C         66.1280   24.8840   59.7640 C.2   169  GLY169      0.2638
     67  O         65.4030   25.4510   58.9510 O.2   169  GLY169     -0.2714
     68  N         66.7980   25.5050   60.7300 N.am  170  ALA170     -0.1977
     69  CA        66.8930   26.9550   60.8290 C.3   170  ALA170      0.1597
     70  C         68.1650   27.2720   61.6080 C.2   170  ALA170      0.2287
     71  O         68.7090   26.4060   62.2790 O.2   170  ALA170     -0.2864
     72  CB        65.6800   27.5230   61.5150 C.3   170  ALA170      0.0319
     73  N         63.1440   32.4550   74.8810 N.3   180  ILE180     -0.1245
     74  CA        62.7390   32.1200   73.5100 C.3   180  ILE180      0.1561
     75  C         62.3130   33.4430   72.9180 C.2   180  ILE180      0.2260
     76  O         62.6820   33.8080   71.8020 O.2   180  ILE180     -0.2867
     77  CB        61.5650   31.1400   73.4470 C.3   180  ILE180      0.0252
     78  CG1       61.9290   29.8370   74.1500 C.3   180  ILE180      0.0019
     79  CG2       61.2530   30.8030   72.0420 C.3   180  ILE180      0.0019
     80  CD1       60.9620   29.4170   75.3260 C.3   180  ILE180      0.0001
     81  N         65.4590   33.5950   63.8980 N.3   185  TYR185     -0.1241
     82  CA        66.1180   32.7500   62.9390 C.3   185  TYR185      0.1605
     83  C         66.6760   33.6340   61.8620 C.2   185  TYR185      0.2264
     84  O         66.0150   34.5670   61.3740 O.2   185  TYR185     -0.2867
     85  CB        65.1100   31.8040   62.3250 C.3   185  TYR185      0.0534
     86  CG        64.6640   30.6710   63.2270 C.ar  185  TYR185     -0.0201
     87  CD1       63.3170   30.2630   63.2660 C.ar  185  TYR185     -0.0009
     88  CD2       65.5860   29.9800   64.0270 C.ar  185  TYR185     -0.0009
     89  CE1       62.9040   29.2070   64.0870 C.ar  185  TYR185      0.0417
     90  CE2       65.1880   28.9250   64.8390 C.ar  185  TYR185      0.0417
     91  CZ        63.8550   28.5450   64.8710 C.ar  185  TYR185      0.1957
     92  OH        63.4830   27.4870   65.6700 O.3   185  TYR185     -0.2866
     93  N         61.5970   16.5420   71.4360 N.3   222  PHE222     -0.1241
     94  CA        60.9530   17.8030   71.7430 C.3   222  PHE222      0.1605
     95  C         59.9480   17.7390   72.8740 C.2   222  PHE222      0.2264
     96  O         59.1500   16.7930   72.9590 O.2   222  PHE222     -0.2867
     97  CB        60.2280   18.3870   70.5460 C.3   222  PHE222      0.0534
     98  CG        59.6400   19.7410   70.8360 C.ar  222  PHE222     -0.0203
     99  CD1       60.4670   20.8390   71.0580 C.ar  222  PHE222     -0.0042
    100  CD2       58.2880   19.9120   70.9710 C.ar  222  PHE222     -0.0042
    101  CE1       59.9460   22.0800   71.3720 C.ar  222  PHE222     -0.0003
    102  CE2       57.7690   21.1520   71.2960 C.ar  222  PHE222     -0.0003
    103  CZ        58.6000   22.2270   71.4880 C.ar  222  PHE222     -0.0000
    104  N         58.0980   21.5010   75.0490 N.3   224  PRO224     -0.2116
    105  CA        58.3510   22.9380   75.1690 C.3   224  PRO224      0.1372
    106  C         59.2890   23.3230   76.3220 C.2   224  PRO224      0.2244
    107  O         60.1800   24.1700   76.1540 O.2   224  PRO224     -0.2868
    108  CB        56.9420   23.5110   75.3460 C.3   224  PRO224      0.0268
    109  CG        56.0690   22.5150   74.5880 C.3   224  PRO224      0.0207
    110  CD        56.6530   21.2020   74.9900 C.3   224  PRO224      0.0892
    111  N         63.1220   22.7440   75.3150 N.3   227  TYR227     -0.1241
    112  CA        63.7360   23.4650   74.2150 C.3   227  TYR227      0.1605
    113  C         64.7040   24.4750   74.7330 C.2   227  TYR227      0.2264
    114  O         65.9120   24.4090   74.4770 O.2   227  TYR227     -0.2867
    115  CB        62.6880   24.2200   73.4400 C.3   227  TYR227      0.0534
    116  CG        63.2140   25.0080   72.2770 C.ar  227  TYR227     -0.0201
    117  CD1       63.5230   24.3760   71.0850 C.ar  227  TYR227     -0.0009
    118  CD2       63.3260   26.3840   72.3380 C.ar  227  TYR227     -0.0009
    119  CE1       63.9660   25.0860   69.9800 C.ar  227  TYR227      0.0417
    120  CE2       63.7660   27.1080   71.2370 C.ar  227  TYR227      0.0417
    121  CZ        64.0790   26.4440   70.0570 C.ar  227  TYR227      0.1957
    122  OH        64.5170   27.1220   68.9490 O.3   227  TYR227     -0.2866
    123  N         69.7630   24.4430   63.9700 N.3   251  GLU251     -0.1245
    124  CA        68.7410   23.6700   64.6380 C.3   251  GLU251      0.1567
    125  C         68.0410   22.8250   63.5740 C.2   251  GLU251      0.2260
    126  O         67.6700   23.3720   62.5180 O.2   251  GLU251     -0.2867
    127  CB        67.7800   24.6400   65.3030 C.3   251  GLU251      0.0388
    128  CG        66.5400   24.0520   65.9150 C.3   251  GLU251      0.1160
    129  CD        65.5630   25.1430   66.3460 C.2   251  GLU251      0.3649
    130  OE1       66.0070   26.2320   66.7790 O.co2 251  GLU251     -0.2457
    131  OE2       64.3390   24.9190   66.2390 O.co2 251  GLU251     -0.2457
    132  N         64.9320   19.8130   62.9990 N.3   253  ILE253     -0.1245
    133  CA        63.8170   19.0690   63.5790 C.3   253  ILE253      0.1561
    134  C         63.4330   17.9110   62.6810 C.2   253  ILE253      0.2260
    135  O         63.3040   18.0640   61.4700 O.2   253  ILE253     -0.2867
    136  CB        62.6210   19.9920   63.7860 C.3   253  ILE253      0.0252
    137  CG1       62.8860   20.9120   64.9530 C.3   253  ILE253      0.0019
    138  CG2       61.3480   19.2380   64.0470 C.3   253  ILE253      0.0019
    139  CD1       62.8940   22.3470   64.5430 C.3   253  ILE253      0.0001
    140  N         60.7360   14.5400   62.4540 N.3   255  PRO255     -0.2116
    141  CA        59.6780   13.6680   62.9710 C.3   255  PRO255      0.1372
    142  C         60.2260   12.3270   63.3770 C.2   255  PRO255      0.2244
    143  O         61.1440   11.8360   62.7360 O.2   255  PRO255     -0.2868
    144  CB        58.7810   13.4750   61.7730 C.3   255  PRO255      0.0268
    145  CG        58.9750   14.7230   61.0130 C.3   255  PRO255      0.0207
    146  CD        60.3840   15.1330   61.1680 C.3   255  PRO255      0.0892
    147  N         59.0760   14.5650   67.8750 N.3   266  TYR266     -0.1241
    148  CA        60.1380   15.0810   67.0010 C.3   266  TYR266      0.1605
    149  C         61.4960   15.0470   67.6580 C.2   266  TYR266      0.2264
    150  O         61.6210   15.3480   68.8340 O.2   266  TYR266     -0.2867
    151  CB        59.8750   16.5420   66.6900 C.3   266  TYR266      0.0534
    152  CG        58.5000   16.8130   66.1610 C.ar  266  TYR266     -0.0201
    153  CD1       57.4300   17.0450   67.0110 C.ar  266  TYR266     -0.0009
    154  CD2       58.2760   16.8550   64.8060 C.ar  266  TYR266     -0.0009
    155  CE1       56.1800   17.3130   66.5080 C.ar  266  TYR266      0.0417
    156  CE2       57.0530   17.1170   64.2980 C.ar  266  TYR266      0.0417
    157  CZ        56.0030   17.3450   65.1380 C.ar  266  TYR266      0.1957
    158  OH        54.7680   17.5870   64.5630 O.3   266  TYR266     -0.2866
    159  N         65.0110   16.9020   68.0510 N.3   268  VAL268     -0.1245
    160  CA        65.6310   18.2040   67.8200 C.3   268  VAL268      0.1561
    161  C         67.1190   18.0310   67.9730 C.2   268  VAL268      0.2260
    162  O         67.5610   17.2140   68.7610 O.2   268  VAL268     -0.2867
    163  CB        65.1740   19.2510   68.8310 C.3   268  VAL268      0.0252
    164  CG1       65.8850   20.5370   68.6000 C.3   268  VAL268      0.0019
    165  CG2       63.7250   19.4960   68.6900 C.3   268  VAL268      0.0019
@<TRIPOS>BOND
     1    43    42    2
     2    42    41    1
     3    41    40    1
     4    41    44    1
     5    44    45    1
     6    47    45   ar
     7    47    49   ar
     8    45    46   ar
     9    35    34    2
    10    63    62    1
    11    34    33    1
    12    49    50   ar
    13    61    62   ar
    14    61    59   ar
    15    62    60   ar
    16    46    48   ar
    17    59    57   ar
    18    60    58   ar
    19    33    36    1
    20    33    32    1
    21    50    48   ar
    22    50    51    1
    23    36    37    1
    24    57    58   ar
    25    57    56    1
    26    27    26    2
    27    52    53    1
    28    53    56    1
    29    53    54    1
    30    67    66    2
    31    32    26   am
    32    64    54   am
    33    64    65    1
    34    37    38    2
    35    37    39   am
    36    26    25    1
    37    28    25    1
    38    28    29    1
    39    30    29    1
    40    54    55    2
    41    65    66    1
    42    66    68   am
    43    25    24    1
    44    29    31    1
    45    24    19   am
    46    68    69    1
    47    69    72    1
    48    69    70    1
    49   145   146    1
    50   145   144    1
    51    23    21    1
    52   146   140    1
    53    84    83    2
    54   135   134    2
    55    70    71    2
    56   144   141    1
    57    83    82    1
    58    19    18    1
    59    19    20    2
    60    18    21    1
    61    18    17    1
    62    85    82    1
    63    85    86    1
    64    21    22    1
    65   140   141    1
    66   126   125    2
    67   134   133    1
    68   143   142    2
    69    82    81    1
    70   141   142    1
    71   132   133    1
    72    86    87   ar
    73    86    88   ar
    74    87    89   ar
    75   125   124    1
    76   133   136    1
    77   136   138    1
    78   136   137    1
    79   123   124    1
    80    88    90   ar
    81    89    91   ar
    82   156   154   ar
    83   156   157   ar
    84   139   137    1
    85   158   157    1
    86   124   127    1
    87   154   152   ar
    88    90    91   ar
    89    91    92    1
    90   157   155   ar
    91   127   128    1
    92   128   129    1
    93   152   151    1
    94   152   153   ar
    95   131   129   ar
    96   129   130   ar
    97   155   153   ar
    98   151   148    1
    99     1     2    1
   100     1     7    1
   101   148   149    1
   102   148   147    1
   103    10    11    2
   104    10     9    1
   105     2     3    1
   106     2     5    1
   107     4     3    2
   108     3     8   am
   109     7     6    1
   110   149   150    2
   111     8     9    1
   112   160   161    1
   113   160   159    1
   114   160   163    1
   115   161   162    2
   116     9    12    1
   117     6     5    1
   118   164   163    1
   119   165   163    1
   120   122   121    1
   121    12    13    1
   122   119   121   ar
   123   119   117   ar
   124   121   120   ar
   125    97    98    1
   126    97    94    1
   127    13    14    1
   128    98   100   ar
   129    98    99   ar
   130   100   102   ar
   131    99   101   ar
   132   117   116   ar
   133   120   118   ar
   134   102   103   ar
   135   101   103   ar
   136    16    14   ar
   137    93    94    1
   138    14    15   ar
   139    94    95    1
   140    76    75    2
   141    79    77    1
   142   116   118   ar
   143   116   115    1
   144    95    96    2
   145    75    74    1
   146   115   112    1
   147    77    74    1
   148    77    78    1
   149    74    73    1
   150    78    80    1
   151   112   113    1
   152   112   111    1
   153   114   113    2
   154   109   110    1
   155   109   108    1
   156   110   104    1
   157   104   105    1
   158   105   108    1
   159   105   106    1
   160   107   106    2
