@<TRIPOS>MOLECULE
tmp/3q5sA00.pdb
 111 108 0 0 0
SMALL
GASTEIGER

@<TRIPOS>ATOM
      1  N         61.1530   30.6350   66.4540 N.3   142  PRO142     -0.2116
      2  CA        60.7340   29.2590   66.6770 C.3   142  PRO142      0.1372
      3  C         59.3200   29.2950   67.1760 C.2   142  PRO142      0.2244
      4  O         58.6200   28.2960   67.1340 O.2   142  PRO142     -0.2868
      5  CB        61.6560   28.7870   67.8080 C.3   142  PRO142      0.0268
      6  CG        62.0420   30.0330   68.5170 C.3   142  PRO142      0.0207
      7  CD        62.1410   31.0750   67.4500 C.3   142  PRO142      0.0892
      8  N         56.9980   29.5530   63.4950 N.3   145  VAL145     -0.1231
      9  CA        57.4270   28.9710   62.2260 C.3   145  VAL145      0.1692
     10  C         56.3590   28.0050   61.8320 C.2   145  VAL145      0.2592
     11  O         55.7610   27.3770   62.6940 O.2   145  VAL145     -0.2718
     12  CB        58.6840   28.1360   62.3700 C.3   145  VAL145      0.0266
     13  CG1       59.3280   27.9720   61.0380 C.3   145  VAL145      0.0020
     14  CG2       59.6510   28.7900   63.3050 C.3   145  VAL145      0.0020
     15  N         56.1060   27.8860   60.5360 N.am  146  LEU146     -0.1966
     16  CA        55.0780   26.9650   60.0490 C.3   146  LEU146      0.1728
     17  C         55.6740   25.9420   59.1240 C.2   146  LEU146      0.2616
     18  O         56.7960   26.0860   58.6830 O.2   146  LEU146     -0.2715
     19  CB        53.9630   27.7100   59.3200 C.3   146  LEU146      0.0311
     20  CG        52.8650   28.2620   60.2110 C.3   146  LEU146      0.0022
     21  CD1       53.4080   29.0310   61.3790 C.3   146  LEU146      0.0001
     22  CD2       51.9730   29.1550   59.3900 C.3   146  LEU146      0.0001
     23  N         54.9230   24.8880   58.8570 N.am  147  ASN147     -0.1972
     24  CA        55.3270   23.9550   57.8430 C.3   147  ASN147      0.1688
     25  C         55.1210   24.6920   56.5350 C.2   147  ASN147      0.2292
     26  O         55.9950   24.6960   55.6710 O.2   147  ASN147     -0.2864
     27  CB        54.4950   22.6800   57.9490 C.3   147  ASN147      0.1181
     28  CG        54.6970   21.9640   59.2860 C.2   147  ASN147      0.2629
     29  OD1       55.7650   22.0590   59.9010 O.2   147  ASN147     -0.2716
     30  ND2       53.6780   21.2390   59.7330 N.am  147  ASN147     -0.0877
     31  N         57.8470   26.3720   54.6870 N.3   150  TYR150     -0.1241
     32  CA        58.9030   25.6500   54.0040 C.3   150  TYR150      0.1605
     33  C         58.5490   25.2890   52.5750 C.2   150  TYR150      0.2264
     34  O         59.4190   24.8880   51.7950 O.2   150  TYR150     -0.2867
     35  CB        59.2870   24.4060   54.7940 C.3   150  TYR150      0.0534
     36  CG        60.1990   24.7140   55.9530 C.ar  150  TYR150     -0.0201
     37  CD1       59.7290   25.3890   57.0670 C.ar  150  TYR150     -0.0009
     38  CD2       61.5390   24.3360   55.9270 C.ar  150  TYR150     -0.0009
     39  CE1       60.5610   25.6760   58.1370 C.ar  150  TYR150      0.0417
     40  CE2       62.3820   24.6160   56.9910 C.ar  150  TYR150      0.0417
     41  CZ        61.8850   25.2910   58.0980 C.ar  150  TYR150      0.1957
     42  OH        62.7180   25.5720   59.1650 O.3   150  TYR150     -0.2866
     43  N         63.5620   19.3080   58.9240 N.3   168  TYR168     -0.1227
     44  CA        63.3980   20.7450   58.8180 C.3   168  TYR168      0.1736
     45  C         64.4800   21.4750   59.5870 C.2   168  TYR168      0.2596
     46  O         64.7780   21.1610   60.7500 O.2   168  TYR168     -0.2718
     47  CB        62.0300   21.1690   59.2920 C.3   168  TYR168      0.0548
     48  CG        60.9150   20.5900   58.4510 C.ar  168  TYR168     -0.0200
     49  CD1       60.4690   19.2830   58.6370 C.ar  168  TYR168     -0.0009
     50  CD2       60.2730   21.3650   57.4990 C.ar  168  TYR168     -0.0009
     51  CE1       59.4120   18.7590   57.8880 C.ar  168  TYR168      0.0417
     52  CE2       59.2200   20.8480   56.7350 C.ar  168  TYR168      0.0417
     53  CZ        58.7940   19.5430   56.9340 C.ar  168  TYR168      0.1957
     54  OH        57.7500   19.0490   56.1750 O.3   168  TYR168     -0.2866
     55  N         65.0760   22.4630   58.9460 N.am  169  GLY169     -0.1942
     56  CA        66.1450   23.1690   59.5970 C.3   169  GLY169      0.2014
     57  C         65.9080   24.6510   59.6380 C.2   169  GLY169      0.2638
     58  O         65.2010   25.2030   58.7980 O.2   169  GLY169     -0.2714
     59  N         66.5060   25.2750   60.6490 N.am  170  ALA170     -0.1977
     60  CA        66.5780   26.7220   60.7690 C.3   170  ALA170      0.1597
     61  C         67.8520   27.0390   61.5410 C.2   170  ALA170      0.2287
     62  O         68.3600   26.1850   62.2620 O.2   170  ALA170     -0.2864
     63  CB        65.3850   27.2300   61.4990 C.3   170  ALA170      0.0319
     64  N         65.1210   33.4300   63.8290 N.3   185  TYR185     -0.1241
     65  CA        65.8780   32.6280   62.8930 C.3   185  TYR185      0.1605
     66  C         66.4520   33.5380   61.8280 C.2   185  TYR185      0.2264
     67  O         65.8250   34.5220   61.4050 O.2   185  TYR185     -0.2867
     68  CB        64.9970   31.5700   62.2190 C.3   185  TYR185      0.0534
     69  CG        64.5260   30.4370   63.1210 C.ar  185  TYR185     -0.0201
     70  CD1       63.1650   30.1800   63.3000 C.ar  185  TYR185     -0.0009
     71  CD2       65.4340   29.6210   63.7860 C.ar  185  TYR185     -0.0009
     72  CE1       62.7230   29.1450   64.1140 C.ar  185  TYR185      0.0417
     73  CE2       65.0020   28.5820   64.6110 C.ar  185  TYR185      0.0417
     74  CZ        63.6420   28.3400   64.7700 C.ar  185  TYR185      0.1957
     75  OH        63.2030   27.2950   65.5910 O.3   185  TYR185     -0.2866
     76  N         69.4140   24.1920   64.0230 N.3   251  GLU251     -0.1245
     77  CA        68.3230   23.4440   64.6150 C.3   251  GLU251      0.1567
     78  C         67.7220   22.5200   63.5380 C.2   251  GLU251      0.2260
     79  O         67.4060   22.9780   62.4400 O.2   251  GLU251     -0.2867
     80  CB        67.2900   24.4440   65.1590 C.3   251  GLU251      0.0388
     81  CG        66.1520   23.8490   65.9540 C.3   251  GLU251      0.1160
     82  CD        65.1100   24.9090   66.3460 C.2   251  GLU251      0.3649
     83  OE1       65.4410   26.1130   66.2310 O.co2 251  GLU251     -0.2457
     84  OE2       63.9510   24.5400   66.7570 O.co2 251  GLU251     -0.2457
     85  N         64.7090   19.5080   62.9960 N.3   253  ILE253     -0.1245
     86  CA        63.5200   18.8800   63.5320 C.3   253  ILE253      0.1561
     87  C         63.1140   17.7940   62.5850 C.2   253  ILE253      0.2260
     88  O         62.8350   18.0660   61.4180 O.2   253  ILE253     -0.2867
     89  CB        62.3780   19.9060   63.5960 C.3   253  ILE253      0.0252
     90  CG1       62.8310   21.1190   64.4060 C.3   253  ILE253      0.0019
     91  CG2       61.0860   19.3040   64.1700 C.3   253  ILE253      0.0019
     92  CD1       63.3890   20.7670   65.7530 C.3   253  ILE253      0.0001
     93  N         60.4530   14.3350   62.4340 N.3   255  PRO255     -0.2116
     94  CA        59.4270   13.4660   63.0200 C.3   255  PRO255      0.1372
     95  C         59.9650   12.0910   63.2950 C.2   255  PRO255      0.2244
     96  O         60.9240   11.6600   62.6600 O.2   255  PRO255     -0.2868
     97  CB        58.3810   13.3470   61.9160 C.3   255  PRO255      0.0268
     98  CG        59.0570   13.8290   60.7000 C.3   255  PRO255      0.0207
     99  CD        60.0380   14.8470   61.1260 C.3   255  PRO255      0.0892
    100  N         58.6330   14.5020   67.7860 N.3   266  TYR266     -0.1241
    101  CA        59.6890   14.9540   66.8950 C.3   266  TYR266      0.1605
    102  C         61.0620   14.7870   67.5260 C.2   266  TYR266      0.2264
    103  O         61.1830   14.7700   68.7550 O.2   266  TYR266     -0.2867
    104  CB        59.4560   16.4290   66.6460 C.3   266  TYR266      0.0534
    105  CG        58.1360   16.7170   65.9790 C.ar  266  TYR266     -0.0201
    106  CD1       58.0780   16.8070   64.5940 C.ar  266  TYR266     -0.0009
    107  CD2       56.9580   16.9150   66.7200 C.ar  266  TYR266     -0.0009
    108  CE1       56.8870   17.0930   63.9540 C.ar  266  TYR266      0.0417
    109  CE2       55.7440   17.1750   66.0880 C.ar  266  TYR266      0.0417
    110  CZ        55.7140   17.2700   64.7020 C.ar  266  TYR266      0.1957
    111  OH        54.5330   17.5560   64.0320 O.3   266  TYR266     -0.2866
@<TRIPOS>BOND
     1    34    33    2
     2    33    32    1
     3    32    31    1
     4    32    35    1
     5    35    36    1
     6    26    25    2
     7    38    36   ar
     8    38    40   ar
     9    36    37   ar
    10    54    53    1
    11    25    24    1
    12    52    53   ar
    13    52    50   ar
    14    53    51   ar
    15    40    41   ar
    16    37    39   ar
    17    50    48   ar
    18    24    27    1
    19    24    23    1
    20    51    49   ar
    21    27    28    1
    22    41    39   ar
    23    41    42    1
    24    48    49   ar
    25    48    47    1
    26    18    17    2
    27    58    57    2
    28    44    43    1
    29    44    47    1
    30    44    45    1
    31    23    17   am
    32    55    45   am
    33    55    56    1
    34    17    16    1
    35    28    30   am
    36    28    29    2
    37    19    16    1
    38    19    20    1
    39    22    20    1
    40    45    46    2
    41    56    57    1
    42    57    59   am
    43    16    15    1
    44    20    21    1
    45    15    10   am
    46    59    60    1
    47    98    99    1
    48    98    97    1
    49    60    63    1
    50    60    61    1
    51    13    12    1
    52    99    93    1
    53    67    66    2
    54    88    87    2
    55    61    62    2
    56    66    65    1
    57    10     9    1
    58    10    11    2
    59    97    94    1
    60    68    65    1
    61    68    69    1
    62     9    12    1
    63     9     8    1
    64    12    14    1
    65    93    94    1
    66    79    78    2
    67    87    86    1
    68    96    95    2
    69    65    64    1
    70    85    86    1
    71    94    95    1
    72    69    70   ar
    73    69    71   ar
    74    70    72   ar
    75    86    89    1
    76    78    77    1
    77    89    91    1
    78    89    90    1
    79    71    73   ar
    80   108   106   ar
    81   108   110   ar
    82    76    77    1
    83   111   110    1
    84    72    74   ar
    85    90    92    1
    86   106   105   ar
    87    73    74   ar
    88    77    80    1
    89   110   109   ar
    90    74    75    1
    91    80    81    1
    92    81    82    1
    93   105   104    1
    94   105   107   ar
    95   109   107   ar
    96    83    82   ar
    97    82    84   ar
    98     1     2    1
    99     1     7    1
   100   104   101    1
   101     2     3    1
   102     2     5    1
   103   101   102    1
   104   101   100    1
   105     4     3    2
   106     7     6    1
   107   102   103    2
   108     5     6    1
