@<TRIPOS>MOLECULE
tmp/3q5uA00.pdb
 209 198 0 0 0
SMALL
GASTEIGER

@<TRIPOS>ATOM
      1  N         86.5630   70.9770   50.0870 N.3   166  LYS166     -0.1245
      2  CA        87.4060   69.8880   49.6230 C.3   166  LYS166      0.1561
      3  C         88.7110   70.5250   49.1620 C.2   166  LYS166      0.2260
      4  O         88.8010   71.7330   49.0650 O.2   166  LYS166     -0.2867
      5  CB        86.7420   69.1370   48.4710 C.3   166  LYS166      0.0271
      6  CG        85.8670   67.9710   48.8780 C.3   166  LYS166      0.0035
      7  CD        85.6370   66.9980   47.7170 C.3   166  LYS166      0.0206
      8  CE        84.7460   67.5920   46.6570 C.3   166  LYS166      0.1093
      9  NZ        84.6660   66.7690   45.4270 N.3   166  LYS166     -0.1314
     10  N         81.2300   63.5460   51.0510 N.3   206  ASP206     -0.1225
     11  CA        81.7050   63.8290   49.7210 C.3   206  ASP206      0.1805
     12  C         83.2120   63.6190   49.7690 C.2   206  ASP206      0.2598
     13  O         83.9590   64.5260   50.1340 O.2   206  ASP206     -0.2718
     14  CB        81.3710   65.2720   49.3620 C.3   206  ASP206      0.1424
     15  CG        81.7230   65.6190   47.9460 C.2   206  ASP206      0.3668
     16  OD1       82.0930   64.7110   47.1720 O.co2 206  ASP206     -0.2456
     17  OD2       81.6050   66.8090   47.6020 O.co2 206  ASP206     -0.2456
     18  N         83.6570   62.4110   49.4360 N.am  207  GLY207     -0.1943
     19  CA        85.0800   62.1110   49.4130 C.3   207  GLY207      0.1998
     20  C         85.3950   60.6300   49.4590 C.2   207  GLY207      0.2481
     21  O         84.5280   59.7860   49.2270 O.2   207  GLY207     -0.2729
     22  N         86.6460   60.2960   49.7840 N.am  208  PRO208     -0.2715
     23  CA        87.1050   58.9010   49.8290 C.3   208  PRO208      0.1536
     24  C         86.2250   58.0470   50.7410 C.2   208  PRO208      0.2598
     25  O         85.5990   58.5520   51.6790 O.2   208  PRO208     -0.2715
     26  CB        88.5070   59.0130   50.4240 C.3   208  PRO208      0.0310
     27  CG        88.8890   60.4440   50.2710 C.3   208  PRO208      0.0237
     28  CD        87.6330   61.2250   50.3480 C.3   208  PRO208      0.0939
     29  N         86.1840   56.7510   50.4810 N.am  209  ASN209     -0.1973
     30  CA        85.2870   55.8800   51.2290 C.3   209  ASN209      0.1688
     31  C         85.6250   55.8420   52.7100 C.2   209  ASN209      0.2292
     32  O         84.7890   55.4910   53.5410 O.2   209  ASN209     -0.2864
     33  CB        85.2720   54.4720   50.6400 C.3   209  ASN209      0.1181
     34  CG        84.8100   54.4470   49.1810 C.2   209  ASN209      0.2629
     35  OD1       85.0700   53.4850   48.4680 O.2   209  ASN209     -0.2716
     36  ND2       84.1410   55.5110   48.7340 N.am  209  ASN209     -0.0877
     37  N         83.5200   58.5480   54.1390 N.3   212  ILE212     -0.1245
     38  CA        82.1720   58.0210   54.2100 C.3   212  ILE212      0.1561
     39  C         82.0710   57.1070   55.4230 C.2   212  ILE212      0.2260
     40  O         81.1040   57.1610   56.1830 O.2   212  ILE212     -0.2867
     41  CB        81.8120   57.2500   52.9260 C.3   212  ILE212      0.0252
     42  CG1       81.8670   58.2000   51.7190 C.3   212  ILE212      0.0019
     43  CG2       80.4470   56.5560   53.0670 C.3   212  ILE212      0.0019
     44  CD1       81.3200   57.6210   50.4090 C.3   212  ILE212      0.0001
     45  N         71.4650   64.4850   49.2620 N.3   241  ARG241     -0.1245
     46  CA        72.8630   64.6500   48.8830 C.3   241  ARG241      0.1563
     47  C         73.7580   63.7230   49.7000 C.2   241  ARG241      0.2260
     48  O         74.6410   63.0540   49.1550 O.2   241  ARG241     -0.2867
     49  CB        73.3110   66.1020   49.0670 C.3   241  ARG241      0.0307
     50  CG        74.7500   66.3720   48.6310 C.3   241  ARG241      0.0489
     51  CD        74.8960   66.4170   47.1080 C.3   241  ARG241      0.2205
     52  NE        74.0720   67.4690   46.5100 N.pl3 241  ARG241     -0.0865
     53  CZ        74.3900   68.7630   46.5020 C.cat 241  ARG241      0.5346
     54  NH1       75.5200   69.1820   47.0680 N.pl3 241  ARG241      0.1354
     55  NH2       73.5720   69.6470   45.9380 N.pl3 241  ARG241      0.1354
     56  N         75.9190   60.6920   48.2590 N.3   245  ASN245     -0.1240
     57  CA        77.3530   60.5380   48.4900 C.3   245  ASN245      0.1653
     58  C         77.7120   59.1720   49.0690 C.2   245  ASN245      0.2266
     59  O         78.6910   58.5390   48.6540 O.2   245  ASN245     -0.2867
     60  CB        77.8930   61.6560   49.3920 C.3   245  ASN245      0.1155
     61  CG        77.9370   63.0000   48.6910 C.2   245  ASN245      0.2627
     62  OD1       77.9180   63.0820   47.4600 O.2   245  ASN245     -0.2716
     63  ND2       77.9990   64.0600   49.4740 N.am  245  ASN245     -0.0877
     64  N         76.2780   56.2590   48.7750 N.3   247  VAL247     -0.1231
     65  CA        76.1950   55.1350   47.8530 C.3   247  VAL247      0.1692
     66  C         77.2380   55.2310   46.7250 C.2   247  VAL247      0.2593
     67  O         77.1910   54.4580   45.7620 O.2   247  VAL247     -0.2718
     68  CB        74.7670   54.9460   47.2810 C.3   247  VAL247      0.0266
     69  CG1       73.7540   54.7860   48.3990 C.3   247  VAL247      0.0020
     70  CG2       74.4040   56.0840   46.3410 C.3   247  VAL247      0.0020
     71  N         78.1750   56.1730   46.8460 N.am  248  THR248     -0.1939
     72  CA        79.3100   56.2210   45.9260 C.3   248  THR248      0.2028
     73  C         80.4880   55.4490   46.5170 C.2   248  THR248      0.2642
     74  O         81.4910   55.2240   45.8460 O.2   248  THR248     -0.2714
     75  CB        79.7500   57.6750   45.5410 C.3   248  THR248      0.1808
     76  OG1       80.3570   58.3170   46.6580 O.3   248  THR248     -0.2208
     77  CG2       78.5670   58.5280   45.0410 C.3   248  THR248      0.0379
     78  N         80.3590   55.0460   47.7800 N.am  249  GLY249     -0.1954
     79  CA        81.3780   54.2510   48.4510 C.3   249  GLY249      0.1869
     80  C         81.2960   52.7590   48.1550 C.2   249  GLY249      0.2309
     81  O         80.8800   52.3470   47.0630 O.2   249  GLY249     -0.2863
     82  N         80.1220   48.7520   48.4010 N.3   251  ASP251     -0.1239
     83  CA        78.8140   48.1260   48.3590 C.3   251  ASP251      0.1674
     84  C         78.2330   47.9210   49.7450 C.2   251  ASP251      0.2266
     85  O         77.0230   48.0290   49.9460 O.2   251  ASP251     -0.2867
     86  CB        78.8870   46.8180   47.5890 C.3   251  ASP251      0.1410
     87  CG        79.2010   47.0380   46.1270 C.2   251  ASP251      0.3668
     88  OD1       79.8120   46.1310   45.5290 O.co2 251  ASP251     -0.2456
     89  OD2       78.8370   48.1190   45.5820 O.co2 251  ASP251     -0.2456
     90  N         66.9170   65.0580   39.8340 N.3   279  LYS279     -0.1231
     91  CA        68.2090   64.8510   39.1990 C.3   279  LYS279      0.1693
     92  C         69.0830   64.0350   40.1380 C.2   279  LYS279      0.2591
     93  O         69.6920   63.0400   39.7420 O.2   279  LYS279     -0.2718
     94  CB        68.8830   66.2020   38.9010 C.3   279  LYS279      0.0285
     95  CG        69.9890   66.1540   37.8480 C.3   279  LYS279      0.0035
     96  CD        71.3040   66.7350   38.3570 C.3   279  LYS279      0.0206
     97  CE        71.1740   68.2000   38.7440 C.3   279  LYS279      0.1093
     98  NZ        72.3530   68.6930   39.5270 N.3   279  LYS279     -0.1314
     99  N         69.1380   64.4520   41.3970 N.am  280  GLU280     -0.1979
    100  CA        70.0550   63.8240   42.3280 C.3   280  GLU280      0.1602
    101  C         69.5620   62.4640   42.7650 C.2   280  GLU280      0.2287
    102  O         70.3730   61.5770   43.0770 O.2   280  GLU280     -0.2864
    103  CB        70.3290   64.7370   43.5100 C.3   280  GLU280      0.0415
    104  CG        70.8800   66.0480   43.0350 C.3   280  GLU280      0.1163
    105  CD        71.7640   66.7110   44.0490 C.2   280  GLU280      0.3649
    106  OE1       72.0660   67.9080   43.8760 O.co2 280  GLU280     -0.2457
    107  OE2       72.1530   66.0390   45.0170 O.co2 280  GLU280     -0.2457
    108  N         70.6560   60.2330   39.9450 N.3   283  TRP283     -0.1241
    109  CA        72.0850   60.0600   40.2110 C.3   283  TRP283      0.1605
    110  C         72.3280   59.0100   41.2890 C.2   283  TRP283      0.2264
    111  O         73.0550   58.0420   41.0730 O.2   283  TRP283     -0.2867
    112  CB        72.6970   61.3930   40.6520 C.3   283  TRP283      0.0550
    113  CG        74.1090   61.2880   41.1900 C.ar  283  TRP283      0.0003
    114  CD1       75.2190   60.8360   40.5230 C.ar  283  TRP283      0.0946
    115  CD2       74.5590   61.6810   42.4920 C.ar  283  TRP283      0.0152
    116  NE1       76.3240   60.9130   41.3360 N.ar  283  TRP283     -0.2442
    117  CE2       75.9460   61.4270   42.5500 C.ar  283  TRP283      0.0810
    118  CE3       73.9220   62.2240   43.6180 C.ar  283  TRP283      0.0012
    119  CZ2       76.7060   61.6850   43.6940 C.ar  283  TRP283      0.0191
    120  CZ3       74.6790   62.4780   44.7590 C.ar  283  TRP283      0.0001
    121  CH2       76.0590   62.2100   44.7850 C.ar  283  TRP283      0.0015
    122  N         71.6630   55.6140   40.1480 N.3   286  SER286     -0.1202
    123  CA        72.7030   55.1120   39.2410 C.3   286  SER286      0.2020
    124  C         73.8480   54.4760   40.0150 C.2   286  SER286      0.2618
    125  O         74.4520   53.5040   39.5630 O.2   286  SER286     -0.2717
    126  CB        73.2470   56.2230   38.3420 C.3   286  SER286      0.2103
    127  OG        74.1880   57.0230   39.0390 O.3   286  SER286     -0.2182
    128  N         74.1550   55.0230   41.1820 N.am  287  ASN287     -0.1974
    129  CA        75.2000   54.4280   41.9950 C.3   287  ASN287      0.1688
    130  C         74.6770   53.2570   42.8460 C.2   287  ASN287      0.2292
    131  O         75.4340   52.5910   43.5670 O.2   287  ASN287     -0.2864
    132  CB        75.9210   55.4990   42.8140 C.3   287  ASN287      0.1181
    133  CG        76.7140   56.4610   41.9340 C.2   287  ASN287      0.2629
    134  OD1       77.4340   56.0330   41.0360 O.2   287  ASN287     -0.2716
    135  ND2       76.5650   57.7630   42.1750 N.am  287  ASN287     -0.0877
    136  N         74.7400   50.4560   40.0750 N.3   290  ALA290     -0.1231
    137  CA        76.1400   50.0710   39.8630 C.3   290  ALA290      0.1694
    138  C         76.6350   49.0060   40.8520 C.2   290  ALA290      0.2592
    139  O         77.7760   48.5710   40.7580 O.2   290  ALA290     -0.2718
    140  CB        77.0420   51.2790   39.9190 C.3   290  ALA290      0.0304
    141  N         75.7840   48.5970   41.7960 N.am  291  GLY291     -0.1957
    142  CA        76.1770   47.6610   42.8410 C.3   291  GLY291      0.1869
    143  C         75.9570   46.1990   42.4940 C.2   291  GLY291      0.2309
    144  O         75.9320   45.8220   41.3270 O.2   291  GLY291     -0.2863
    145  N         69.9000   62.1520   31.5020 N.3   321  LYS321     -0.1231
    146  CA        71.2880   61.7060   31.4090 C.3   321  LYS321      0.1693
    147  C         71.6720   60.8330   32.6120 C.2   321  LYS321      0.2591
    148  O         72.3410   59.8110   32.4470 O.2   321  LYS321     -0.2718
    149  CB        72.2570   62.8910   31.2160 C.3   321  LYS321      0.0285
    150  CG        73.2240   63.1560   32.3870 C.3   321  LYS321      0.0035
    151  CD        74.6830   62.8630   32.0130 C.3   321  LYS321      0.0206
    152  CE        75.6350   63.1280   33.1820 C.3   321  LYS321      0.1093
    153  NZ        77.0260   62.6550   32.8780 N.3   321  LYS321     -0.1314
    154  N         71.2310   61.2120   33.8130 N.am  322  GLU322     -0.1979
    155  CA        71.4580   60.3680   34.9860 C.3   322  GLU322      0.1602
    156  C         70.7280   59.0350   34.8260 C.2   322  GLU322      0.2287
    157  O         71.2890   57.9730   35.1240 O.2   322  GLU322     -0.2864
    158  CB        71.0230   61.0600   36.2900 C.3   322  GLU322      0.0415
    159  CG        71.7170   62.3900   36.5850 C.3   322  GLU322      0.1163
    160  CD        73.2270   62.2640   36.7900 C.2   322  GLU322      0.3649
    161  OE1       73.7170   61.1380   37.0270 O.co2 322  GLU322     -0.2457
    162  OE2       73.9240   63.3000   36.7120 O.co2 322  GLU322     -0.2457
    163  N         72.5580   56.6720   32.6160 N.3   325  TRP325     -0.1241
    164  CA        73.6190   56.1040   33.4320 C.3   325  TRP325      0.1605
    165  C         73.1440   54.9800   34.3530 C.2   325  TRP325      0.2264
    166  O         73.8650   54.0180   34.5770 O.2   325  TRP325     -0.2867
    167  CB        74.2900   57.1980   34.2530 C.3   325  TRP325      0.0550
    168  CG        75.4860   57.7560   33.5980 C.ar  325  TRP325      0.0003
    169  CD1       75.6260   59.0030   33.0570 C.ar  325  TRP325      0.0946
    170  CD2       76.7290   57.0820   33.3950 C.ar  325  TRP325      0.0152
    171  NE1       76.8870   59.1470   32.5410 N.ar  325  TRP325     -0.2442
    172  CE2       77.5830   57.9790   32.7290 C.ar  325  TRP325      0.0810
    173  CE3       77.2010   55.8020   33.7110 C.ar  325  TRP325      0.0012
    174  CZ2       78.8900   57.6410   32.3720 C.ar  325  TRP325      0.0191
    175  CZ3       78.4960   55.4680   33.3630 C.ar  325  TRP325      0.0001
    176  CH2       79.3280   56.3850   32.7030 C.ar  325  TRP325      0.0015
    177  N         72.5010   51.8090   32.1600 N.3   328  THR328     -0.1203
    178  CA        73.7350   51.1760   31.7110 C.3   328  THR328      0.1994
    179  C         74.3680   50.3930   32.8510 C.2   328  THR328      0.2617
    180  O         74.7850   49.2530   32.6590 O.2   328  THR328     -0.2717
    181  CB        74.7500   52.1780   31.1890 C.3   328  THR328      0.1784
    182  OG1       74.0750   53.2100   30.4630 O.3   328  THR328     -0.2211
    183  CG2       75.7240   51.4730   30.2800 C.3   328  THR328      0.0376
    184  N         74.4230   50.9970   34.0380 N.am  329  ASN329     -0.1974
    185  CA        74.9760   50.3130   35.2160 C.3   329  ASN329      0.1688
    186  C         74.1610   49.0790   35.6050 C.2   329  ASN329      0.2292
    187  O         74.7030   48.0500   36.0340 O.2   329  ASN329     -0.2864
    188  CB        75.0930   51.2680   36.4110 C.3   329  ASN329      0.1181
    189  CG        76.2550   52.2460   36.2700 C.2   329  ASN329      0.2629
    190  OD1       77.1690   52.0330   35.4740 O.2   329  ASN329     -0.2716
    191  ND2       76.2230   53.3220   37.0490 N.am  329  ASN329     -0.0877
    192  N         74.7740   46.4250   33.1810 N.3   332  SER332     -0.1202
    193  CA        76.1230   45.8990   33.3590 C.3   332  SER332      0.2020
    194  C         76.1390   44.7640   34.3700 C.2   332  SER332      0.2619
    195  O         76.4200   43.6130   34.0330 O.2   332  SER332     -0.2717
    196  CB        77.0930   46.9950   33.7980 C.3   332  SER332      0.2103
    197  OG        77.5990   47.7050   32.6880 O.3   332  SER332     -0.2182
    198  N         75.8290   45.0930   35.6160 N.am  333  GLY333     -0.1956
    199  CA        75.9330   44.1270   36.6920 C.3   333  GLY333      0.1869
    200  C         74.7300   43.2260   36.8540 C.2   333  GLY333      0.2309
    201  O         74.7750   42.2680   37.6270 O.2   333  GLY333     -0.2863
    202  N         75.9600   51.6520   25.0620 N.3   368  ASP368     -0.1239
    203  CA        76.5660   50.7180   25.9970 C.3   368  ASP368      0.1674
    204  C         75.4960   49.8530   26.6440 C.2   368  ASP368      0.2266
    205  O         75.6530   48.6390   26.7840 O.2   368  ASP368     -0.2867
    206  CB        77.3050   51.4980   27.0760 C.3   368  ASP368      0.1410
    207  CG        78.7170   51.0320   27.2580 C.2   368  ASP368      0.3668
    208  OD1       78.9330   49.8020   27.3330 O.co2 368  ASP368     -0.2456
    209  OD2       79.6080   51.9020   27.3170 O.co2 368  ASP368     -0.2456
@<TRIPOS>BOND
     1   202   203    1
     2   203   204    1
     3   203   206    1
     4   204   205    2
     5   206   207    1
     6   207   209   ar
     7   207   208   ar
     8   183   181    1
     9   182   181    1
    10   181   178    1
    11   149   146    1
    12   149   150    1
    13   146   145    1
    14   146   147    1
    15   178   177    1
    16   178   179    1
    17   151   150    1
    18   151   152    1
    19   174   176   ar
    20   174   172   ar
    21   148   147    2
    22   171   172   ar
    23   171   169   ar
    24   147   154   am
    25   163   164    1
    26   180   179    2
    27   197   196    1
    28   176   175   ar
    29   172   170   ar
    30   179   184   am
    31   153   152    1
    32   169   168   ar
    33   192   193    1
    34   193   196    1
    35   193   194    1
    36   175   173   ar
    37   170   168   ar
    38   170   173   ar
    39   164   167    1
    40   164   165    1
    41   168   167    1
    42   154   155    1
    43   195   194    2
    44   184   185    1
    45   165   166    2
    46   194   198   am
    47   156   155    1
    48   156   157    2
    49   155   158    1
    50   185   186    1
    51   185   188    1
    52   190   189    2
    53   186   187    2
    54   198   199    1
    55   189   188    1
    56   189   191   am
    57   158   159    1
    58   159   160    1
    59   199   200    1
    60   162   160   ar
    61   160   161   ar
    62   200   201    2
    63    95    96    1
    64    95    94    1
    65   126   127    1
    66   126   123    1
    67    96    97    1
    68    97    98    1
    69    94    91    1
    70    91    90    1
    71    91    92    1
    72   123   124    1
    73   123   122    1
    74   125   124    2
    75    93    92    2
    76   137   140    1
    77   137   136    1
    78   137   138    1
    79   108   109    1
    80   124   128   am
    81    92    99   am
    82   109   112    1
    83   109   110    1
    84   114   113   ar
    85   114   116   ar
    86   112   113    1
    87   139   138    2
    88   138   141   am
    89   134   133    2
    90   111   110    2
    91   128   129    1
    92   113   115   ar
    93   144   143    2
    94   116   117   ar
    95    99   100    1
    96   141   142    1
    97   133   135   am
    98   133   132    1
    99   129   132    1
   100   129   130    1
   101   100   101    1
   102   100   103    1
   103   115   117   ar
   104   115   118   ar
   105   143   142    1
   106   117   119   ar
   107   101   102    2
   108   130   131    2
   109   104   103    1
   110   104   105    1
   111   118   120   ar
   112   119   121   ar
   113   106   105   ar
   114   105   107   ar
   115   120   121   ar
   116    77    75    1
   117     9     8    1
   118    88    87   ar
   119    75    72    1
   120    75    76    1
   121    89    87   ar
   122    67    66    2
   123    74    73    2
   124    72    73    1
   125    72    71    1
   126    55    53    1
   127    87    86    1
   128    70    68    1
   129    53    52    2
   130    53    54    1
   131    52    51    1
   132    73    78   am
   133     8     7    1
   134    66    71   am
   135    66    65    1
   136    81    80    2
   137    51    50    1
   138    16    15   ar
   139    68    65    1
   140    68    69    1
   141    62    61    2
   142    86    83    1
   143    17    15   ar
   144     7     6    1
   145    78    79    1
   146    65    64    1
   147    15    14    1
   148    80    79    1
   149    56    57    1
   150    83    82    1
   151    83    84    1
   152    35    34    2
   153     5     6    1
   154     5     2    1
   155    57    58    1
   156    57    60    1
   157    50    49    1
   158    59    58    2
   159    61    60    1
   160    61    63   am
   161    36    34   am
   162    46    49    1
   163    46    45    1
   164    46    47    1
   165     4     3    2
   166    48    47    2
   167     3     2    1
   168    34    33    1
   169    21    20    2
   170    14    11    1
   171    19    18    1
   172    19    20    1
   173    18    12   am
   174    20    22   am
   175     2     1    1
   176    11    12    1
   177    11    10    1
   178    84    85    2
   179    12    13    2
   180    22    23    1
   181    22    28    1
   182    23    26    1
   183    23    24    1
   184    27    28    1
   185    27    26    1
   186    44    42    1
   187    29    24   am
   188    29    30    1
   189    33    30    1
   190    24    25    2
   191    30    31    1
   192    42    41    1
   193    31    32    2
   194    41    43    1
   195    41    38    1
   196    37    38    1
   197    38    39    1
   198    39    40    2
