@<TRIPOS>MOLECULE
tmp/3q5yB01.pdb
 76 73 0 0 0
SMALL
GASTEIGER

@<TRIPOS>ATOM
      1  N         15.3200  -26.5430   35.5100 N.3   151  ASP151     -0.1239
      2  CA        16.7550  -26.5010   35.2950 C.3   151  ASP151      0.1674
      3  C         17.1060  -25.9620   33.9030 C.2   151  ASP151      0.2266
      4  O         17.5150  -26.7200   33.0110 O.2   151  ASP151     -0.2867
      5  CB        17.3610  -27.8910   35.4640 C.3   151  ASP151      0.1410
      6  CG        18.7200  -27.9990   34.8030 C.2   151  ASP151      0.3668
      7  OD1       19.1620  -29.1320   34.4860 O.co2 151  ASP151     -0.2456
      8  OD2       19.3210  -26.9240   34.5880 O.co2 151  ASP151     -0.2456
      9  N         19.4460  -23.2060   33.0040 N.3   153  VAL153     -0.1231
     10  CA        20.4290  -22.1550   33.2620 C.3   153  VAL153      0.1692
     11  C         21.6370  -22.3480   32.3640 C.2   153  VAL153      0.2592
     12  O         21.9000  -23.4660   31.8990 O.2   153  VAL153     -0.2718
     13  CB        20.9060  -22.1670   34.7100 C.3   153  VAL153      0.0266
     14  CG1       19.7890  -21.7830   35.6700 C.3   153  VAL153      0.0020
     15  CG2       21.4880  -23.5200   35.0610 C.3   153  VAL153      0.0020
     16  N         22.3580  -21.2540   32.1150 N.am  154  GLU154     -0.1966
     17  CA        23.6010  -21.2830   31.3660 C.3   154  GLU154      0.1733
     18  C         24.5910  -20.4420   32.1440 C.2   154  GLU154      0.2616
     19  O         24.3490  -19.2660   32.4020 O.2   154  GLU154     -0.2715
     20  CB        23.4420  -20.6790   29.9650 C.3   154  GLU154      0.0429
     21  CG        22.4420  -21.3660   29.0710 C.3   154  GLU154      0.1163
     22  CD        22.2770  -20.6170   27.7480 C.2   154  GLU154      0.3649
     23  OE1       23.2400  -20.6100   26.9490 O.co2 154  GLU154     -0.2457
     24  OE2       21.2090  -19.9910   27.5450 O.co2 154  GLU154     -0.2457
     25  N         25.7000  -21.0530   32.5260 N.am  155  LEU155     -0.1977
     26  CA        26.6630  -20.4180   33.4070 C.3   155  LEU155      0.1596
     27  C         27.9390  -20.1560   32.6250 C.2   155  LEU155      0.2287
     28  O         28.4110  -21.0440   31.9030 O.2   155  LEU155     -0.2864
     29  CB        26.9610  -21.3410   34.5870 C.3   155  LEU155      0.0297
     30  CG        27.9550  -20.8260   35.6280 C.3   155  LEU155      0.0022
     31  CD1       27.6360  -21.4780   36.9910 C.3   155  LEU155      0.0001
     32  CD2       29.4110  -21.0740   35.2150 C.3   155  LEU155      0.0001
     33  N         32.7980  -26.8760   34.8650 N.3   170  THR170     -0.1203
     34  CA        31.4100  -26.7310   35.2880 C.3   170  THR170      0.1994
     35  C         30.7540  -28.1070   35.4240 C.2   170  THR170      0.2618
     36  O         30.9870  -28.9830   34.5960 O.2   170  THR170     -0.2717
     37  CB        30.6270  -25.8700   34.2720 C.3   170  THR170      0.1784
     38  OG1       31.2030  -24.5700   34.2160 O.3   170  THR170     -0.2211
     39  CG2       29.1500  -25.7500   34.6520 C.3   170  THR170      0.0376
     40  N         29.9690  -28.3230   36.4790 N.am  171  ASP171     -0.1960
     41  CA        29.2100  -29.5810   36.5990 C.3   171  ASP171      0.1825
     42  C         28.4240  -29.8020   35.3180 C.2   171  ASP171      0.2464
     43  O         27.7750  -28.8860   34.8330 O.2   171  ASP171     -0.2730
     44  CB        28.2030  -29.5430   37.7530 C.3   171  ASP171      0.1450
     45  CG        28.8530  -29.4630   39.0960 C.2   171  ASP171      0.3671
     46  OD1       30.0510  -29.8190   39.1990 O.co2 171  ASP171     -0.2456
     47  OD2       28.1550  -29.0190   40.0500 O.co2 171  ASP171     -0.2456
     48  N         28.4700  -31.0200   34.7710 N.am  172  PRO172     -0.2715
     49  CA        27.7810  -31.2950   33.5100 C.3   172  PRO172      0.1536
     50  C         26.2450  -31.1260   33.5810 C.2   172  PRO172      0.2598
     51  O         25.6080  -30.8160   32.5740 O.2   172  PRO172     -0.2715
     52  CB        28.1730  -32.7410   33.1890 C.3   172  PRO172      0.0310
     53  CG        28.8260  -33.2900   34.4150 C.3   172  PRO172      0.0237
     54  CD        29.3070  -32.1420   35.2270 C.3   172  PRO172      0.0939
     55  N         25.6480  -31.3010   34.7570 N.am  173  GLN173     -0.1964
     56  CA        24.1830  -31.2280   34.8710 C.3   173  GLN173      0.1733
     57  C         23.8130  -30.8450   36.3050 C.2   173  GLN173      0.2616
     58  O         24.3630  -31.3890   37.2510 O.2   173  GLN173     -0.2715
     59  CB        23.5580  -32.5810   34.4880 C.3   173  GLN173      0.0408
     60  CG        22.0200  -32.6100   34.4770 C.3   173  GLN173      0.0908
     61  CD        21.4450  -33.9070   33.9240 C.2   173  GLN173      0.2608
     62  OE1       22.0920  -34.5990   33.1410 O.2   173  GLN173     -0.2717
     63  NE2       20.2150  -34.2270   34.3090 N.am  173  GLN173     -0.0878
     64  N         22.8880  -29.9090   36.4560 N.am  174  ALA174     -0.1977
     65  CA        22.4010  -29.5130   37.7730 C.3   174  ALA174      0.1597
     66  C         21.7320  -30.6990   38.4450 C.2   174  ALA174      0.2287
     67  O         21.1740  -31.5750   37.7720 O.2   174  ALA174     -0.2864
     68  CB        21.4200  -28.3690   37.6320 C.3   174  ALA174      0.0319
     69  N         23.8500  -26.0830   40.8850 N.3   184  LEU184     -0.1245
     70  CA        24.8900  -26.2500   39.8800 C.3   184  LEU184      0.1561
     71  C         26.1350  -25.4860   40.3440 C.2   184  LEU184      0.2260
     72  O         26.0310  -24.3340   40.7600 O.2   184  LEU184     -0.2867
     73  CB        24.4050  -25.6780   38.5530 C.3   184  LEU184      0.0270
     74  CG        25.4280  -25.6930   37.4140 C.3   184  LEU184      0.0019
     75  CD1       25.6110  -27.1060   36.9390 C.3   184  LEU184      0.0001
     76  CD2       24.9810  -24.8020   36.2490 C.3   184  LEU184      0.0001
@<TRIPOS>BOND
     1    23    22   ar
     2    24    22   ar
     3    22    21    1
     4    21    20    1
     5    20    17    1
     6    17    16    1
     7    17    18    1
     8    12    11    2
     9    28    27    2
    10    16    11   am
    11    18    19    2
    12    18    25   am
    13    11    10    1
    14    25    26    1
    15    51    50    2
    16    27    26    1
    17     9    10    1
    18     4     3    2
    19    62    61    2
    20    52    49    1
    21    52    53    1
    22    10    13    1
    23    26    29    1
    24    49    50    1
    25    49    48    1
    26    50    55   am
    27     3     2    1
    28    61    63   am
    29    61    60    1
    30    38    37    1
    31    37    39    1
    32    37    34    1
    33    53    54    1
    34    60    59    1
    35     7     6   ar
    36    59    56    1
    37    29    30    1
    38     8     6   ar
    39    36    35    2
    40    13    15    1
    41    13    14    1
    42    55    56    1
    43    48    54    1
    44    48    42   am
    45     6     5    1
    46    43    42    2
    47    33    34    1
    48    56    57    1
    49    32    30    1
    50    34    35    1
    51     2     5    1
    52     2     1    1
    53    42    41    1
    54    35    40   am
    55    30    31    1
    56    76    74    1
    57    57    64   am
    58    57    58    2
    59    64    65    1
    60    40    41    1
    61    41    44    1
    62    75    74    1
    63    74    73    1
    64    68    65    1
    65    44    45    1
    66    67    66    2
    67    65    66    1
    68    73    70    1
    69    45    46   ar
    70    45    47   ar
    71    70    71    1
    72    70    69    1
    73    71    72    2
