@<TRIPOS>MOLECULE
tmp/3q60A00.pdb
 170 162 0 0 0
SMALL
GASTEIGER

@<TRIPOS>ATOM
      1  N        -11.2930   21.4210  -11.7180 N.3    65  LEU65      -0.1231
      2  CA       -12.0820   20.2780  -11.2290 C.3    65  LEU65       0.1693
      3  C        -11.2930   18.9730  -11.2160 C.2    65  LEU65       0.2592
      4  O        -11.2540   18.2880  -10.2030 O.2    65  LEU65      -0.2718
      5  CB       -13.3670   20.0830  -12.0650 C.3    65  LEU65       0.0284
      6  CG       -14.4550   21.1480  -11.9970 C.3    65  LEU65       0.0019
      7  CD1      -15.5390   20.8600  -13.0280 C.3    65  LEU65       0.0001
      8  CD2      -15.0380   21.1590  -10.5880 C.3    65  LEU65       0.0001
      9  N        -10.6800   18.5810  -12.3450 N.am   66  ARG66      -0.1966
     10  CA       -10.0710   17.2540  -12.4020 C.3    66  ARG66       0.1729
     11  C         -8.9120   17.2470  -13.3410 C.2    66  ARG66       0.2616
     12  O         -8.9340   17.9570  -14.3490 O.2    66  ARG66      -0.2715
     13  CB       -11.0700   16.1800  -12.9400 C.3    66  ARG66       0.0348
     14  CG       -12.4340   16.2070  -12.2870 C.3    66  ARG66       0.0492
     15  CD       -12.3920   15.5020  -10.9090 C.3    66  ARG66       0.2205
     16  NE       -12.4060   14.0460  -11.0810 N.pl3  66  ARG66      -0.0865
     17  CZ       -11.5710   13.1800  -10.5330 C.cat  66  ARG66       0.5346
     18  NH1      -10.6400   13.6030   -9.6830 N.pl3  66  ARG66       0.1354
     19  NH2      -11.7010   11.8710  -10.7840 N.pl3  66  ARG66       0.1354
     20  N         -7.9120   16.4170  -13.0490 N.am   67  VAL67      -0.1963
     21  CA        -6.8690   16.0870  -14.0550 C.3    67  VAL67       0.1727
     22  C         -7.0760   14.7000  -14.6690 C.2    67  VAL67       0.2617
     23  O         -7.3940   13.7250  -13.9990 O.2    67  VAL67      -0.2715
     24  CB        -5.4550   16.2360  -13.4000 C.3    67  VAL67       0.0290
     25  CG1       -4.3490   15.9900  -14.3970 C.3    67  VAL67       0.0023
     26  CG2       -5.3490   17.5950  -12.8480 C.3    67  VAL67       0.0023
     27  N         -6.9560   14.5900  -15.9730 N.am   68  GLY68      -0.1940
     28  CA        -7.0630   13.3090  -16.6110 C.3    68  GLY68       0.2014
     29  C         -5.6940   12.9120  -17.1060 C.2    68  GLY68       0.2639
     30  O         -4.6820   13.5640  -16.7710 O.2    68  GLY68      -0.2714
     31  N         -5.6740   11.8680  -17.9160 N.am   69  ASP69      -0.1957
     32  CA        -4.4060   11.3580  -18.4640 C.3    69  ASP69       0.1840
     33  C         -3.8340   12.3290  -19.4630 C.2    69  ASP69       0.2622
     34  O         -2.6270   12.4050  -19.6050 O.2    69  ASP69      -0.2715
     35  CB        -4.6500   10.0100  -19.1270 C.3    69  ASP69       0.1450
     36  CG        -4.9530    8.9270  -18.0990 C.2    69  ASP69       0.3671
     37  OD1       -4.7320    9.1850  -16.8850 O.co2  69  ASP69      -0.2456
     38  OD2       -5.3880    7.8390  -18.5190 O.co2  69  ASP69      -0.2456
     39  N         -4.6990   13.0660  -20.1580 N.am   70  ARG70      -0.1963
     40  CA        -4.2390   13.9670  -21.2300 C.3    70  ARG70       0.1729
     41  C         -4.9800   15.2840  -21.2040 C.2    70  ARG70       0.2616
     42  O         -5.1340   15.8780  -22.2420 O.2    70  ARG70      -0.2715
     43  CB        -4.5650   13.3970  -22.6140 C.3    70  ARG70       0.0348
     44  CG        -4.0130   12.0610  -22.9760 C.3    70  ARG70       0.0492
     45  CD        -4.8420   11.5250  -24.1560 C.3    70  ARG70       0.2205
     46  NE        -5.3400   10.1950  -23.8570 N.pl3  70  ARG70      -0.0865
     47  CZ        -6.4940    9.6980  -24.2760 C.cat  70  ARG70       0.5346
     48  NH1       -7.3220   10.4280  -25.0160 N.pl3  70  ARG70       0.1354
     49  NH2       -6.8210    8.4550  -23.9390 N.pl3  70  ARG70       0.1354
     50  N         -5.4640   15.7250  -20.0520 N.am   71  SER71      -0.1950
     51  CA        -6.3460   16.9060  -20.0520 C.3    71  SER71       0.1924
     52  C         -6.4840   17.4490  -18.6520 C.2    71  SER71       0.2314
     53  O         -6.0810   16.8140  -17.6690 O.2    71  SER71      -0.2863
     54  CB        -7.7100   16.4950  -20.5830 C.3    71  SER71       0.2116
     55  OG        -8.3090   15.5910  -19.6910 O.3    71  SER71      -0.2180
     56  N         -9.7750   19.5070  -16.6010 N.3    73  VAL73      -0.1245
     57  CA       -11.1710   19.9530  -16.7870 C.3    73  VAL73       0.1561
     58  C        -11.4350   21.0080  -15.7150 C.2    73  VAL73       0.2260
     59  O        -11.0950   20.8070  -14.5480 O.2    73  VAL73      -0.2867
     60  CB       -12.1590   18.7690  -16.6400 C.3    73  VAL73       0.0252
     61  CG1      -13.6320   19.2820  -16.6840 C.3    73  VAL73       0.0019
     62  CG2      -11.9060   17.7290  -17.7660 C.3    73  VAL73       0.0019
     63  N        -18.4740   22.7330  -17.7910 N.3    86  ALA86      -0.1245
     64  CA       -17.1300   22.1600  -17.6540 C.3    86  ALA86       0.1562
     65  C        -16.3790   22.5290  -18.9460 C.2    86  ALA86       0.2260
     66  O        -16.9660   22.5840  -20.0440 O.2    86  ALA86      -0.2867
     67  CB       -17.1980   20.6610  -17.4740 C.3    86  ALA86       0.0290
     68  N        -12.9310   21.3880  -20.9940 N.3    88  LYS88      -0.1245
     69  CA       -11.8190   20.4410  -21.0450 C.3    88  LYS88       0.1561
     70  C        -10.7430   20.9890  -21.9770 C.2    88  LYS88       0.2260
     71  O        -11.0190   21.4410  -23.1230 O.2    88  LYS88      -0.2867
     72  CB       -12.3550   19.0780  -21.4920 C.3    88  LYS88       0.0271
     73  CG       -11.2070   17.9950  -21.5980 C.3    88  LYS88       0.0035
     74  CD       -11.8680   16.6330  -21.9310 C.3    88  LYS88       0.0206
     75  CE       -10.8640   15.5150  -21.8800 C.3    88  LYS88       0.1093
     76  NZ       -11.3870   14.2730  -22.4790 N.3    88  LYS88      -0.1314
     77  N        -23.5020   12.3620  -22.2350 N.3   119  LEU119     -0.1245
     78  CA       -23.0460   13.7110  -21.9490 C.3   119  LEU119      0.1561
     79  C        -22.2690   14.2320  -23.1520 C.2   119  LEU119      0.2260
     80  O        -21.1410   13.7740  -23.4110 O.2   119  LEU119     -0.2867
     81  CB       -22.1770   13.6730  -20.6880 C.3   119  LEU119      0.0270
     82  CG       -21.8620   14.9930  -19.9750 C.3   119  LEU119      0.0019
     83  CD1      -21.2550   14.6980  -18.5470 C.3   119  LEU119      0.0001
     84  CD2      -20.8990   15.8350  -20.7990 C.3   119  LEU119      0.0001
     85  N        -18.8580   21.7550  -22.1130 N.3   149  MET149     -0.1231
     86  CA       -19.9190   20.7580  -21.9370 C.3   149  MET149      0.1687
     87  C        -20.6210   20.9580  -20.5870 C.2   149  MET149      0.2434
     88  O        -20.1550   21.6920  -19.7580 O.2   149  MET149     -0.2733
     89  CB       -19.3560   19.3310  -22.1050 C.3   149  MET149      0.0400
     90  CG       -18.4190   18.8770  -21.0430 C.3   149  MET149      0.0596
     91  SD       -17.3740   17.3880  -21.5480 S.3   149  MET149     -0.1393
     92  CE       -15.8150   18.1260  -21.3180 C.3   149  MET149      0.0692
     93  N        -21.7530   20.2770  -20.3610 N.am  150  PRO150     -0.2729
     94  CA       -22.3990   20.3750  -19.0670 C.3   150  PRO150      0.1401
     95  C        -21.4700   19.8460  -17.9880 C.2   150  PRO150      0.2269
     96  O        -20.8000   18.8400  -18.1740 O.2   150  PRO150     -0.2865
     97  CB       -23.6240   19.4570  -19.2190 C.3   150  PRO150      0.0296
     98  CG       -23.8330   19.3480  -20.6800 C.3   150  PRO150      0.0237
     99  CD       -22.4450   19.3310  -21.2450 C.3   150  PRO150      0.0939
    100  N        -20.7690   17.7080  -14.7810 N.3   152  ALA152     -0.1231
    101  CA       -21.2480   16.6580  -13.9010 C.3   152  ALA152      0.1694
    102  C        -21.0870   17.1210  -12.4660 C.2   152  ALA152      0.2593
    103  O        -20.2030   17.9180  -12.1770 O.2   152  ALA152     -0.2718
    104  CB       -20.4210   15.3800  -14.0880 C.3   152  ALA152      0.0304
    105  N        -21.8940   16.5970  -11.5630 N.am  153  SER153     -0.1938
    106  CA       -21.6030   16.7950  -10.1540 C.3   153  SER153      0.2055
    107  C        -20.3690   16.0620   -9.7010 C.2   153  SER153      0.2643
    108  O        -19.5770   16.6080   -8.9540 O.2   153  SER153     -0.2714
    109  CB       -22.7730   16.3250   -9.2560 C.3   153  SER153      0.2130
    110  OG       -23.9210   17.0400   -9.6020 O.3   153  SER153     -0.2179
    111  N        -20.2540   14.8100  -10.1370 N.am  154  VAL154     -0.1963
    112  CA       -19.1020   13.9790   -9.8370 C.3   154  VAL154      0.1727
    113  C        -18.9870   12.9640  -10.9560 C.2   154  VAL154      0.2616
    114  O        -19.9840   12.6050  -11.5660 O.2   154  VAL154     -0.2715
    115  CB       -19.2750   13.3240   -8.3990 C.3   154  VAL154      0.0290
    116  CG1      -20.3130   12.2020   -8.4450 C.3   154  VAL154      0.0023
    117  CG2      -17.9790   12.8010   -7.8450 C.3   154  VAL154      0.0023
    118  N        -17.7620   12.5540  -11.2940 N.am  155  ASP155     -0.1971
    119  CA       -17.5780   11.3580  -12.1160 C.3   155  ASP155      0.1709
    120  C        -17.4390   10.2210  -11.1070 C.2   155  ASP155      0.2293
    121  O        -17.0140   10.4900   -9.9780 O.2   155  ASP155     -0.2864
    122  CB       -16.3210   11.5360  -12.9850 C.3   155  ASP155      0.1436
    123  CG       -15.0680   11.9280  -12.1760 C.2   155  ASP155      0.3671
    124  OD1      -14.9980   13.0500  -11.6540 O.co2 155  ASP155     -0.2456
    125  OD2      -14.0980   11.1090  -12.1330 O.co2 155  ASP155     -0.2456
    126  N        -15.2360    2.7710  -23.4940 N.3   201  HIS201     -0.1241
    127  CA       -14.8320    2.9930  -22.1080 C.3   201  HIS201      0.1621
    128  C        -16.0410    3.3990  -21.2340 C.2   201  HIS201      0.2264
    129  O        -16.2260    4.5660  -20.8830 O.2   201  HIS201     -0.2867
    130  CB       -13.6170    3.9320  -21.9240 C.3   201  HIS201      0.0745
    131  CG       -13.7540    5.2970  -22.5280 C.ar  201  HIS201      0.0817
    132  ND1      -13.5170    5.5410  -23.8670 N.ar  201  HIS201     -0.2268
    133  CD2      -13.9580    6.5090  -21.9520 C.ar  201  HIS201      0.1154
    134  CE1      -13.6800    6.8390  -24.1090 C.ar  201  HIS201      0.1986
    135  NE2      -13.8940    7.4590  -22.9500 N.ar  201  HIS201     -0.2212
    136  N        -14.1400    7.0890  -15.0140 N.3   205  ASP205     -0.1225
    137  CA       -13.8460    8.4730  -15.4100 C.3   205  ASP205      0.1805
    138  C        -14.7320    8.9770  -16.5510 C.2   205  ASP205      0.2597
    139  O        -14.6050   10.1250  -16.9650 O.2   205  ASP205     -0.2718
    140  CB       -12.3670    8.6050  -15.8670 C.3   205  ASP205      0.1424
    141  CG       -12.0780    7.8390  -17.1540 C.2   205  ASP205      0.3668
    142  OD1      -12.8480    6.9360  -17.4910 O.co2 205  ASP205     -0.2456
    143  OD2      -11.0670    8.1030  -17.8360 O.co2 205  ASP205     -0.2456
    144  N        -15.6310    8.1340  -17.0250 N.am  206  ASN206     -0.1974
    145  CA       -16.5590    8.5390  -18.0760 C.3   206  ASN206      0.1688
    146  C        -18.0060    8.2180  -17.7140 C.2   206  ASN206      0.2292
    147  O        -18.8770    8.1540  -18.5750 O.2   206  ASN206     -0.2864
    148  CB       -16.1810    7.7780  -19.3710 C.3   206  ASN206      0.1181
    149  CG       -16.8940    8.3350  -20.5720 C.2   206  ASN206      0.2629
    150  OD1      -17.0200    9.5350  -20.6990 O.2   206  ASN206     -0.2716
    151  ND2      -17.3470    7.4470  -21.4770 N.am  206  ASN206     -0.0877
    152  N        -21.0110    9.6240  -15.1060 N.3   208  PHE208     -0.1241
    153  CA       -21.1720   10.9380  -14.4370 C.3   208  PHE208      0.1605
    154  C        -22.4940   10.9640  -13.7470 C.2   208  PHE208      0.2264
    155  O        -23.4920   10.5590  -14.3190 O.2   208  PHE208     -0.2867
    156  CB       -21.1770   12.0720  -15.4710 C.3   208  PHE208      0.0534
    157  CG       -19.8470   12.1590  -16.2410 C.ar  208  PHE208     -0.0203
    158  CD1      -18.7640   12.7300  -15.6330 C.ar  208  PHE208     -0.0042
    159  CD2      -19.7010   11.6450  -17.5400 C.ar  208  PHE208     -0.0042
    160  CE1      -17.5180   12.8490  -16.2830 C.ar  208  PHE208     -0.0003
    161  CE2      -18.4640   11.7550  -18.1950 C.ar  208  PHE208     -0.0003
    162  CZ       -17.3790   12.3460  -17.5680 C.ar  208  PHE208     -0.0000
    163  N        -18.1410   10.9520  -23.8070 N.3   219  ASP219     -0.1239
    164  CA       -17.3050   10.5750  -24.9760 C.3   219  ASP219      0.1674
    165  C        -18.0480    9.8070  -26.0690 C.2   219  ASP219      0.2266
    166  O        -17.7790    8.6440  -26.3320 O.2   219  ASP219     -0.2867
    167  CB       -16.1030    9.7780  -24.4580 C.3   219  ASP219      0.1410
    168  CG       -15.1850   10.6640  -23.6570 C.2   219  ASP219      0.3668
    169  OD1      -14.5230   10.1680  -22.7070 O.co2 219  ASP219     -0.2456
    170  OD2      -15.1990   11.9100  -23.9440 O.co2 219  ASP219     -0.2456
@<TRIPOS>BOND
     1   166   165    2
     2   165   164    1
     3    48    47    1
     4   164   167    1
     5   164   163    1
     6   167   168    1
     7    47    49    1
     8    47    46    2
     9    45    46    1
    10    45    44    1
    11   134   132   ar
    12   134   135   ar
    13   170   168   ar
    14   132   131   ar
    15   168   169   ar
    16   126   127    1
    17    80    79    2
    18    79    78    1
    19    71    70    2
    20    44    43    1
    21   135   133   ar
    22    43    40    1
    23   131   133   ar
    24   131   130    1
    25    76    75    1
    26    42    41    2
    27    77    78    1
    28    85    86    1
    29   127   130    1
    30   127   128    1
    31    89    86    1
    32    89    90    1
    33    70    69    1
    34    78    81    1
    35    86    87    1
    36    74    75    1
    37    74    73    1
    38    73    72    1
    39    91    92    1
    40    91    90    1
    41    72    69    1
    42   151   149   am
    43    99    98    1
    44    99    93    1
    45   128   129    2
    46    40    41    1
    47    40    39    1
    48    41    50   am
    49    69    68    1
    50    84    82    1
    51   150   149    2
    52    81    82    1
    53    98    97    1
    54    87    93   am
    55    87    88    2
    56    54    51    1
    57    54    55    1
    58   149   148    1
    59    93    94    1
    60    39    33   am
    61    50    51    1
    62    51    52    1
    63    66    65    2
    64    82    83    1
    65    34    33    2
    66    33    32    1
    67   148   145    1
    68    97    94    1
    69    35    32    1
    70    35    36    1
    71    94    95    1
    72    65    64    1
    73    52    53    2
    74   147   146    2
    75    38    36   ar
    76    32    31    1
    77   161   162   ar
    78   161   159   ar
    79    96    95    2
    80    36    37   ar
    81   145   146    1
    82   145   144    1
    83    31    29   am
    84   143   141   ar
    85    63    64    1
    86    62    60    1
    87    64    67    1
    88   162   160   ar
    89   159   157   ar
    90   142   141   ar
    91   141   140    1
    92    29    30    2
    93    29    28    1
    94   144   138   am
    95   139   138    2
    96    57    60    1
    97    57    56    1
    98    57    58    1
    99    61    60    1
   100    28    27    1
   101   138   137    1
   102   160   158   ar
   103   157   158   ar
   104   157   156    1
   105    27    22   am
   106   140   137    1
   107    58    59    2
   108   156   153    1
   109   137   136    1
   110   152   153    1
   111   100   101    1
   112    22    21    1
   113    22    23    2
   114   153   154    1
   115    25    24    1
   116    12    11    2
   117   155   154    2
   118   104   101    1
   119    21    24    1
   120    21    20    1
   121   101   102    1
   122    24    26    1
   123    11    20   am
   124    11    10    1
   125     7     6    1
   126   122   123    1
   127   122   119    1
   128    13    10    1
   129    13    14    1
   130   102   103    2
   131   102   105   am
   132    10     9    1
   133     9     3   am
   134    14    15    1
   135   123   125   ar
   136   123   124   ar
   137   119   118    1
   138   119   120    1
   139     5     6    1
   140     5     2    1
   141     6     8    1
   142     1     2    1
   143   114   113    2
   144   105   106    1
   145   118   113   am
   146     2     3    1
   147     3     4    2
   148   120   121    2
   149    16    15    1
   150    16    17    2
   151   113   112    1
   152    19    17    1
   153    17    18    1
   154   106   107    1
   155   106   109    1
   156   111   112    1
   157   111   107   am
   158   112   115    1
   159   107   108    2
   160   110   109    1
   161   116   115    1
   162   115   117    1
