@<TRIPOS>MOLECULE
tmp/3q60A01.pdb
 87 80 0 0 0
SMALL
GASTEIGER

@<TRIPOS>ATOM
      1  N        -12.9310   21.3880  -20.9940 N.3    88  LYS88      -0.1245
      2  CA       -11.8190   20.4410  -21.0450 C.3    88  LYS88       0.1561
      3  C        -10.7430   20.9890  -21.9770 C.2    88  LYS88       0.2260
      4  O        -11.0190   21.4410  -23.1230 O.2    88  LYS88      -0.2867
      5  CB       -12.3550   19.0780  -21.4920 C.3    88  LYS88       0.0271
      6  CG       -11.2070   17.9950  -21.5980 C.3    88  LYS88       0.0035
      7  CD       -11.8680   16.6330  -21.9310 C.3    88  LYS88       0.0206
      8  CE       -10.8640   15.5150  -21.8800 C.3    88  LYS88       0.1093
      9  NZ       -11.3870   14.2730  -22.4790 N.3    88  LYS88      -0.1314
     10  N         -6.7170   20.1910  -23.4220 N.3    90  PHE90      -0.1241
     11  CA        -5.9680   18.9710  -23.7540 C.3    90  PHE90       0.1605
     12  C         -4.4940   19.2430  -23.8000 C.2    90  PHE90       0.2264
     13  O         -4.0890   20.2590  -24.3510 O.2    90  PHE90      -0.2867
     14  CB        -6.3750   18.4980  -25.1550 C.3    90  PHE90       0.0534
     15  CG        -7.8080   18.0970  -25.2480 C.ar   90  PHE90      -0.0203
     16  CD1       -8.7910   19.0650  -25.5160 C.ar   90  PHE90      -0.0042
     17  CD2       -8.1720   16.7680  -25.1010 C.ar   90  PHE90      -0.0042
     18  CE1      -10.1870   18.6720  -25.5960 C.ar   90  PHE90      -0.0003
     19  CE2       -9.5360   16.3520  -25.1910 C.ar   90  PHE90      -0.0003
     20  CZ       -10.5380   17.3100  -25.4580 C.ar   90  PHE90      -0.0000
     21  N        -10.7750   14.3540  -33.4710 N.3   104  LEU104     -0.1245
     22  CA       -11.6730   14.1940  -32.3420 C.3   104  LEU104      0.1561
     23  C        -12.7940   15.2400  -32.4700 C.2   104  LEU104      0.2260
     24  O        -13.9530   14.9240  -32.3170 O.2   104  LEU104     -0.2867
     25  CB       -10.9530   14.3590  -30.9720 C.3   104  LEU104      0.0270
     26  CG       -11.9080   14.4500  -29.7700 C.3   104  LEU104      0.0019
     27  CD1      -12.6170   13.1050  -29.5550 C.3   104  LEU104      0.0001
     28  CD2      -11.1080   14.8960  -28.5230 C.3   104  LEU104      0.0001
     29  N        -16.5370   14.0920  -32.9480 N.3   108  THR108     -0.1218
     30  CA       -17.4430   14.3650  -31.8170 C.3   108  THR108      0.1862
     31  C        -18.6640   15.1300  -32.2640 C.2   108  THR108      0.2287
     32  O        -19.8270   14.7590  -31.9910 O.2   108  THR108     -0.2866
     33  CB       -16.6940   15.1550  -30.7190 C.3   108  THR108      0.1770
     34  OG1      -15.6500   14.3290  -30.1840 O.3   108  THR108     -0.2211
     35  CG2      -17.6250   15.4950  -29.5810 C.3   108  THR108      0.0375
     36  N        -23.5020   12.3620  -22.2350 N.3   119  LEU119     -0.1245
     37  CA       -23.0460   13.7110  -21.9490 C.3   119  LEU119      0.1561
     38  C        -22.2690   14.2320  -23.1520 C.2   119  LEU119      0.2260
     39  O        -21.1410   13.7740  -23.4110 O.2   119  LEU119     -0.2867
     40  CB       -22.1770   13.6730  -20.6880 C.3   119  LEU119      0.0270
     41  CG       -21.8620   14.9930  -19.9750 C.3   119  LEU119      0.0019
     42  CD1      -21.2550   14.6980  -18.5470 C.3   119  LEU119      0.0001
     43  CD2      -20.8990   15.8350  -20.7990 C.3   119  LEU119      0.0001
     44  N        -20.7230   17.4820  -25.5860 N.3   121  PRO121     -0.2116
     45  CA       -20.2780   18.8850  -25.5640 C.3   121  PRO121      0.1372
     46  C        -21.2260   19.7050  -26.4370 C.2   121  PRO121      0.2244
     47  O        -21.8060   19.1700  -27.4020 O.2   121  PRO121     -0.2868
     48  CB       -18.8800   18.8510  -26.2060 C.3   121  PRO121      0.0268
     49  CG       -18.8920   17.6030  -27.0280 C.3   121  PRO121      0.0207
     50  CD       -19.7810   16.6120  -26.3340 C.3   121  PRO121      0.0892
     51  N        -12.9900   22.4550  -24.9310 N.3   147  LEU147     -0.1245
     52  CA       -14.2680   21.7950  -25.1940 C.3   147  LEU147      0.1561
     53  C        -15.2450   22.1350  -24.0900 C.2   147  LEU147      0.2260
     54  O        -14.9830   21.8790  -22.9100 O.2   147  LEU147     -0.2867
     55  CB       -14.0750   20.2620  -25.2950 C.3   147  LEU147      0.0270
     56  CG       -15.1790   19.4200  -25.9340 C.3   147  LEU147      0.0019
     57  CD1      -15.4940   19.8450  -27.4240 C.3   147  LEU147      0.0001
     58  CD2      -14.7530   17.9360  -25.8790 C.3   147  LEU147      0.0001
     59  N        -18.8580   21.7550  -22.1130 N.3   149  MET149     -0.1245
     60  CA       -19.9190   20.7580  -21.9370 C.3   149  MET149      0.1570
     61  C        -20.6210   20.9580  -20.5870 C.2   149  MET149      0.2261
     62  O        -20.1550   21.6920  -19.7580 O.2   149  MET149     -0.2867
     63  CB       -19.3560   19.3310  -22.1050 C.3   149  MET149      0.0387
     64  CG       -18.4190   18.8770  -21.0430 C.3   149  MET149      0.0595
     65  SD       -17.3740   17.3880  -21.5480 S.3   149  MET149     -0.1393
     66  CE       -15.8150   18.1260  -21.3180 C.3   149  MET149      0.0692
     67  N        -18.1410   10.9520  -23.8070 N.3   219  ASP219     -0.1225
     68  CA       -17.3050   10.5750  -24.9760 C.3   219  ASP219      0.1805
     69  C        -18.0480    9.8070  -26.0690 C.2   219  ASP219      0.2598
     70  O        -17.7790    8.6440  -26.3320 O.2   219  ASP219     -0.2718
     71  CB       -16.1030    9.7780  -24.4580 C.3   219  ASP219      0.1424
     72  CG       -15.1850   10.6640  -23.6570 C.2   219  ASP219      0.3668
     73  OD1      -14.5230   10.1680  -22.7070 O.co2 219  ASP219     -0.2456
     74  OD2      -15.1990   11.9100  -23.9440 O.co2 219  ASP219     -0.2456
     75  N        -18.9270   10.5120  -26.7730 N.am  220  VAL220     -0.1966
     76  CA       -19.7190    9.8830  -27.8170 C.3   220  VAL220      0.1727
     77  C        -18.8310    9.3120  -28.9210 C.2   220  VAL220      0.2616
     78  O        -19.2310    8.3820  -29.6100 O.2   220  VAL220     -0.2715
     79  CB       -20.7270   10.8980  -28.3950 C.3   220  VAL220      0.0290
     80  CG1      -19.9770   12.0410  -29.0720 C.3   220  VAL220      0.0023
     81  CG2      -21.7200   10.2150  -29.3460 C.3   220  VAL220      0.0023
     82  N        -17.6380    9.8660  -29.0900 N.am  221  SER221     -0.1950
     83  CA       -16.7400    9.4080  -30.1510 C.3   221  SER221      0.1924
     84  C        -16.3100    7.9660  -29.9240 C.2   221  SER221      0.2314
     85  O        -15.8740    7.2900  -30.8710 O.2   221  SER221     -0.2863
     86  CB       -15.5120   10.3240  -30.3210 C.3   221  SER221      0.2116
     87  OG       -14.6600   10.4000  -29.1780 O.3   221  SER221     -0.2180
@<TRIPOS>BOND
     1    21    22    1
     2    29    30    1
     3    23    22    1
     4    23    24    2
     5    22    25    1
     6    31    32    2
     7    31    30    1
     8    30    33    1
     9    25    26    1
    10    85    84    2
    11    33    34    1
    12    33    35    1
    13    86    83    1
    14    86    87    1
    15    83    84    1
    16    83    82    1
    17    26    27    1
    18    26    28    1
    19    78    77    2
    20    81    79    1
    21    82    77   am
    22    80    79    1
    23    77    76    1
    24    79    76    1
    25    76    75    1
    26    57    56    1
    27    47    46    2
    28    49    50    1
    29    49    48    1
    30    75    69   am
    31    46    45    1
    32    50    44    1
    33    70    69    2
    34    48    45    1
    35    69    68    1
    36    56    58    1
    37    56    55    1
    38    18    16   ar
    39    18    20   ar
    40    44    45    1
    41    16    15   ar
    42    20    19   ar
    43    55    52    1
    44    15    14    1
    45    15    17   ar
    46    52    51    1
    47    52    53    1
    48    19    17   ar
    49    14    11    1
    50    68    71    1
    51    68    67    1
    52    71    72    1
    53    13    12    2
    54    53    54    2
    55    74    72   ar
    56    12    11    1
    57    11    10    1
    58    72    73   ar
    59    39    38    2
    60    38    37    1
    61     4     3    2
    62     9     8    1
    63    36    37    1
    64    59    60    1
    65    63    60    1
    66    63    64    1
    67     3     2    1
    68    37    40    1
    69    60    61    1
    70     7     8    1
    71     7     6    1
    72     6     5    1
    73    65    66    1
    74    65    64    1
    75     5     2    1
    76     2     1    1
    77    43    41    1
    78    40    41    1
    79    61    62    2
    80    41    42    1
