@<TRIPOS>MOLECULE
tmp/3q6jA02.pdb
 93 87 0 0 0
SMALL
GASTEIGER

@<TRIPOS>ATOM
      1  N        -26.4420    0.5570   15.9780 N.3    52  ALA52      -0.1245
      2  CA       -25.5860   -0.5750   16.2680 C.3    52  ALA52       0.1562
      3  C        -26.3880   -1.8750   16.3820 C.2    52  ALA52       0.2260
      4  O        -26.0420   -2.9130   15.7700 O.2    52  ALA52      -0.2867
      5  CB       -24.7630   -0.3190   17.5680 C.3    52  ALA52       0.0290
      6  N        -28.3560   -2.6380   12.8880 N.3    55  ARG55      -0.1231
      7  CA       -27.4320   -2.8890   11.8100 C.3    55  ARG55       0.1694
      8  C        -26.7130   -4.2120   11.9960 C.2    55  ARG55       0.2592
      9  O        -26.6780   -4.9970   11.0870 O.2    55  ARG55      -0.2718
     10  CB       -26.4330   -1.7390   11.6180 C.3    55  ARG55       0.0321
     11  CG       -25.7840   -1.7170   10.2200 C.3    55  ARG55       0.0489
     12  CD       -24.7050   -0.6270   10.1220 C.3    55  ARG55       0.2205
     13  NE       -23.4460   -1.0220   10.7460 N.pl3  55  ARG55      -0.0865
     14  CZ       -22.4680   -1.6740   10.1190 C.cat  55  ARG55       0.5346
     15  NH1      -22.5960   -2.0130    8.8430 N.pl3  55  ARG55       0.1354
     16  NH2      -21.3540   -1.9880   10.7710 N.pl3  55  ARG55       0.1354
     17  N        -26.1450   -4.4550   13.1680 N.am   56  PHE56      -0.1976
     18  CA       -25.5520   -5.7810   13.4450 C.3    56  PHE56       0.1639
     19  C        -26.5670   -6.9270   13.4290 C.2    56  PHE56       0.2290
     20  O        -26.3440   -7.9840   12.8170 O.2    56  PHE56      -0.2864
     21  CB       -24.7810   -5.7510   14.7530 C.3    56  PHE56       0.0560
     22  CG       -23.3460   -5.4350   14.5750 C.ar   56  PHE56      -0.0200
     23  CD1      -22.3840   -6.4230   14.7330 C.ar   56  PHE56      -0.0042
     24  CD2      -22.9510   -4.1630   14.2040 C.ar   56  PHE56      -0.0042
     25  CE1      -21.0350   -6.1390   14.5090 C.ar   56  PHE56      -0.0003
     26  CE2      -21.6010   -3.8720   13.9930 C.ar   56  PHE56      -0.0003
     27  CZ       -20.6540   -4.8570   14.1590 C.ar   56  PHE56      -0.0000
     28  N        -25.8560    3.0390   11.3780 N.3    78  GLY78      -0.1225
     29  CA       -24.9020    3.1180   12.4780 C.3    78  GLY78       0.1811
     30  C        -25.4120    3.8680   13.6930 C.2    78  GLY78       0.2280
     31  O        -24.8510    3.7380   14.7830 O.2    78  GLY78      -0.2866
     32  N        -23.9050    6.2960   17.2920 N.3    81  CYS81      -0.1221
     33  CA       -22.4750    6.0720   17.4540 C.3    81  CYS81       0.1794
     34  C        -21.6290    6.9490   16.5390 C.2    81  CYS81       0.2443
     35  O        -20.8210    7.7370   17.0530 O.2    81  CYS81      -0.2733
     36  CB       -22.1300    4.5880   17.2800 C.3    81  CYS81       0.0970
     37  SG       -20.3670    4.2690   17.4120 S.3    81  CYS81      -0.0800
     38  N        -21.8130    6.8520   15.2010 N.am   82  PRO82      -0.2729
     39  CA       -21.0200    7.7670   14.3580 C.3    82  PRO82       0.1401
     40  C        -21.4930    9.2060   14.4140 C.2    82  PRO82       0.2269
     41  O        -20.7070   10.1020   14.1710 O.2    82  PRO82      -0.2865
     42  CB       -21.2530    7.2350   12.9330 C.3    82  PRO82       0.0296
     43  CG       -22.6300    6.5370   13.0390 C.3    82  PRO82       0.0237
     44  CD       -22.5780    5.8870   14.3860 C.3    82  PRO82       0.0939
     45  N        -18.2000    8.0320   18.5590 N.3    87  VAL87      -0.1245
     46  CA       -17.1880    8.5660   17.6500 C.3    87  VAL87       0.1561
     47  C        -16.7350    9.9770   18.0330 C.2    87  VAL87       0.2260
     48  O        -15.5570   10.1760   18.2520 O.2    87  VAL87      -0.2867
     49  CB       -17.6120    8.4280   16.1520 C.3    87  VAL87       0.0252
     50  CG1      -16.5800    9.0690   15.2520 C.3    87  VAL87       0.0019
     51  CG2      -17.7830    6.9300   15.8220 C.3    87  VAL87       0.0019
     52  N        -17.3180    8.0790    8.3710 N.3   135  PRO135     -0.2116
     53  CA       -17.8930    6.8690    8.9580 C.3   135  PRO135      0.1372
     54  C        -19.3330    6.6040    8.4520 C.2   135  PRO135      0.2244
     55  O        -19.6810    5.4530    8.2290 O.2   135  PRO135     -0.2868
     56  CB       -17.8420    7.1510   10.4630 C.3   135  PRO135      0.0268
     57  CG       -16.6520    8.1140   10.6010 C.3   135  PRO135      0.0207
     58  CD       -16.8110    9.0090    9.3940 C.3   135  PRO135      0.0892
     59  N        -18.9640    4.8520    5.0440 N.3   138  ILE138     -0.1231
     60  CA       -18.5720    3.4320    5.1890 C.3   138  ILE138      0.1692
     61  C        -19.7560    2.5760    5.6480 C.2   138  ILE138      0.2591
     62  O        -19.9640    1.4740    5.1290 O.2   138  ILE138     -0.2718
     63  CB       -17.3620    3.1800    6.1400 C.3   138  ILE138      0.0266
     64  CG1      -16.1690    4.0450    5.7650 C.3   138  ILE138      0.0019
     65  CG2      -16.9860    1.6650    6.1070 C.3   138  ILE138      0.0020
     66  CD1      -14.9160    3.8200    6.6170 C.3   138  ILE138      0.0001
     67  N        -20.5510    3.0840    6.5950 N.am  139  MET139     -0.1979
     68  CA       -21.7100    2.3170    7.0750 C.3   139  MET139      0.1605
     69  C        -22.7010    1.9950    5.9400 C.2   139  MET139      0.2287
     70  O        -23.0860    0.8490    5.7560 O.2   139  MET139     -0.2864
     71  CB       -22.3970    3.0160    8.2470 C.3   139  MET139      0.0413
     72  CG       -21.5290    3.0930    9.5190 C.3   139  MET139      0.0598
     73  SD       -21.1140    1.4640   10.1920 S.3   139  MET139     -0.1393
     74  CE       -19.5680    1.0280    9.3760 C.3   139  MET139      0.0692
     75  N        -21.9670   -0.3750   23.2160 N.3   360  MET360     -0.1245
     76  CA       -21.9460   -0.9440   21.8650 C.3   360  MET360      0.1570
     77  C        -21.9560   -2.4800   21.8190 C.2   360  MET360      0.2261
     78  O        -22.6740   -3.0500   21.0160 O.2   360  MET360     -0.2867
     79  CB       -20.7740   -0.3710   21.0710 C.3   360  MET360      0.0387
     80  CG       -20.9160    1.1410   20.8330 C.3   360  MET360      0.0595
     81  SD       -22.2430    1.5440   19.6630 S.3   360  MET360     -0.1393
     82  CE       -21.5410    0.7420   18.2230 C.3   360  MET360      0.0692
     83  N        -24.9180   -4.4220   19.7870 N.3   364  ARG364     -0.1245
     84  CA       -24.6460   -5.2750   18.6470 C.3   364  ARG364      0.1563
     85  C        -24.9750   -6.7060   18.9920 C.2   364  ARG364      0.2260
     86  O        -25.5850   -7.4210   18.1800 O.2   364  ARG364     -0.2867
     87  CB       -23.1960   -5.1590   18.2120 C.3   364  ARG364      0.0307
     88  CG       -22.7970   -3.7330   17.7950 C.3   364  ARG364      0.0489
     89  CD       -21.2790   -3.6750   17.6400 C.3   364  ARG364      0.2205
     90  NE       -20.8380   -2.4880   16.9120 N.pl3 364  ARG364     -0.0865
     91  CZ       -19.5810   -2.0330   16.8930 C.cat 364  ARG364      0.5346
     92  NH1      -18.6090   -2.6500   17.5840 N.pl3 364  ARG364      0.1354
     93  NH2      -19.2850   -0.9400   16.1850 N.pl3 364  ARG364      0.1354
@<TRIPOS>BOND
     1    59    60    1
     2    62    61    2
     3    60    61    1
     4    60    63    1
     5    61    67   am
     6    70    69    2
     7    64    63    1
     8    64    66    1
     9    69    68    1
    10    65    63    1
    11    67    68    1
    12    68    71    1
    13    55    54    2
    14    71    72    1
    15    52    53    1
    16    52    58    1
    17    54    53    1
    18    15    14    1
    19    53    56    1
    20    74    73    1
    21    58    57    1
    22    72    73    1
    23    14    13    2
    24    14    16    1
    25    12    11    1
    26    12    13    1
    27    11    10    1
    28    56    57    1
    29     9     8    2
    30    28    29    1
    31    10     7    1
    32     7     8    1
    33     7     6    1
    34     8    17   am
    35    29    30    1
    36    20    19    2
    37    42    43    1
    38    42    39    1
    39    43    44    1
    40    17    18    1
    41    19    18    1
    42    18    21    1
    43    30    31    2
    44    26    27   ar
    45    26    24   ar
    46    27    25   ar
    47    41    40    2
    48    24    22   ar
    49    39    40    1
    50    39    38    1
    51    44    38    1
    52    25    23   ar
    53    22    23   ar
    54    22    21    1
    55    38    34   am
    56    50    49    1
    57     4     3    2
    58    51    49    1
    59     1     2    1
    60    49    46    1
    61    93    91    1
    62     2     3    1
    63     2     5    1
    64    34    35    2
    65    34    33    1
    66    91    90    2
    67    91    92    1
    68    90    89    1
    69    36    37    1
    70    36    33    1
    71    32    33    1
    72    89    88    1
    73    46    47    1
    74    46    45    1
    75    88    87    1
    76    47    48    2
    77    86    85    2
    78    87    84    1
    79    82    81    1
    80    84    85    1
    81    84    83    1
    82    81    80    1
    83    80    79    1
    84    78    77    2
    85    79    76    1
    86    77    76    1
    87    76    75    1
