@<TRIPOS>MOLECULE
tmp/3q6kB01.pdb
 150 144 0 0 0
SMALL
GASTEIGER

@<TRIPOS>ATOM
      1  N         42.5920  -26.4530  -15.4780 N.3    29  THR29      -0.1203
      2  CA        41.6440  -26.1580  -14.4110 C.3    29  THR29       0.1994
      3  C         41.0950  -27.4280  -13.7740 C.2    29  THR29       0.2617
      4  O         40.5390  -27.3760  -12.6720 O.2    29  THR29      -0.2717
      5  CB        40.4710  -25.3100  -14.9530 C.3    29  THR29       0.1784
      6  OG1       40.0610  -25.8370  -16.2160 O.3    29  THR29      -0.2211
      7  CG2       40.8880  -23.8840  -15.1890 C.3    29  THR29       0.0376
      8  N         41.2530  -28.5700  -14.4520 N.am   30  ALA30      -0.1979
      9  CA        40.5740  -29.8130  -14.0570 C.3    30  ALA30       0.1597
     10  C         41.1830  -31.0500  -14.7170 C.2    30  ALA30       0.2287
     11  O         41.9160  -30.9450  -15.7180 O.2    30  ALA30      -0.2864
     12  CB        39.1200  -29.7300  -14.3840 C.3    30  ALA30       0.0319
     13  N         41.4540  -19.7680  -22.6350 N.3    47  LYS47      -0.1245
     14  CA        41.2570  -18.5190  -21.9220 C.3    47  LYS47       0.1561
     15  C         42.2640  -17.4800  -22.4040 C.2    47  LYS47       0.2260
     16  O         41.9390  -16.3000  -22.5120 O.2    47  LYS47      -0.2867
     17  CB        41.3960  -18.7770  -20.4260 C.3    47  LYS47       0.0271
     18  CG        41.1600  -17.5590  -19.5530 C.3    47  LYS47       0.0035
     19  CD        41.2730  -17.9390  -18.0550 C.3    47  LYS47       0.0206
     20  CE        40.1010  -18.8270  -17.5810 C.3    47  LYS47       0.1093
     21  NZ        38.8560  -18.0250  -17.3010 N.3    47  LYS47      -0.1314
     22  N         36.5480  -26.6950  -19.3870 N.3    90  TYR90      -0.1227
     23  CA        37.0240  -26.3990  -18.0480 C.3    90  TYR90       0.1736
     24  C         37.1140  -27.6330  -17.1810 C.2    90  TYR90       0.2595
     25  O         37.8830  -27.6490  -16.2230 O.2    90  TYR90      -0.2718
     26  CB        36.0930  -25.3960  -17.3790 C.3    90  TYR90       0.0548
     27  CG        36.4280  -23.9530  -17.6760 C.ar   90  TYR90      -0.0200
     28  CD1       37.3310  -23.2580  -16.8830 C.ar   90  TYR90      -0.0009
     29  CD2       35.8370  -23.2800  -18.7480 C.ar   90  TYR90      -0.0009
     30  CE1       37.6400  -21.9290  -17.1490 C.ar   90  TYR90       0.0417
     31  CE2       36.1380  -21.9500  -19.0180 C.ar   90  TYR90       0.0417
     32  CZ        37.0430  -21.2870  -18.2220 C.ar   90  TYR90       0.1957
     33  OH        37.3510  -19.9620  -18.4720 O.3    90  TYR90      -0.2866
     34  N         36.3220  -28.6630  -17.5170 N.am   91  GLN91      -0.1979
     35  CA        36.1730  -29.8680  -16.6870 C.3    91  GLN91       0.1601
     36  C         35.8850  -31.1470  -17.4940 C.2    91  GLN91       0.2287
     37  O         34.9330  -31.1770  -18.2810 O.2    91  GLN91      -0.2864
     38  CB        35.0440  -29.6470  -15.6680 C.3    91  GLN91       0.0394
     39  CG        34.8280  -30.7800  -14.6980 C.3    91  GLN91       0.0908
     40  CD        35.9080  -30.8580  -13.6550 C.2    91  GLN91       0.2608
     41  OE1       36.2000  -29.8680  -12.9890 O.2    91  GLN91      -0.2717
     42  NE2       36.5350  -32.0160  -13.5230 N.am   91  GLN91      -0.0878
     43  N         30.9080  -19.0930  -19.1150 N.3   152  THR152     -0.1218
     44  CA        32.3190  -19.0220  -18.7800 C.3   152  THR152      0.1862
     45  C         32.5430  -19.3350  -17.2820 C.2   152  THR152      0.2287
     46  O         33.6680  -19.5390  -16.8220 O.2   152  THR152     -0.2866
     47  CB        32.8690  -17.6420  -19.2610 C.3   152  THR152      0.1770
     48  OG1       33.9150  -17.8490  -20.2160 O.3   152  THR152     -0.2211
     49  CG2       33.3400  -16.7700  -18.1440 C.3   152  THR152      0.0375
     50  N         30.9450  -22.0000  -15.5560 N.3   154  PHE154     -0.1227
     51  CA        30.5740  -23.3690  -15.1700 C.3   154  PHE154      0.1736
     52  C         31.6380  -24.0190  -14.2800 C.2   154  PHE154      0.2596
     53  O         32.8180  -24.0100  -14.6120 O.2   154  PHE154     -0.2718
     54  CB        30.2730  -24.2590  -16.3910 C.3   154  PHE154      0.0547
     55  CG        28.9950  -23.9060  -17.1050 C.ar  154  PHE154     -0.0202
     56  CD1       27.8240  -23.6450  -16.3960 C.ar  154  PHE154     -0.0042
     57  CD2       28.9470  -23.8780  -18.4930 C.ar  154  PHE154     -0.0042
     58  CE1       26.6350  -23.3400  -17.0640 C.ar  154  PHE154     -0.0003
     59  CE2       27.7620  -23.5730  -19.1660 C.ar  154  PHE154     -0.0003
     60  CZ        26.6110  -23.2950  -18.4410 C.ar  154  PHE154     -0.0000
     61  N         31.2160  -24.5860  -13.1540 N.am  155  GLY155     -0.1942
     62  CA        32.1440  -25.2500  -12.2400 C.3   155  GLY155      0.2014
     63  C         32.2430  -26.7270  -12.5790 C.2   155  GLY155      0.2639
     64  O         32.3240  -27.1000  -13.7580 O.2   155  GLY155     -0.2714
     65  N         32.2470  -27.5560  -11.5360 N.am  156  GLY156     -0.1954
     66  CA        32.1990  -28.9900  -11.6900 C.3   156  GLY156      0.1869
     67  C         30.8040  -29.4410  -12.0870 C.2   156  GLY156      0.2309
     68  O         29.8270  -28.6690  -12.0230 O.2   156  GLY156     -0.2863
     69  N         28.9910  -20.7190  -10.8980 N.3   178  PHE178     -0.1241
     70  CA        29.3880  -20.1760   -9.6190 C.3   178  PHE178      0.1605
     71  C         29.2340  -18.6790   -9.5160 C.2   178  PHE178      0.2264
     72  O         29.2280  -18.1300   -8.4170 O.2   178  PHE178     -0.2867
     73  CB        30.7890  -20.6570   -9.2180 C.3   178  PHE178      0.0534
     74  CG        31.9140  -20.1230  -10.0670 C.ar  178  PHE178     -0.0203
     75  CD1       32.5030  -18.8810   -9.7850 C.ar  178  PHE178     -0.0042
     76  CD2       32.4430  -20.8920  -11.0950 C.ar  178  PHE178     -0.0042
     77  CE1       33.5730  -18.3970  -10.5620 C.ar  178  PHE178     -0.0003
     78  CE2       33.4990  -20.4310  -11.8680 C.ar  178  PHE178     -0.0003
     79  CZ        34.0740  -19.1830  -11.6060 C.ar  178  PHE178     -0.0000
     80  N         29.8090  -24.5360   -6.8850 N.3   223  PHE223     -0.1241
     81  CA        31.0030  -24.8010   -7.6780 C.3   223  PHE223      0.1605
     82  C         31.1760  -26.2810   -7.9660 C.2   223  PHE223      0.2264
     83  O         31.7490  -26.6420   -8.9930 O.2   223  PHE223     -0.2867
     84  CB        32.2390  -24.2910   -6.9580 C.3   223  PHE223      0.0534
     85  CG        33.2210  -23.5480   -7.8520 C.ar  223  PHE223     -0.0203
     86  CD1       33.7470  -24.1410   -9.0000 C.ar  223  PHE223     -0.0042
     87  CD2       33.6590  -22.2720   -7.5040 C.ar  223  PHE223     -0.0042
     88  CE1       34.6450  -23.4590   -9.7970 C.ar  223  PHE223     -0.0003
     89  CE2       34.5750  -21.5900   -8.3000 C.ar  223  PHE223     -0.0003
     90  CZ        35.0690  -22.1840   -9.4480 C.ar  223  PHE223     -0.0000
     91  N         36.4330  -25.5310   -3.6000 N.3   278  ILE278     -0.1245
     92  CA        35.6500  -25.3990   -4.8250 C.3   278  ILE278      0.1561
     93  C         35.3250  -26.7460   -5.4160 C.2   278  ILE278      0.2260
     94  O         34.5670  -26.8330   -6.3770 O.2   278  ILE278     -0.2867
     95  CB        36.3010  -24.4510   -5.8950 C.3   278  ILE278      0.0252
     96  CG1       37.5610  -25.0600   -6.5000 C.3   278  ILE278      0.0019
     97  CG2       36.5620  -23.0390   -5.3130 C.3   278  ILE278      0.0019
     98  CD1       37.8760  -24.5180   -7.8520 C.3   278  ILE278      0.0001
     99  N         45.8620  -23.6500   -3.9180 N.3   325  PHE325     -0.1241
    100  CA        44.5300  -23.6100   -4.5130 C.3   325  PHE325      0.1605
    101  C         44.0620  -24.9400   -5.1340 C.2   325  PHE325      0.2264
    102  O         44.2120  -25.1810   -6.3370 O.2   325  PHE325     -0.2867
    103  CB        44.3000  -22.4140   -5.4480 C.3   325  PHE325      0.0534
    104  CG        42.8470  -22.2420   -5.8160 C.ar  325  PHE325     -0.0203
    105  CD1       41.9650  -21.6060   -4.9350 C.ar  325  PHE325     -0.0042
    106  CD2       42.3400  -22.7990   -6.9860 C.ar  325  PHE325     -0.0042
    107  CE1       40.6210  -21.4930   -5.2300 C.ar  325  PHE325     -0.0003
    108  CE2       40.9830  -22.6750   -7.2980 C.ar  325  PHE325     -0.0003
    109  CZ        40.1270  -22.0170   -6.4180 C.ar  325  PHE325     -0.0000
    110  N         41.8140  -27.2790   -6.8420 N.3   327  THR327     -0.1203
    111  CA        40.8850  -26.9210   -7.8810 C.3   327  THR327      0.1994
    112  C         40.0330  -28.0900   -8.4080 C.2   327  THR327      0.2617
    113  O         39.0290  -27.8560   -9.0800 O.2   327  THR327     -0.2717
    114  CB        41.6040  -26.2130   -9.0490 C.3   327  THR327      0.1784
    115  OG1       40.6220  -25.7830  -10.0010 O.3   327  THR327     -0.2211
    116  CG2       42.6260  -27.1570   -9.7470 C.3   327  THR327      0.0376
    117  N         40.4330  -29.3250   -8.1210 N.am  328  ASP328     -0.1973
    118  CA        39.6930  -30.5040   -8.5710 C.3   328  ASP328      0.1709
    119  C         40.0650  -31.6990   -7.6960 C.2   328  ASP328      0.2293
    120  O         41.1730  -31.7530   -7.1370 O.2   328  ASP328     -0.2864
    121  CB        40.0050  -30.8230  -10.0450 C.3   328  ASP328      0.1436
    122  CG        38.9760  -31.7480  -10.6970 C.2   328  ASP328      0.3671
    123  OD1       39.0020  -31.9070  -11.9360 O.co2 328  ASP328     -0.2456
    124  OD2       38.1400  -32.3500   -9.9910 O.co2 328  ASP328     -0.2456
    125  N         46.5440  -25.6830   -8.7770 N.3   342  ASN342     -0.1240
    126  CA        47.0720  -25.0090   -9.9490 C.3   342  ASN342      0.1653
    127  C         47.3160  -23.5340   -9.6890 C.2   342  ASN342      0.2266
    128  O         47.5840  -22.7790  -10.6200 O.2   342  ASN342     -0.2867
    129  CB        46.0970  -25.1700  -11.1100 C.3   342  ASN342      0.1155
    130  CG        44.7730  -24.5100  -10.8330 C.2   342  ASN342      0.2627
    131  OD1       44.5260  -24.0670   -9.7080 O.2   342  ASN342     -0.2716
    132  ND2       43.9120  -24.4230  -11.8520 N.am  342  ASN342     -0.0877
    133  N         45.3180  -21.1250   -9.2340 N.3   344  PHE344     -0.1241
    134  CA        44.5010  -20.3040  -10.1340 C.3   344  PHE344      0.1605
    135  C         43.0600  -20.0390   -9.6280 C.2   344  PHE344      0.2264
    136  O         42.0810  -20.4830  -10.2330 O.2   344  PHE344     -0.2867
    137  CB        44.5260  -20.9150  -11.5340 C.3   344  PHE344      0.0534
    138  CG        43.7690  -20.1220  -12.5870 C.ar  344  PHE344     -0.0203
    139  CD1       44.1280  -18.8000  -12.9070 C.ar  344  PHE344     -0.0042
    140  CD2       42.7190  -20.7280  -13.3090 C.ar  344  PHE344     -0.0042
    141  CE1       43.4170  -18.0820  -13.9100 C.ar  344  PHE344     -0.0003
    142  CE2       42.0050  -20.0310  -14.2910 C.ar  344  PHE344     -0.0003
    143  CZ        42.3550  -18.7010  -14.5970 C.ar  344  PHE344     -0.0000
    144  N         39.4850  -17.9610   -8.7720 N.3   346  PRO346     -0.2116
    145  CA        38.7360  -17.0980   -9.7070 C.3   346  PRO346      0.1372
    146  C         38.7990  -15.6550   -9.2700 C.2   346  PRO346      0.2244
    147  O         37.8150  -15.0780   -8.7990 O.2   346  PRO346     -0.2868
    148  CB        37.3010  -17.6430   -9.6380 C.3   346  PRO346      0.0268
    149  CG        37.2190  -18.3930   -8.3660 C.3   346  PRO346      0.0207
    150  CD        38.5980  -18.8730   -8.0170 C.3   346  PRO346      0.0892
@<TRIPOS>BOND
     1    13    14    1
     2    16    15    2
     3    15    14    1
     4    14    17    1
     5    17    18    1
     6    48    47    1
     7    18    19    1
     8    22    23    1
     9    47    44    1
    10    47    49    1
    11    59    57   ar
    12    59    60   ar
    13    43    44    1
    14    31    29   ar
    15    31    32   ar
    16    44    45    1
    17    29    27   ar
    18    57    55   ar
    19    33    32    1
    20    60    58   ar
    21    37    36    2
    22    32    30   ar
    23    19    20    1
    24    23    26    1
    25    23    24    1
    26    27    26    1
    27    27    28   ar
    28    20    21    1
    29    34    24   am
    30    34    35    1
    31    36    35    1
    32    45    46    2
    33    24    25    2
    34    30    28   ar
    35    55    56   ar
    36    55    54    1
    37    58    56   ar
    38    35    38    1
    39    54    51    1
    40     6     5    1
    41    11    10    2
    42    38    39    1
    43    50    51    1
    44     1     2    1
    45     7     5    1
    46    51    52    1
    47     5     2    1
    48    10     9    1
    49    39    40    1
    50    53    52    2
    51   143   142   ar
    52   143   141   ar
    53     8     9    1
    54     8     3   am
    55     2     3    1
    56    12     9    1
    57   142   140   ar
    58    52    61   am
    59   141   139   ar
    60     3     4    2
    61    64    63    2
    62    40    42   am
    63    40    41    2
    64   140   138   ar
    65    61    62    1
    66   139   138   ar
    67   138   137    1
    68    63    62    1
    69    63    65   am
    70    67    68    2
    71    67    66    1
    72   123   122   ar
    73    78    79   ar
    74    78    76   ar
    75   132   130   am
    76    66    65    1
    77    79    77   ar
    78   137   134    1
    79   129   130    1
    80   129   126    1
    81    76    74   ar
    82    69    70    1
    83   130   131    2
    84   122   121    1
    85   122   124   ar
    86   128   127    2
    87    77    75   ar
    88   136   135    2
    89   134   135    1
    90   134   133    1
    91    74    75   ar
    92    74    73    1
    93   121   118    1
    94   115   114    1
    95   126   127    1
    96   126   125    1
    97    88    90   ar
    98    88    86   ar
    99   116   114    1
   100   145   148    1
   101   145   146    1
   102   145   144    1
   103   148   149    1
   104    70    71    1
   105    70    73    1
   106    71    72    2
   107    90    89   ar
   108   146   147    2
   109   113   112    2
   110   114   111    1
   111    86    85   ar
   112    83    82    2
   113   144   150    1
   114   118   117    1
   115   118   119    1
   116   112   117   am
   117   112   111    1
   118   149   150    1
   119    89    87   ar
   120    82    81    1
   121   111   110    1
   122    85    87   ar
   123    85    84    1
   124    98    96    1
   125   119   120    2
   126    81    84    1
   127    81    80    1
   128   108   106   ar
   129   108   109   ar
   130   106   104   ar
   131    96    95    1
   132   109   107   ar
   133    94    93    2
   134   102   101    2
   135    95    97    1
   136    95    92    1
   137   104   103    1
   138   104   105   ar
   139   103   100    1
   140    93    92    1
   141   107   105   ar
   142   101   100    1
   143    92    91    1
   144   100    99    1
