@<TRIPOS>MOLECULE
tmp/3q6wA00.pdb
 201 194 0 0 0
SMALL
GASTEIGER

@<TRIPOS>ATOM
      1  N         -0.5950   -8.6970  -11.0970 N.3    35  ILE35      -0.1231
      2  CA        -0.8800   -8.2210  -12.4730 C.3    35  ILE35       0.1692
      3  C         -1.4420   -6.7990  -12.5670 C.2    35  ILE35       0.2593
      4  O         -1.5940   -6.2700  -13.6730 O.2    35  ILE35      -0.2718
      5  CB        -1.7150   -9.2230  -13.2900 C.3    35  ILE35       0.0266
      6  CG1       -3.1010   -9.4700  -12.6520 C.3    35  ILE35       0.0019
      7  CG2       -0.9150  -10.5280  -13.5300 C.3    35  ILE35       0.0020
      8  CD1       -4.0520  -10.2810  -13.5130 C.3    35  ILE35       0.0001
      9  N         -1.7530   -6.1840  -11.4390 N.am   36  GLY36      -0.1942
     10  CA        -2.2780   -4.8140  -11.4650 C.3    36  GLY36       0.2014
     11  C         -2.5340   -4.2680  -10.0820 C.2    36  GLY36       0.2639
     12  O         -2.2340   -4.9360   -9.0800 O.2    36  GLY36      -0.2714
     13  N         -3.0850   -3.0520  -10.0210 N.am   37  ARG37      -0.1963
     14  CA        -3.4590   -2.4080   -8.7530 C.3    37  ARG37       0.1729
     15  C         -4.7040   -1.5380   -8.8500 C.2    37  ARG37       0.2616
     16  O         -4.7630   -0.5910   -9.6410 O.2    37  ARG37      -0.2715
     17  CB        -2.2880   -1.7230   -7.9920 C.3    37  ARG37       0.0348
     18  CG        -1.7140   -0.4610   -8.5940 C.3    37  ARG37       0.0492
     19  CD        -0.9560    0.3190   -7.5320 C.3    37  ARG37       0.2205
     20  NE        -0.3920    1.5670   -8.0530 N.pl3  37  ARG37      -0.0865
     21  CZ        -0.9760    2.7580   -7.9540 C.cat  37  ARG37       0.5346
     22  NH1       -2.1520    2.8820   -7.3500 N.pl3  37  ARG37       0.1354
     23  NH2       -0.3870    3.8350   -8.4580 N.pl3  37  ARG37       0.1354
     24  N         -5.7070   -1.8820   -8.0460 N.am   38  GLY38      -0.1955
     25  CA        -6.9310   -1.1030   -7.9890 C.3    38  GLY38       0.1869
     26  C         -6.8330   -0.0820   -6.8610 C.2    38  GLY38       0.2309
     27  O         -5.7670    0.1060   -6.2670 O.2    38  GLY38      -0.2863
     28  N         -3.9300   -6.7810   -7.7220 N.3    43  VAL43      -0.1245
     29  CA        -4.7080   -7.6960   -8.5780 C.3    43  VAL43       0.1561
     30  C         -3.7420   -8.8130   -8.9280 C.2    43  VAL43       0.2260
     31  O         -2.5700   -8.5330   -9.1980 O.2    43  VAL43      -0.2867
     32  CB        -5.3160   -6.9980   -9.8380 C.3    43  VAL43       0.0252
     33  CG1       -6.2040   -7.9500  -10.6320 C.3    43  VAL43       0.0019
     34  CG2       -6.0930   -5.7190   -9.4640 C.3    43  VAL43       0.0019
     35  N         -3.1060  -12.9930  -10.8900 N.3    45  HIS45      -0.1241
     36  CA        -3.6080  -14.0020  -11.8380 C.3    45  HIS45       0.1621
     37  C         -4.4330  -14.9460  -10.9490 C.2    45  HIS45       0.2264
     38  O         -4.1320  -15.1020   -9.7540 O.2    45  HIS45      -0.2867
     39  CB        -2.4500  -14.8730  -12.4100 C.3    45  HIS45       0.0745
     40  CG        -1.6760  -14.2770  -13.5430 C.ar   45  HIS45       0.0817
     41  ND1       -2.1740  -14.2760  -14.8310 N.ar   45  HIS45      -0.2268
     42  CD2       -0.4300  -13.7520  -13.5580 C.ar   45  HIS45       0.1154
     43  CE1       -1.2310  -13.7250  -15.5850 C.ar   45  HIS45       0.1986
     44  NE2       -0.1690  -13.3770  -14.8600 N.ar   45  HIS45      -0.2212
     45  N         -8.5980  -12.5650  -13.3110 N.3    59  ALA59      -0.1245
     46  CA        -7.8530  -11.5280  -12.5950 C.3    59  ALA59       0.1562
     47  C         -8.5790  -11.4260  -11.2340 C.2    59  ALA59       0.2260
     48  O         -9.8030  -11.3460  -11.1890 O.2    59  ALA59      -0.2867
     49  CB        -7.9260  -10.2060  -13.3470 C.3    59  ALA59       0.0290
     50  N         -8.9690   -9.3840   -7.6040 N.3    61  LYS61      -0.1245
     51  CA        -8.7280   -8.2020   -6.7930 C.3    61  LYS61       0.1561
     52  C         -8.8640   -8.5820   -5.3150 C.2    61  LYS61       0.2260
     53  O         -9.8060   -9.2850   -4.9160 O.2    61  LYS61      -0.2867
     54  CB        -9.7570   -7.1000   -7.0910 C.3    61  LYS61       0.0271
     55  CG        -9.6110   -6.4940   -8.4750 C.3    61  LYS61       0.0035
     56  CD       -10.5460   -5.3100   -8.6420 C.3    61  LYS61       0.0206
     57  CE        -9.8540   -4.1770   -9.3670 C.3    61  LYS61       0.1093
     58  NZ       -10.7720   -3.0350   -9.6090 N.3    61  LYS61      -0.1314
     59  N        -16.0050   -4.1820  -18.6830 N.3    91  LEU91      -0.1245
     60  CA       -15.5920   -5.4580  -18.0920 C.3    91  LEU91       0.1561
     61  C        -16.7130   -6.0260  -17.2100 C.2    91  LEU91       0.2260
     62  O        -17.3210   -5.2810  -16.4580 O.2    91  LEU91      -0.2867
     63  CB       -14.3240   -5.2830  -17.2620 C.3    91  LEU91       0.0270
     64  CG       -13.6150   -6.6100  -16.8360 C.3    91  LEU91       0.0019
     65  CD1      -13.1690   -7.4330  -18.0510 C.3    91  LEU91       0.0001
     66  CD2      -12.4150   -6.3040  -15.9740 C.3    91  LEU91       0.0001
     67  N        -12.5780  -11.2320  -11.8570 N.3   108  LEU108     -0.1231
     68  CA       -12.8740  -10.6290  -13.1440 C.3   108  LEU108      0.1678
     69  C        -12.2530  -11.4400  -14.2840 C.2   108  LEU108      0.2434
     70  O        -11.2640  -12.1250  -14.0880 O.2   108  LEU108     -0.2733
     71  CB       -12.2370   -9.2180  -13.1910 C.3   108  LEU108      0.0284
     72  CG       -12.6050   -8.2490  -12.0620 C.3   108  LEU108      0.0019
     73  CD1      -11.8090   -6.9410  -12.1880 C.3   108  LEU108      0.0001
     74  CD2      -14.0980   -7.9530  -12.0510 C.3   108  LEU108      0.0001
     75  N        -12.7410  -11.2860  -15.5120 N.am  109  PRO109     -0.2718
     76  CA       -12.0820  -11.9700  -16.6360 C.3   109  PRO109      0.1535
     77  C        -10.6720  -11.4120  -16.8720 C.2   109  PRO109      0.2599
     78  O        -10.4110  -10.1990  -16.7090 O.2   109  PRO109     -0.2715
     79  CB       -12.9870  -11.6450  -17.8250 C.3   109  PRO109      0.0310
     80  CG       -14.2940  -11.1790  -17.2230 C.3   109  PRO109      0.0237
     81  CD       -13.8960  -10.4890  -15.9600 C.3   109  PRO109      0.0939
     82  N         -9.7480  -12.3030  -17.2550 N.am  110  TYR110     -0.1960
     83  CA        -8.3920  -11.9270  -17.5610 C.3   110  TYR110      0.1771
     84  C         -8.3750  -11.2350  -18.9250 C.2   110  TYR110      0.2619
     85  O         -8.9270  -11.7590  -19.8950 O.2   110  TYR110     -0.2715
     86  CB        -7.4890  -13.1640  -17.6150 C.3   110  TYR110      0.0574
     87  CG        -6.0340  -12.8410  -17.8690 C.ar  110  TYR110     -0.0198
     88  CD1       -5.4430  -13.1190  -19.1010 C.ar  110  TYR110     -0.0009
     89  CD2       -5.2380  -12.2790  -16.8740 C.ar  110  TYR110     -0.0009
     90  CE1       -4.0950  -12.8560  -19.3330 C.ar  110  TYR110      0.0417
     91  CE2       -3.8810  -12.0260  -17.0910 C.ar  110  TYR110      0.0417
     92  CZ        -3.3200  -12.3010  -18.3320 C.ar  110  TYR110      0.1957
     93  OH        -1.9820  -12.0680  -18.5620 O.3   110  TYR110     -0.2866
     94  N         -7.7200  -10.0820  -18.9950 N.am  111  MET111     -0.1963
     95  CA        -7.6280   -9.3150  -20.2430 C.3   111  MET111      0.1736
     96  C         -6.2210   -9.4590  -20.7640 C.2   111  MET111      0.2616
     97  O         -5.2960   -8.8400  -20.2350 O.2   111  MET111     -0.2715
     98  CB        -8.0060   -7.8500  -19.9590 C.3   111  MET111      0.0427
     99  CG        -9.4310   -7.7130  -19.4580 C.3   111  MET111      0.0599
    100  SD       -10.5910   -7.7840  -20.8280 S.3   111  MET111     -0.1393
    101  CE       -11.2120   -9.4250  -20.7100 C.3   111  MET111      0.0692
    102  N         -6.0610  -10.3100  -21.8020 N.am  112  LYS112     -0.1963
    103  CA        -4.7780  -10.7060  -22.3710 C.3   112  LYS112      0.1728
    104  C         -3.7200   -9.6380  -22.4520 C.2   112  LYS112      0.2616
    105  O         -2.6190   -9.8200  -21.9340 O.2   112  LYS112     -0.2715
    106  CB        -4.9360  -11.4510  -23.7160 C.3   112  LYS112      0.0311
    107  CG        -3.5740  -11.9000  -24.2690 C.3   112  LYS112      0.0038
    108  CD        -3.6740  -12.7230  -25.5280 C.3   112  LYS112      0.0206
    109  CE        -2.2830  -12.8970  -26.1170 C.3   112  LYS112      0.1093
    110  NZ        -2.3330  -13.6680  -27.3940 N.3   112  LYS112     -0.1314
    111  N         -4.0560   -8.5120  -23.1070 N.am  113  HIS113     -0.1959
    112  CA        -3.0820   -7.4400  -23.3230 C.3   113  HIS113      0.1787
    113  C         -2.8550   -6.4250  -22.2250 C.2   113  HIS113      0.2621
    114  O         -2.0110   -5.5360  -22.3700 O.2   113  HIS113     -0.2715
    115  CB        -3.2530   -6.8090  -24.7100 C.3   113  HIS113      0.0785
    116  CG        -3.1800   -7.8480  -25.8000 C.ar  113  HIS113      0.0821
    117  ND1       -1.9950   -8.5080  -26.0890 N.ar  113  HIS113     -0.2267
    118  CD2       -4.1550   -8.3260  -26.6020 C.ar  113  HIS113      0.1154
    119  CE1       -2.2910   -9.3680  -27.0510 C.ar  113  HIS113      0.1986
    120  NE2       -3.5790   -9.3000  -27.3910 N.ar  113  HIS113     -0.2212
    121  N         -3.5810   -6.5500  -21.1260 N.am  114  GLY114     -0.1940
    122  CA        -3.3840   -5.6260  -20.0290 C.3   114  GLY114      0.2014
    123  C         -3.9870   -4.2550  -20.2440 C.2   114  GLY114      0.2638
    124  O         -4.8840   -4.0770  -21.0880 O.2   114  GLY114     -0.2714
    125  N         -3.4980   -3.2780  -19.4590 N.am  115  ASP115     -0.1971
    126  CA        -4.0690   -1.9500  -19.4940 C.3   115  ASP115      0.1709
    127  C         -3.7930   -1.1620  -20.7460 C.2   115  ASP115      0.2293
    128  O         -2.7240   -1.3160  -21.3510 O.2   115  ASP115     -0.2864
    129  CB        -3.8080   -1.1370  -18.2300 C.3   115  ASP115      0.1436
    130  CG        -2.4360   -0.5290  -18.1920 C.2   115  ASP115      0.3671
    131  OD1       -1.5030   -1.2120  -17.7370 O.co2 115  ASP115     -0.2456
    132  OD2       -2.2960    0.6340  -18.6180 O.co2 115  ASP115     -0.2456
    133  N         -3.1890    2.1240  -21.1650 N.3   117  ARG117     -0.1231
    134  CA        -2.0590    3.0570  -21.1240 C.3   117  ARG117      0.1694
    135  C         -0.7470    2.3310  -21.4660 C.2   117  ARG117      0.2592
    136  O         -0.0100    2.7660  -22.3640 O.2   117  ARG117     -0.2718
    137  CB        -1.9400    3.7410  -19.7700 C.3   117  ARG117      0.0321
    138  CG        -1.0010    4.9290  -19.8790 C.3   117  ARG117      0.0489
    139  CD        -0.6990    5.6070  -18.5620 C.3   117  ARG117      0.2205
    140  NE         0.1520    6.7710  -18.8150 N.pl3 117  ARG117     -0.0865
    141  CZ         1.3550    6.9670  -18.2880 C.cat 117  ARG117      0.5346
    142  NH1        1.8760    6.0750  -17.4530 N.pl3 117  ARG117      0.1354
    143  NH2        2.0490    8.0570  -18.5960 N.pl3 117  ARG117      0.1354
    144  N         -0.4430    1.2340  -20.7420 N.am  118  ASN118     -0.1974
    145  CA         0.8070    0.5220  -21.0200 C.3   118  ASN118      0.1688
    146  C          0.8890   -0.0010  -22.4430 C.2   118  ASN118      0.2292
    147  O          1.9490    0.1000  -23.0600 O.2   118  ASN118     -0.2864
    148  CB         1.0920   -0.5490  -19.9590 C.3   118  ASN118      0.1181
    149  CG         1.6880    0.0370  -18.6990 C.2   118  ASN118      0.2629
    150  OD1        2.6300    0.8390  -18.7380 O.2   118  ASN118     -0.2716
    151  ND2        1.1580   -0.3470  -17.5470 N.am  118  ASN118     -0.0877
    152  N          4.4400   -2.2150  -29.9720 N.3   125  HIS125     -0.1241
    153  CA         2.9960   -2.3510  -30.2830 C.3   125  HIS125      0.1621
    154  C          2.5890   -1.3240  -31.3080 C.2   125  HIS125      0.2264
    155  O          1.7620   -1.6110  -32.1700 O.2   125  HIS125     -0.2867
    156  CB         2.1120   -2.1940  -29.0370 C.3   125  HIS125      0.0745
    157  CG         2.2400   -3.3120  -28.0530 C.ar  125  HIS125      0.0817
    158  ND1        1.6720   -3.2260  -26.7970 N.ar  125  HIS125     -0.2268
    159  CD2        2.8690   -4.5090  -28.1700 C.ar  125  HIS125      0.1154
    160  CE1        1.9720   -4.3630  -26.1890 C.ar  125  HIS125      0.1986
    161  NE2        2.6920   -5.1650  -26.9770 N.ar  125  HIS125     -0.2212
    162  N         -5.4120    4.0510  -18.0040 N.3   159  ARG159     -0.1231
    163  CA        -4.9070    3.0070  -17.0970 C.3   159  ARG159      0.1694
    164  C         -6.0600    2.1480  -16.5430 C.2   159  ARG159      0.2592
    165  O         -5.8120    1.0390  -16.0550 O.2   159  ARG159     -0.2718
    166  CB        -4.1460    3.6390  -15.9090 C.3   159  ARG159      0.0321
    167  CG        -5.0680    4.4990  -15.0070 C.3   159  ARG159      0.0489
    168  CD        -4.3720    5.1600  -13.8150 C.3   159  ARG159      0.2205
    169  NE        -5.2860    6.0960  -13.1470 N.pl3 159  ARG159     -0.0865
    170  CZ        -5.4220    7.3890  -13.4570 C.cat 159  ARG159      0.5346
    171  NH1       -4.6930    7.9300  -14.4260 N.pl3 159  ARG159      0.1354
    172  NH2       -6.2840    8.1480  -12.7970 N.pl3 159  ARG159      0.1354
    173  N         -7.3050    2.6810  -16.5820 N.am  160  ASN160     -0.1974
    174  CA        -8.4840    1.9390  -16.0740 C.3   160  ASN160      0.1688
    175  C         -9.2630    1.1460  -17.1290 C.2   160  ASN160      0.2292
    176  O        -10.3830    0.6670  -16.8600 O.2   160  ASN160     -0.2864
    177  CB        -9.3780    2.8720  -15.2640 C.3   160  ASN160      0.1181
    178  CG        -8.7230    3.2100  -13.9510 C.2   160  ASN160      0.2629
    179  OD1       -7.9640    2.3960  -13.3770 O.2   160  ASN160     -0.2716
    180  ND2       -8.9580    4.4230  -13.4520 N.am  160  ASN160     -0.0877
    181  N         -8.8340   -1.9500  -20.2170 N.3   162  MET162     -0.1245
    182  CA        -8.0070   -3.1140  -20.5680 C.3   162  MET162      0.1570
    183  C         -8.3060   -3.5680  -21.9860 C.2   162  MET162      0.2261
    184  O         -9.3560   -3.2190  -22.5310 O.2   162  MET162     -0.2867
    185  CB        -8.3110   -4.2760  -19.6070 C.3   162  MET162      0.0387
    186  CG        -8.0930   -3.9400  -18.1520 C.3   162  MET162      0.0595
    187  SD        -6.3770   -4.1780  -17.7030 S.3   162  MET162     -0.1393
    188  CE        -6.2490   -3.0350  -16.2570 C.3   162  MET162      0.0692
    189  N        -12.5610   -1.0340  -17.3040 N.3   172  ALA172     -0.1231
    190  CA       -12.3120   -2.1410  -16.3830 C.3   172  ALA172      0.1694
    191  C        -12.3280   -1.9670  -14.9040 C.2   172  ALA172      0.2592
    192  O        -12.6340   -2.9310  -14.1760 O.2   172  ALA172     -0.2718
    193  CB       -11.0280   -2.8480  -16.7980 C.3   172  ALA172      0.0304
    194  N        -11.9420   -0.7860  -14.4370 N.am  173  ASP173     -0.1974
    195  CA       -11.8850   -0.5030  -13.0070 C.3   173  ASP173      0.1709
    196  C        -13.0770    0.3430  -12.6230 C.2   173  ASP173      0.2293
    197  O        -13.3840    1.3220  -13.3130 O.2   173  ASP173     -0.2864
    198  CB       -10.5890    0.2140  -12.6250 C.3   173  ASP173      0.1436
    199  CG       -10.4510    0.2300  -11.1220 C.2   173  ASP173      0.3671
    200  OD1       -9.8740   -0.7290  -10.5730 O.co2 173  ASP173     -0.2456
    201  OD2      -10.9620    1.1750  -10.4950 O.co2 173  ASP173     -0.2456
@<TRIPOS>BOND
     1   155   154    2
     2   154   153    1
     3   153   152    1
     4   153   156    1
     5   156   157    1
     6   159   157   ar
     7   159   161   ar
     8   157   158   ar
     9   110   109    1
    10   120   119   ar
    11   120   118   ar
    12   119   117   ar
    13   161   160   ar
    14   158   160   ar
    15   118   116   ar
    16   109   108    1
    17   117   116   ar
    18   116   115    1
    19   108   107    1
    20   115   112    1
    21   107   106    1
    22   106   103    1
    23   112   111    1
    24   112   113    1
    25   111   104   am
    26   147   146    2
    27   184   183    2
    28   104   103    1
    29   104   105    2
    30   146   145    1
    31   103   102    1
    32   114   113    2
    33   136   135    2
    34   113   121   am
    35   183   182    1
    36   102    96   am
    37   135   134    1
    38   135   144   am
    39   128   127    2
    40   133   134    1
    41   121   122    1
    42   134   137    1
    43   124   123    2
    44   145   144    1
    45   145   148    1
    46   100   101    1
    47   100    99    1
    48    96    95    1
    49    96    97    2
    50   127   126    1
    51   182   181    1
    52   182   185    1
    53   123   122    1
    54   123   125   am
    55    95    98    1
    56    95    94    1
    57    98    99    1
    58   148   149    1
    59    85    84    2
    60   138   137    1
    61   138   139    1
    62   185   186    1
    63   126   125    1
    64   126   129    1
    65    90    88   ar
    66    90    92   ar
    67    88    87   ar
    68    94    84   am
    69    84    83    1
    70   140   139    1
    71   140   141    2
    72   150   149    2
    73   149   151   am
    74    59    60    1
    75   132   130   ar
    76   143   141    1
    77    93    92    1
    78    92    91   ar
    79   141   142    1
    80   129   130    1
    81   130   131   ar
    82   186   187    1
    83    60    63    1
    84    60    61    1
    85    65    64    1
    86   162   163    1
    87    87    86    1
    88    87    89   ar
    89    79    80    1
    90    79    76    1
    91   187   188    1
    92    86    83    1
    93    83    82    1
    94   189   190    1
    95    63    64    1
    96    82    77   am
    97    80    81    1
    98    61    62    2
    99   175   176    2
   100   175   174    1
   101   163   164    1
   102   163   166    1
   103    91    89   ar
   104    77    78    2
   105    77    76    1
   106    64    66    1
   107   193   190    1
   108    76    75    1
   109   173   164   am
   110   173   174    1
   111   164   165    2
   112   190   191    1
   113   174   177    1
   114    81    75    1
   115   166   167    1
   116    43    44   ar
   117    43    41   ar
   118    75    69   am
   119   177   178    1
   120   167   168    1
   121   191   194   am
   122   191   192    2
   123    44    42   ar
   124    41    40   ar
   125   194   195    1
   126   171   170    1
   127    69    70    2
   128    69    68    1
   129   178   180   am
   130   178   179    2
   131   168   169    1
   132     4     3    2
   133    42    40   ar
   134    40    39    1
   135     7     5    1
   136     8     6    1
   137   170   169    2
   138   170   172    1
   139    49    46    1
   140   197   196    2
   141    45    46    1
   142     5     6    1
   143     5     2    1
   144    71    68    1
   145    71    72    1
   146    68    67    1
   147   195   198    1
   148   195   196    1
   149   198   199    1
   150    46    47    1
   151     3     2    1
   152     3     9   am
   153     2     1    1
   154    39    36    1
   155    73    72    1
   156    72    74    1
   157    36    37    1
   158    36    35    1
   159    10     9    1
   160    10    11    1
   161    47    48    2
   162   199   200   ar
   163   199   201   ar
   164    37    38    2
   165    33    32    1
   166    11    13   am
   167    11    12    2
   168    13    14    1
   169    32    34    1
   170    32    29    1
   171    16    15    2
   172    58    57    1
   173    57    56    1
   174    31    30    2
   175    30    29    1
   176    15    14    1
   177    15    24   am
   178    14    17    1
   179    56    55    1
   180    18    17    1
   181    18    19    1
   182    29    28    1
   183    55    54    1
   184    23    21    1
   185    20    21    2
   186    20    19    1
   187    24    25    1
   188    25    26    1
   189    21    22    1
   190    50    51    1
   191    54    51    1
   192    26    27    2
   193    51    52    1
   194    52    53    2
