@<TRIPOS>MOLECULE
tmp/3q6yA00.pdb
 94 87 0 0 0
SMALL
GASTEIGER

@<TRIPOS>ATOM
      1  N          1.6740   -6.4080   11.2510 N.3    33  ASP33      -0.1239
      2  CA         1.7510   -5.4830   10.1300 C.3    33  ASP33       0.1674
      3  C          3.0800   -4.7340   10.2460 C.2    33  ASP33       0.2266
      4  O          3.2410   -3.8970   11.1350 O.2    33  ASP33      -0.2867
      5  CB         0.5620   -4.5180   10.2390 C.3    33  ASP33       0.1410
      6  CG         0.4100   -3.5970    9.0480 C.2    33  ASP33       0.3668
      7  OD1        1.3470   -3.4410    8.2400 O.co2  33  ASP33      -0.2456
      8  OD2       -0.6870   -2.9970    8.9480 O.co2  33  ASP33      -0.2456
      9  N          5.5450   -1.9810    9.6450 N.3    35  ASP35      -0.1239
     10  CA         5.1940   -0.5890    9.3870 C.3    35  ASP35       0.1674
     11  C          6.4390    0.2900    9.4050 C.2    35  ASP35       0.2266
     12  O          6.9240    0.6590   10.4790 O.2    35  ASP35      -0.2867
     13  CB         4.2130   -0.1290   10.4700 C.3    35  ASP35       0.1410
     14  CG         3.7470    1.2940   10.2720 C.2    35  ASP35       0.3668
     15  OD1        4.0340    1.8850    9.2090 O.co2  35  ASP35      -0.2456
     16  OD2        3.0630    1.8120   11.1850 O.co2  35  ASP35      -0.2456
     17  N          6.5900    3.2640    8.8260 N.3    37  GLY37      -0.1210
     18  CA         6.2020    4.6020    9.2550 C.3    37  GLY37       0.1956
     19  C          5.9710    4.7700   10.7530 C.2    37  GLY37       0.2612
     20  O          5.5540    5.8420   11.1990 O.2    37  GLY37      -0.2717
     21  N          6.2370    3.7340   11.5410 N.am   38  SER38      -0.1952
     22  CA         6.1770    3.8730   12.9980 C.3    38  SER38       0.1924
     23  C          7.2360    2.9950   13.6480 C.2    38  SER38       0.2314
     24  O          7.9380    2.2590   12.9670 O.2    38  SER38      -0.2863
     25  CB         4.7790    3.5970   13.5520 C.3    38  SER38       0.2116
     26  OG         4.4220    2.2390   13.3920 O.3    38  SER38      -0.2180
     27  N          3.8020   -3.4090   18.8590 N.3    42  TRP42      -0.1241
     28  CA         2.7110   -3.6010   19.7980 C.3    42  TRP42       0.1605
     29  C          1.7770   -4.6980   19.3420 C.2    42  TRP42       0.2264
     30  O          1.5550   -4.9120   18.1440 O.2    42  TRP42      -0.2867
     31  CB         1.9560   -2.3050   20.1000 C.3    42  TRP42       0.0550
     32  CG         1.1000   -1.7920   18.9890 C.ar   42  TRP42       0.0003
     33  CD1        1.3840   -0.7580   18.1510 C.ar   42  TRP42       0.0946
     34  CD2       -0.1990   -2.2720   18.6120 C.ar   42  TRP42       0.0152
     35  NE1        0.3470   -0.5640   17.2710 N.ar   42  TRP42      -0.2442
     36  CE2       -0.6350   -1.4830   17.5290 C.ar   42  TRP42       0.0810
     37  CE3       -1.0290   -3.2930   19.0810 C.ar   42  TRP42       0.0012
     38  CZ2       -1.8670   -1.6860   16.9040 C.ar   42  TRP42       0.0191
     39  CZ3       -2.2520   -3.4940   18.4600 C.ar   42  TRP42       0.0001
     40  CH2       -2.6580   -2.6940   17.3840 C.ar   42  TRP42       0.0015
     41  N         -5.0560   -8.7390   11.6740 N.3    97  ILE97      -0.1245
     42  CA        -3.8330   -8.0970   12.1440 C.3    97  ILE97       0.1561
     43  C         -3.7120   -8.2100   13.6650 C.2    97  ILE97       0.2260
     44  O         -4.5430   -7.6740   14.4070 O.2    97  ILE97      -0.2867
     45  CB        -3.7730   -6.6180   11.7050 C.3    97  ILE97       0.0252
     46  CG1       -3.7970   -6.5200   10.1740 C.3    97  ILE97       0.0019
     47  CG2       -2.5390   -5.9370   12.2820 C.3    97  ILE97       0.0019
     48  CD1       -4.0590   -5.1230    9.6510 C.3    97  ILE97       0.0001
     49  N          1.4630   -4.6100   15.3350 N.3   100  LEU100     -0.1245
     50  CA         2.3220   -3.8540   14.4370 C.3   100  LEU100      0.1561
     51  C          3.7650   -4.1000   14.8040 C.2   100  LEU100      0.2260
     52  O          4.0880   -4.2550   15.9830 O.2   100  LEU100     -0.2867
     53  CB         2.0590   -2.3500   14.5980 C.3   100  LEU100      0.0270
     54  CG         0.6840   -1.7980   14.2300 C.3   100  LEU100      0.0019
     55  CD1        0.6940   -0.2850   14.3580 C.3   100  LEU100      0.0001
     56  CD2        0.2930   -2.2000   12.8290 C.3   100  LEU100      0.0001
     57  N         11.3310    9.3750   10.0850 N.3   169  PHE169     -0.1241
     58  CA        10.8400    8.5350    8.9960 C.3   169  PHE169      0.1605
     59  C         11.9250    8.2290    7.9750 C.2   169  PHE169      0.2264
     60  O         12.9760    8.8750    7.9380 O.2   169  PHE169     -0.2867
     61  CB         9.6950    9.2300    8.2370 C.3   169  PHE169      0.0534
     62  CG         8.5010    9.5740    9.0810 C.ar  169  PHE169     -0.0203
     63  CD1        8.1230   10.8970    9.2600 C.ar  169  PHE169     -0.0042
     64  CD2        7.7380    8.5790    9.6780 C.ar  169  PHE169     -0.0042
     65  CE1        7.0140   11.2200   10.0340 C.ar  169  PHE169     -0.0003
     66  CE2        6.6320    8.8940   10.4430 C.ar  169  PHE169     -0.0003
     67  CZ         6.2710   10.2180   10.6260 C.ar  169  PHE169     -0.0000
     68  N          7.6650   10.0480    2.4580 N.3   192  ILE192     -0.1245
     69  CA         8.1850    8.9400    3.2430 C.3   192  ILE192      0.1561
     70  C          7.8640    7.5870    2.6300 C.2   192  ILE192      0.2260
     71  O          6.8250    7.4110    1.9900 O.2   192  ILE192     -0.2867
     72  CB         7.6890    8.9950    4.7000 C.3   192  ILE192      0.0252
     73  CG1        6.1760    8.7800    4.7930 C.3   192  ILE192      0.0019
     74  CG2        8.0850   10.3280    5.3390 C.3   192  ILE192      0.0019
     75  CD1        5.6780    8.5680    6.2140 C.3   192  ILE192      0.0001
     76  N          6.5310    4.2390    3.4130 N.3   194  ASP194     -0.1239
     77  CA         5.7120    3.7690    4.5320 C.3   194  ASP194      0.1674
     78  C          4.9410    2.4960    4.1920 C.2   194  ASP194      0.2266
     79  O          3.8680    2.5370    3.5890 O.2   194  ASP194     -0.2867
     80  CB         4.7220    4.8580    4.9640 C.3   194  ASP194      0.1410
     81  CG         3.9400    4.4680    6.2100 C.2   194  ASP194      0.3668
     82  OD1        3.1220    5.2870    6.6840 O.co2 194  ASP194     -0.2456
     83  OD2        4.1360    3.3420    6.7160 O.co2 194  ASP194     -0.2456
     84  N          3.3000    0.6840    6.0830 N.3   196  GLY196     -0.1210
     85  CA         2.0780    0.5800    6.8620 C.3   196  GLY196      0.1956
     86  C          0.9150    1.4080    6.3390 C.2   196  GLY196      0.2612
     87  O         -0.1700    1.3740    6.9090 O.2   196  GLY196     -0.2717
     88  N          1.1470    2.1730    5.2780 N.am  197  THR197     -0.1952
     89  CA         0.0780    2.9380    4.6390 C.3   197  THR197      0.1897
     90  C         -0.2910    2.2450    3.3340 C.2   197  THR197      0.2313
     91  O          0.5920    1.8510    2.5700 O.2   197  THR197     -0.2863
     92  CB         0.5180    4.3890    4.3840 C.3   197  THR197      0.1794
     93  OG1        0.6080    5.0600    5.6430 O.3   197  THR197     -0.2208
     94  CG2       -0.4890    5.1260    3.5110 C.3   197  THR197      0.0378
@<TRIPOS>BOND
     1    71    70    2
     2    68    69    1
     3    91    90    2
     4    70    69    1
     5    69    72    1
     6    90    89    1
     7    76    77    1
     8    94    92    1
     9    79    78    2
    10    78    77    1
    11    92    89    1
    12    92    93    1
    13    77    80    1
    14    89    88    1
    15    72    73    1
    16    72    74    1
    17    73    75    1
    18    80    81    1
    19    88    86   am
    20    84    85    1
    21    81    82   ar
    22    81    83   ar
    23    86    85    1
    24    86    87    2
    25    60    59    2
    26    59    58    1
    27    61    58    1
    28    61    62    1
    29     7     6   ar
    30    17    18    1
    31     8     6   ar
    32    58    57    1
    33     6     5    1
    34    62    63   ar
    35    62    64   ar
    36    15    14   ar
    37    18    19    1
    38    63    65   ar
    39    10    11    1
    40    10     9    1
    41    10    13    1
    42    11    12    2
    43    48    46    1
    44    64    66   ar
    45    65    67   ar
    46     2     5    1
    47     2     3    1
    48     2     1    1
    49    46    45    1
    50     3     4    2
    51    14    13    1
    52    14    16   ar
    53    66    67   ar
    54    19    20    2
    55    19    21   am
    56    21    22    1
    57    41    42    1
    58    45    42    1
    59    45    47    1
    60    42    43    1
    61    56    54    1
    62    24    23    2
    63    22    25    1
    64    22    23    1
    65    26    25    1
    66    43    44    2
    67    54    55    1
    68    54    53    1
    69    50    53    1
    70    50    51    1
    71    50    49    1
    72    51    52    2
    73    38    40   ar
    74    38    36   ar
    75    35    36   ar
    76    35    33   ar
    77    40    39   ar
    78    36    34   ar
    79    30    29    2
    80    33    32   ar
    81    39    37   ar
    82    34    32   ar
    83    34    37   ar
    84    27    28    1
    85    32    31    1
    86    29    28    1
    87    28    31    1
