@<TRIPOS>MOLECULE
tmp/3q6zA00.pdb
 181 176 0 0 0
SMALL
GASTEIGER

@<TRIPOS>ATOM
      1  N         20.8860   24.1460   23.2800 N.3    19  ASP19      -0.1239
      2  CA        21.3360   24.4420   21.9360 C.3    19  ASP19       0.1674
      3  C         22.5370   23.5770   21.5770 C.2    19  ASP19       0.2266
      4  O         23.6460   23.8380   22.0240 O.2    19  ASP19      -0.2867
      5  CB        21.6970   25.9240   21.8430 C.3    19  ASP19       0.1410
      6  CG        22.1660   26.3380   20.4630 C.2    19  ASP19       0.3668
      7  OD1       22.5030   25.4760   19.5840 O.co2  19  ASP19      -0.2456
      8  OD2       22.2250   27.5810   20.2680 O.co2  19  ASP19      -0.2456
      9  N         21.1870   16.3330   12.5010 N.3    31  ALA31      -0.1231
     10  CA        20.1120   15.7270   11.7090 C.3    31  ALA31       0.1694
     11  C         20.3440   16.1580   10.2350 C.2    31  ALA31       0.2593
     12  O         19.8810   17.1930    9.7960 O.2    31  ALA31      -0.2718
     13  CB        18.7230   16.1740   12.2260 C.3    31  ALA31       0.0304
     14  N         21.0740   15.3340    9.5120 N.am   32  SER32      -0.1938
     15  CA        21.5980   15.6510    8.2010 C.3    32  SER32       0.2055
     16  C         20.7080   15.0600    7.0870 C.2    32  SER32       0.2643
     17  O         19.8530   14.1890    7.3290 O.2    32  SER32      -0.2714
     18  CB        23.0060   15.0500    8.1250 C.3    32  SER32       0.2130
     19  OG        23.6780   15.3020    6.9210 O.3    32  SER32      -0.2179
     20  N         20.9320   15.5500    5.8710 N.am   33  ASN33      -0.1971
     21  CA        20.4500   14.8930    4.6560 C.3    33  ASN33       0.1688
     22  C         21.5890   14.1040    4.1060 C.2    33  ASN33       0.2292
     23  O         22.7240   14.2220    4.5870 O.2    33  ASN33      -0.2864
     24  CB        19.9770   15.9070    3.6110 C.3    33  ASN33       0.1181
     25  CG        21.0990   16.8710    3.1800 C.2    33  ASN33       0.2629
     26  OD1       22.1620   16.4360    2.7380 O.2    33  ASN33      -0.2716
     27  ND2       20.8730   18.1690    3.3540 N.am   33  ASN33      -0.0877
     28  N         24.6630   18.3840    3.3050 N.3    37  LYS37      -0.1231
     29  CA        24.5430   19.7460    2.8730 C.3    37  LYS37       0.1693
     30  C         23.6420   20.4270    3.8720 C.2    37  LYS37       0.2592
     31  O         22.4300   20.2660    3.8470 O.2    37  LYS37      -0.2718
     32  CB        23.9650   19.7910    1.4450 C.3    37  LYS37       0.0285
     33  CG        24.8370   20.5920    0.4620 C.3    37  LYS37       0.0035
     34  CD        25.8560   19.7180   -0.2370 C.3    37  LYS37       0.0206
     35  CE        27.0160   20.5390   -0.7880 C.3    37  LYS37       0.1093
     36  NZ        27.8610   19.6880   -1.6920 N.3    37  LYS37      -0.1314
     37  N         24.2550   21.2300    4.7370 N.am   38  HIS38      -0.1962
     38  CA        23.6190   21.7160    5.9390 C.3    38  HIS38       0.1787
     39  C         22.9900   23.0660    5.6810 C.2    38  HIS38       0.2620
     40  O         23.4490   24.0830    6.1720 O.2    38  HIS38      -0.2715
     41  CB        24.6620   21.7600    7.0740 C.3    38  HIS38       0.0785
     42  CG        25.4470   20.5000    7.1670 C.ar   38  HIS38       0.0821
     43  ND1       24.8440   19.2860    7.3910 N.ar   38  HIS38      -0.2267
     44  CD2       26.7590   20.2430    6.9670 C.ar   38  HIS38       0.1154
     45  CE1       25.7560   18.3300    7.3450 C.ar   38  HIS38       0.1986
     46  NE2       26.9260   18.8840    7.0880 N.ar   38  HIS38      -0.2212
     47  N         21.8850   23.0570    4.9620 N.am   39  TYR39      -0.1960
     48  CA        21.3090   24.3090    4.5230 C.3    39  TYR39       0.1771
     49  C         19.9370   24.5940    5.1260 C.2    39  TYR39       0.2620
     50  O         19.3280   25.5970    4.8140 O.2    39  TYR39      -0.2715
     51  CB        21.3540   24.3680    2.9850 C.3    39  TYR39       0.0574
     52  CG        22.7770   24.5970    2.4680 C.ar   39  TYR39      -0.0198
     53  CD1       23.4130   23.6720    1.6520 C.ar   39  TYR39      -0.0009
     54  CD2       23.4910   25.7330    2.8300 C.ar   39  TYR39      -0.0009
     55  CE1       24.7000   23.8860    1.1940 C.ar   39  TYR39       0.0417
     56  CE2       24.7800   25.9440    2.3800 C.ar   39  TYR39       0.0417
     57  CZ        25.3790   25.0140    1.5680 C.ar   39  TYR39       0.1957
     58  OH        26.6650   25.2220    1.1050 O.3    39  TYR39      -0.2866
     59  N         19.4830   23.7430    6.0340 N.am   40  GLY40      -0.1940
     60  CA        18.2430   24.0200    6.7430 C.3    40  GLY40       0.2014
     61  C         18.2730   23.5530    8.1860 C.2    40  GLY40       0.2639
     62  O         19.1880   22.8360    8.6140 O.2    40  GLY40      -0.2714
     63  N         17.2650   23.9650    8.9300 N.am   41  GLY41      -0.1939
     64  CA        17.0730   23.5040   10.2910 C.3    41  GLY41       0.2014
     65  C         18.2880   23.4840   11.2210 C.2    41  GLY41       0.2639
     66  O         19.0860   24.4120   11.2810 O.2    41  GLY41      -0.2714
     67  N         18.4010   22.4040   11.9770 N.am   42  LEU42      -0.1963
     68  CA        19.4730   22.2890   12.9430 C.3    42  LEU42       0.1728
     69  C         20.8030   22.3070   12.2010 C.2    42  LEU42       0.2616
     70  O         21.7550   22.9770   12.6120 O.2    42  LEU42      -0.2715
     71  CB        19.2820   21.0120   13.7780 C.3    42  LEU42       0.0311
     72  CG        20.4400   20.6000   14.6760 C.3    42  LEU42       0.0022
     73  CD1       20.6090   21.5940   15.8430 C.3    42  LEU42       0.0001
     74  CD2       20.1860   19.1390   15.1370 C.3    42  LEU42       0.0001
     75  N         20.8390   21.5960   11.0750 N.am   43  ALA43      -0.1977
     76  CA        22.0550   21.5000   10.2790 C.3    43  ALA43       0.1597
     77  C         22.6480   22.8830    9.9530 C.2    43  ALA43       0.2287
     78  O         23.8770   23.0840   10.0650 O.2    43  ALA43      -0.2864
     79  CB        21.8140   20.6800    9.0140 C.3    43  ALA43       0.0319
     80  N         21.9960   25.8410   11.5280 N.3    45  ALA45      -0.1245
     81  CA        22.4680   26.5260   12.7310 C.3    45  ALA45       0.1562
     82  C         23.8770   25.9730   13.0750 C.2    45  ALA45       0.2260
     83  O         24.8390   26.7470   13.1570 O.2    45  ALA45      -0.2867
     84  CB        21.4830   26.3650   13.8750 C.3    45  ALA45       0.0290
     85  N         18.5220   10.7600    9.0650 N.3    91  GLY91      -0.1225
     86  CA        17.2560   10.1360    9.3760 C.3    91  GLY91       0.1811
     87  C         16.5140    9.8370    8.0860 C.2    91  GLY91       0.2280
     88  O         16.9260   10.3110    7.0200 O.2    91  GLY91      -0.2866
     89  N         13.2270   10.1210    5.4970 N.3    93  ARG93      -0.1245
     90  CA        12.1250   11.0060    5.2000 C.3    93  ARG93       0.1563
     91  C         10.8620   10.1900    5.4150 C.2    93  ARG93       0.2260
     92  O         10.6660    9.1490    4.7850 O.2    93  ARG93      -0.2867
     93  CB        12.2020   11.4970    3.7500 C.3    93  ARG93       0.0307
     94  CG        13.4640   12.3170    3.4560 C.3    93  ARG93       0.0489
     95  CD        13.7080   12.3540    1.9840 C.3    93  ARG93       0.2205
     96  NE        14.9480   13.0450    1.6820 N.pl3  93  ARG93      -0.0865
     97  CZ        15.0900   14.3640    1.6220 C.cat  93  ARG93       0.5346
     98  NH1       14.0650   15.1960    1.8730 N.pl3  93  ARG93       0.1354
     99  NH2       16.2830   14.8510    1.3160 N.pl3  93  ARG93       0.1354
    100  N         19.4870   15.0470   18.9070 N.3   128  PRO128     -0.2102
    101  CA        18.2040   15.7020   18.6850 C.3   128  PRO128      0.1504
    102  C         17.1090   14.7530   18.1990 C.2   128  PRO128      0.2576
    103  O         17.3610   13.5560   17.9970 O.2   128  PRO128     -0.2718
    104  CB        18.5490   16.7430   17.5770 C.3   128  PRO128      0.0282
    105  CG        19.5850   16.0100   16.7090 C.3   128  PRO128      0.0208
    106  CD        20.3170   15.0440   17.6820 C.3   128  PRO128      0.0893
    107  N         15.9250   15.3020   17.9570 N.am  129  ALA129     -0.1966
    108  CA        14.7840   14.5680   17.3640 C.3   129  ALA129      0.1728
    109  C         14.9550   14.4580   15.8440 C.2   129  ALA129      0.2616
    110  O         14.2070   15.0300   15.0280 O.2   129  ALA129     -0.2715
    111  CB        13.4140   15.2320   17.7400 C.3   129  ALA129      0.0334
    112  N         15.9620   13.6730   15.4920 N.am  130  ILE130     -0.1963
    113  CA        16.3140   13.3410   14.1160 C.3   130  ILE130      0.1727
    114  C         15.0470   12.9840   13.3460 C.2   130  ILE130      0.2617
    115  O         14.2150   12.1950   13.8320 O.2   130  ILE130     -0.2715
    116  CB        17.3210   12.1480   14.0510 C.3   130  ILE130      0.0290
    117  CG1       18.6490   12.5220   14.7070 C.3   130  ILE130      0.0022
    118  CG2       17.6100   11.7180   12.5810 C.3   130  ILE130      0.0023
    119  CD1       19.3750   11.2830   15.2730 C.3   130  ILE130      0.0001
    120  N         14.9290   13.5870   12.1610 N.am  131  SER131     -0.1936
    121  CA        13.8150   13.3560   11.2390 C.3   131  SER131      0.2055
    122  C         12.4790   14.0470   11.5640 C.2   131  SER131      0.2644
    123  O         11.6050   13.9800   10.7510 O.2   131  SER131     -0.2714
    124  CB        13.5620   11.8540   11.0270 C.3   131  SER131      0.2130
    125  OG        14.4290   11.3740   10.0230 O.3   131  SER131     -0.2179
    126  N         12.3300   14.7110   12.7100 N.am  132  SER132     -0.1935
    127  CA        11.0070   15.2080   13.1460 C.3   132  SER132      0.2055
    128  C         10.7270   16.6120   12.6430 C.2   132  SER132      0.2644
    129  O          9.7100   17.1830   12.9710 O.2   132  SER132     -0.2714
    130  CB        10.8880   15.2050   14.6740 C.3   132  SER132      0.2130
    131  OG        11.8160   16.1340   15.2300 O.3   132  SER132     -0.2179
    132  N         11.6260   17.1850   11.8600 N.am  133  GLY133     -0.1939
    133  CA        11.4300   18.5300   11.3180 C.3   133  GLY133      0.2014
    134  C         11.0480   18.4360    9.8570 C.2   133  GLY133      0.2639
    135  O          9.9990   17.9140    9.5110 O.2   133  GLY133     -0.2714
    136  N         11.9170   18.9390    8.9970 N.am  134  VAL134     -0.1963
    137  CA        11.6800   18.9280    7.5500 C.3   134  VAL134      0.1727
    138  C         11.3450   17.5150    6.9890 C.2   134  VAL134      0.2616
    139  O         10.5330   17.4110    6.0710 O.2   134  VAL134     -0.2715
    140  CB        12.9130   19.5370    6.7870 C.3   134  VAL134      0.0290
    141  CG1       12.7530   19.4210    5.2530 C.3   134  VAL134      0.0023
    142  CG2       13.1780   21.0280    7.2150 C.3   134  VAL134      0.0023
    143  N         11.9710   16.4590    7.5390 N.am  135  PHE135     -0.1974
    144  CA        11.7930   15.0570    7.0980 C.3   135  PHE135      0.1639
    145  C         10.4670   14.4150    7.5650 C.2   135  PHE135      0.2290
    146  O         10.1120   13.3060    7.1440 O.2   135  PHE135     -0.2864
    147  CB        12.9910   14.1920    7.5480 C.3   135  PHE135      0.0560
    148  CG        14.2430   14.2910    6.6530 C.ar  135  PHE135     -0.0200
    149  CD1       14.4160   15.3180    5.7370 C.ar  135  PHE135     -0.0042
    150  CD2       15.2930   13.4100    6.8450 C.ar  135  PHE135     -0.0042
    151  CE1       15.5580   15.4110    4.9730 C.ar  135  PHE135     -0.0003
    152  CE2       16.4380   13.4690    6.0840 C.ar  135  PHE135     -0.0003
    153  CZ        16.5870   14.4630    5.1400 C.ar  135  PHE135     -0.0000
    154  N         16.7300   19.4500   22.5790 N.3   168  ASP168     -0.1225
    155  CA        16.1280   20.3220   21.5670 C.3   168  ASP168      0.1805
    156  C         16.0120   21.7280   22.1950 C.2   168  ASP168      0.2598
    157  O         16.0170   21.8470   23.4510 O.2   168  ASP168     -0.2718
    158  CB        14.7440   19.8060   21.1260 C.3   168  ASP168      0.1424
    159  CG        14.1670   20.5820   19.9260 C.2   168  ASP168      0.3668
    160  OD1       14.5190   20.3100   18.7800 O.co2 168  ASP168     -0.2456
    161  OD2       13.3260   21.4710   20.1300 O.co2 168  ASP168     -0.2456
    162  N         15.9350   22.7600   21.3410 N.am  169  VAL169     -0.1966
    163  CA        15.7430   24.1450   21.8130 C.3   169  VAL169      0.1727
    164  C         14.3150   24.3330   22.2810 C.2   169  VAL169      0.2616
    165  O         14.0770   25.0320   23.2740 O.2   169  VAL169     -0.2715
    166  CB        16.0160   25.2660   20.7430 C.3   169  VAL169      0.0290
    167  CG1       17.4570   25.5410   20.6460 C.3   169  VAL169      0.0023
    168  CG2       15.3900   24.9380   19.3810 C.3   169  VAL169      0.0023
    169  N         13.3760   23.7250   21.5600 N.am  170  SER170     -0.1950
    170  CA        11.9490   23.9080   21.8340 C.3   170  SER170      0.1924
    171  C         11.5070   22.9640   22.9180 C.2   170  SER170      0.2314
    172  O         11.9160   21.8010   22.9620 O.2   170  SER170     -0.2863
    173  CB        11.0880   23.7220   20.5800 C.3   170  SER170      0.2116
    174  OG        10.4690   22.4480   20.5850 O.3   170  SER170     -0.2180
    175  N          9.2400   19.6180   22.1060 N.3   173  THR173     -0.1218
    176  CA        10.0230   18.4440   21.7080 C.3   173  THR173      0.1862
    177  C         10.7050   17.8340   22.8820 C.2   173  THR173      0.2287
    178  O         10.6810   16.6260   23.0340 O.2   173  THR173     -0.2866
    179  CB        11.0150   18.7930   20.6500 C.3   173  THR173      0.1770
    180  OG1       10.2820   19.1800   19.4780 O.3   173  THR173     -0.2211
    181  CG2       11.9330   17.6180   20.3700 C.3   173  THR173      0.0375
@<TRIPOS>BOND
     1    36    35    1
     2    35    34    1
     3    34    33    1
     4    33    32    1
     5    58    57    1
     6    55    57   ar
     7    55    53   ar
     8    99    97    1
     9    32    29    1
    10    57    56   ar
    11    97    96    2
    12    97    98    1
    13    53    52   ar
    14    96    95    1
    15    95    94    1
    16    56    54   ar
    17    52    54   ar
    18    52    51    1
    19    26    25    2
    20    29    28    1
    21    29    30    1
    22    51    48    1
    23    25    27   am
    24    25    24    1
    25    94    93    1
    26    24    21    1
    27    93    90    1
    28    31    30    2
    29    30    37   am
    30    22    23    2
    31    22    21    1
    32    48    47    1
    33    48    49    1
    34    21    20    1
    35    37    38    1
    36    92    91    2
    37    50    49    2
    38    47    39   am
    39   151   153   ar
    40   151   149   ar
    41    49    59   am
    42   153   152   ar
    43    90    91    1
    44    90    89    1
    45   141   140    1
    46    39    38    1
    47    39    40    2
    48   149   148   ar
    49    20    16   am
    50    38    41    1
    51    59    60    1
    52   139   138    2
    53   152   150   ar
    54   148   150   ar
    55   148   147    1
    56    60    61    1
    57   140   142    1
    58   140   137    1
    59    19    18    1
    60    44    46   ar
    61    44    42   ar
    62   138   143   am
    63   138   137    1
    64    88    87    2
    65    41    42    1
    66    16    17    2
    67    16    15    1
    68    46    45   ar
    69   144   143    1
    70   144   147    1
    71   144   145    1
    72   146   145    2
    73    42    43   ar
    74    45    43   ar
    75   137   136    1
    76    87    86    1
    77    18    15    1
    78    61    62    2
    79    61    63   am
    80    15    14    1
    81    63    64    1
    82   136   134   am
    83    79    76    1
    84    85    86    1
    85   135   134    2
    86    14    11   am
    87    12    11    2
    88   134   133    1
    89    77    78    2
    90    77    76    1
    91   125   124    1
    92    11    10    1
    93    76    75    1
    94    64    65    1
    95   123   122    2
    96   124   121    1
    97    75    69   am
    98    65    66    2
    99    65    67   am
   100   121   122    1
   101   121   120    1
   102   133   132    1
   103    80    81    1
   104   122   126   am
   105    10    13    1
   106    10     9    1
   107   132   128   am
   108    67    68    1
   109   120   114   am
   110    69    70    2
   111    69    68    1
   112   118   116    1
   113   128   129    2
   114   128   127    1
   115   126   127    1
   116    81    82    1
   117    81    84    1
   118    68    71    1
   119    82    83    2
   120   127   130    1
   121   114   115    2
   122   114   113    1
   123    71    72    1
   124   116   113    1
   125   116   117    1
   126   113   112    1
   127   130   131    1
   128    72    74    1
   129    72    73    1
   130   117   119    1
   131   110   109    2
   132   112   109   am
   133   109   108    1
   134   105   104    1
   135   105   106    1
   136   108   111    1
   137   108   107    1
   138   104   101    1
   139   106   100    1
   140   107   102   am
   141   103   102    2
   142   102   101    1
   143   101   100    1
   144   160   159   ar
   145   168   166    1
   146   180   179    1
   147     7     6   ar
   148   159   161   ar
   149   159   158    1
   150     8     6   ar
   151   181   179    1
   152     6     5    1
   153   173   174    1
   154   173   170    1
   155   167   166    1
   156   179   176    1
   157   166   163    1
   158   158   155    1
   159   162   163    1
   160   162   156   am
   161   169   170    1
   162   169   164   am
   163   155   156    1
   164   155   154    1
   165     3     2    1
   166     3     4    2
   167   176   175    1
   168   176   177    1
   169   163   164    1
   170   170   171    1
   171     5     2    1
   172     2     1    1
   173   156   157    2
   174   164   165    2
   175   177   178    2
   176   171   172    2
