@<TRIPOS>MOLECULE
tmp/3q75B00.pdb
 218 211 0 0 0
SMALL
GASTEIGER

@<TRIPOS>ATOM
      1  N         45.3960  -48.7810  -10.3210 N.3    76  LYS76      -0.1245
      2  CA        45.3150  -47.7130   -9.3210 C.3    76  LYS76       0.1561
      3  C         43.8950  -47.1540   -9.1370 C.2    76  LYS76       0.2260
      4  O         43.6190  -46.4680   -8.1490 O.2    76  LYS76      -0.2867
      5  CB        46.3160  -46.5940   -9.6400 C.3    76  LYS76       0.0271
      6  CG        46.0500  -45.8240  -10.9380 C.3    76  LYS76       0.0035
      7  CD        47.3410  -45.2440  -11.5280 C.3    76  LYS76       0.0206
      8  CE        47.9140  -44.1150  -10.6790 C.3    76  LYS76       0.1093
      9  NZ        49.2520  -43.6850  -11.1710 N.3    76  LYS76      -0.1314
     10  N         40.9330  -47.5400   -5.9150 N.3    79  SER79      -0.1202
     11  CA        40.4260  -46.5610   -4.9550 C.3    79  SER79       0.2020
     12  C         38.9970  -46.1230   -5.2850 C.2    79  SER79       0.2618
     13  O         38.3110  -45.5380   -4.4460 O.2    79  SER79      -0.2717
     14  CB        41.3530  -45.3430   -4.9040 C.3    79  SER79       0.2103
     15  OG        41.3840  -44.6790   -6.1580 O.3    79  SER79      -0.2182
     16  N         38.5610  -46.4160   -6.5080 N.am   80  LEU80      -0.1979
     17  CA        37.2060  -46.1030   -6.9560 C.3    80  LEU80       0.1596
     18  C         36.3810  -47.3600   -7.2590 C.2    80  LEU80       0.2287
     19  O         35.3740  -47.2960   -7.9760 O.2    80  LEU80      -0.2864
     20  CB        37.2460  -45.1680   -8.1730 C.3    80  LEU80       0.0297
     21  CG        37.8460  -43.7730   -7.9560 C.3    80  LEU80       0.0022
     22  CD1       38.2820  -43.1430   -9.2850 C.3    80  LEU80       0.0001
     23  CD2       36.8710  -42.8640   -7.2140 C.3    80  LEU80       0.0001
     24  N         34.4550  -48.8930   -5.2880 N.3    82  ALA82      -0.1231
     25  CA        33.1390  -48.7350   -4.6790 C.3    82  ALA82       0.1694
     26  C         32.3430  -47.6090   -5.3410 C.2    82  ALA82       0.2592
     27  O         31.2450  -47.2810   -4.8970 O.2    82  ALA82      -0.2718
     28  CB        33.2670  -48.5030   -3.1770 C.3    82  ALA82       0.0304
     29  N         32.8990  -47.0470   -6.4150 N.am   83  SER83      -0.1952
     30  CA        32.2920  -45.9290   -7.1430 C.3    83  SER83       0.1924
     31  C         32.0940  -46.2140   -8.6320 C.2    83  SER83       0.2314
     32  O         31.9720  -45.2800   -9.4310 O.2    83  SER83      -0.2863
     33  CB        33.1620  -44.6780   -7.0020 C.3    83  SER83       0.2116
     34  OG        33.1340  -44.1930   -5.6800 O.3    83  SER83      -0.2180
     35  N         29.4860  -44.3980  -10.6440 N.3    86  TRP86      -0.1241
     36  CA        29.8730  -43.0030  -10.8800 C.3    86  TRP86       0.1605
     37  C         30.7490  -42.8880  -12.1250 C.2    86  TRP86       0.2264
     38  O         30.5920  -41.9580  -12.9230 O.2    86  TRP86      -0.2867
     39  CB        30.5860  -42.4020   -9.6660 C.3    86  TRP86       0.0550
     40  CG        29.6590  -42.0370   -8.5480 C.ar   86  TRP86       0.0003
     41  CD1       29.5490  -42.6620   -7.3400 C.ar   86  TRP86       0.0946
     42  CD2       28.6990  -40.9670   -8.5390 C.ar   86  TRP86       0.0152
     43  NE1       28.5800  -42.0490   -6.5760 N.ar   86  TRP86      -0.2442
     44  CE2       28.0410  -41.0080   -7.2890 C.ar   86  TRP86       0.0810
     45  CE3       28.3290  -39.9830   -9.4680 C.ar   86  TRP86       0.0012
     46  CZ2       27.0390  -40.0940   -6.9360 C.ar   86  TRP86       0.0191
     47  CZ3       27.3260  -39.0740   -9.1180 C.ar   86  TRP86       0.0001
     48  CH2       26.6940  -39.1400   -7.8620 C.ar   86  TRP86       0.0015
     49  N         29.6950  -40.5380  -15.1020 N.3    90  TRP90      -0.1241
     50  CA        30.5900  -39.4680  -15.5350 C.3    90  TRP90       0.1605
     51  C         30.9480  -39.6130  -17.0180 C.2    90  TRP90       0.2264
     52  O         31.0700  -38.6190  -17.7350 O.2    90  TRP90      -0.2867
     53  CB        31.8550  -39.4130  -14.6680 C.3    90  TRP90       0.0550
     54  CG        31.6110  -39.0440  -13.2140 C.ar   90  TRP90       0.0003
     55  CD1       30.6820  -38.1650  -12.7310 C.ar   90  TRP90       0.0946
     56  CD2       32.3360  -39.5260  -12.0700 C.ar   90  TRP90       0.0152
     57  NE1       30.7730  -38.0820  -11.3620 N.ar   90  TRP90      -0.2442
     58  CE2       31.7820  -38.9010  -10.9300 C.ar   90  TRP90       0.0810
     59  CE3       33.3940  -40.4310  -11.8980 C.ar   90  TRP90       0.0012
     60  CZ2       32.2470  -39.1530   -9.6330 C.ar   90  TRP90       0.0191
     61  CZ3       33.8590  -40.6790  -10.6060 C.ar   90  TRP90       0.0001
     62  CH2       33.2830  -40.0410   -9.4910 C.ar   90  TRP90       0.0015
     63  N         28.0660  -49.9620   -5.2940 N.3   126  GLY126     -0.1225
     64  CA        29.1960  -49.4600   -6.0770 C.3   126  GLY126      0.1811
     65  C         29.8470  -50.5190   -6.9510 C.2   126  GLY126      0.2280
     66  O         30.8050  -50.2400   -7.6710 O.2   126  GLY126     -0.2866
     67  N         23.7150  -48.6160   -1.8250 N.3   135  HIS135     -0.1241
     68  CA        24.1610  -47.3110   -1.3490 C.3   135  HIS135      0.1621
     69  C         23.3950  -46.2550   -2.1440 C.2   135  HIS135      0.2264
     70  O         23.2050  -46.4080   -3.3530 O.2   135  HIS135     -0.2867
     71  CB        25.6740  -47.1940   -1.5670 C.3   135  HIS135      0.0745
     72  CG        26.3130  -45.9860   -0.9490 C.ar  135  HIS135      0.0817
     73  ND1       27.2870  -46.0800    0.0250 N.ar  135  HIS135     -0.2268
     74  CD2       26.1690  -44.6640   -1.2070 C.ar  135  HIS135      0.1154
     75  CE1       27.7020  -44.8690    0.3510 C.ar  135  HIS135      0.1986
     76  NE2       27.0390  -43.9920   -0.3820 N.ar  135  HIS135     -0.2212
     77  N         24.0950  -43.2850   -3.2080 N.3   137  LEU137     -0.1231
     78  CA        24.8310  -42.5540   -4.2400 C.3   137  LEU137      0.1678
     79  C         25.0200  -43.3410   -5.5510 C.2   137  LEU137      0.2434
     80  O         24.7200  -42.8120   -6.6240 O.2   137  LEU137     -0.2733
     81  CB        26.1520  -41.9950   -3.6900 C.3   137  LEU137      0.0284
     82  CG        26.1180  -40.6680   -2.9090 C.3   137  LEU137      0.0019
     83  CD1       25.0990  -40.6280   -1.7490 C.3   137  LEU137      0.0001
     84  CD2       27.4990  -40.3620   -2.3860 C.3   137  LEU137      0.0001
     85  N         25.5140  -44.5980   -5.4780 N.am  138  PRO138     -0.2729
     86  CA        25.4780  -45.4620   -6.6620 C.3   138  PRO138      0.1401
     87  C         24.0690  -45.6910   -7.2160 C.2   138  PRO138      0.2269
     88  O         23.9220  -45.9080   -8.4140 O.2   138  PRO138     -0.2865
     89  CB        26.0410  -46.7860   -6.1440 C.3   138  PRO138      0.0296
     90  CG        26.9510  -46.4060   -5.0770 C.3   138  PRO138      0.0237
     91  CD        26.3520  -45.1880   -4.4180 C.3   138  PRO138      0.0939
     92  N         27.0140  -43.0900    6.8400 N.3   189  GLU189     -0.1245
     93  CA        26.9350  -41.6790    7.2400 C.3   189  GLU189      0.1567
     94  C         25.6390  -41.0090    6.7660 C.2   189  GLU189      0.2260
     95  O         25.0370  -41.4340    5.7700 O.2   189  GLU189     -0.2867
     96  CB        28.1790  -40.8940    6.7750 C.3   189  GLU189      0.0388
     97  CG        28.3480  -40.7180    5.2580 C.3   189  GLU189      0.1160
     98  CD        29.0240  -41.8990    4.5530 C.2   189  GLU189      0.3649
     99  OE1       29.1760  -42.9830    5.1580 O.co2 189  GLU189     -0.2457
    100  OE2       29.3950  -41.7440    3.3670 O.co2 189  GLU189     -0.2457
    101  N         23.9240  -35.4490    0.6500 N.3   193  ARG193     -0.1245
    102  CA        24.2080  -36.2450   -0.5550 C.3   193  ARG193      0.1563
    103  C         23.2090  -37.3920   -0.6350 C.2   193  ARG193      0.2260
    104  O         22.6850  -37.6930   -1.7070 O.2   193  ARG193     -0.2867
    105  CB        25.6160  -36.8510   -0.5310 C.3   193  ARG193      0.0307
    106  CG        26.7890  -35.8880   -0.5450 C.3   193  ARG193      0.0489
    107  CD        28.0870  -36.6630   -0.3100 C.3   193  ARG193      0.2205
    108  NE        28.0230  -37.4270    0.9360 N.pl3 193  ARG193     -0.0865
    109  CZ        28.5560  -38.6330    1.1340 C.cat 193  ARG193      0.5346
    110  NH1       29.2280  -39.2630    0.1710 N.pl3 193  ARG193      0.1354
    111  NH2       28.4120  -39.2160    2.3160 N.pl3 193  ARG193      0.1354
    112  N         38.8800  -20.8980    0.1950 N.3   304  LYS304     -0.1245
    113  CA        39.5450  -22.0310   -0.4440 C.3   304  LYS304      0.1561
    114  C         39.7860  -21.7170   -1.9270 C.2   304  LYS304      0.2260
    115  O         39.6710  -20.5650   -2.3340 O.2   304  LYS304     -0.2867
    116  CB        38.7530  -23.3250   -0.2460 C.3   304  LYS304      0.0271
    117  CG        39.0630  -24.0630    1.0580 C.3   304  LYS304      0.0035
    118  CD        40.2670  -24.9970    0.8760 C.3   304  LYS304      0.0206
    119  CE        40.1470  -26.2330    1.7240 C.3   304  LYS304      0.1093
    120  NZ        40.8470  -27.3930    1.1050 N.3   304  LYS304     -0.1314
    121  N         37.9760  -24.3690   -8.5600 N.3   307  ASP307     -0.1239
    122  CA        38.0570  -25.7520   -9.0140 C.3   307  ASP307      0.1674
    123  C         36.9530  -26.0070  -10.0400 C.2   307  ASP307      0.2266
    124  O         35.7740  -25.7440   -9.7830 O.2   307  ASP307     -0.2867
    125  CB        37.9250  -26.6790   -7.7970 C.3   307  ASP307      0.1410
    126  CG        37.8700  -28.1530   -8.1530 C.2   307  ASP307      0.3668
    127  OD1       37.6450  -28.5280   -9.3240 O.co2 307  ASP307     -0.2456
    128  OD2       38.0330  -28.9610   -7.2160 O.co2 307  ASP307     -0.2456
    129  N         35.2390  -28.5130  -11.0020 N.3   309  CYS309     -0.1221
    130  CA        34.0520  -29.3150  -10.6570 C.3   309  CYS309      0.1808
    131  C         32.9330  -28.4640  -10.0500 C.2   309  CYS309      0.2601
    132  O         31.7510  -28.7900  -10.1990 O.2   309  CYS309     -0.2717
    133  CB        34.3940  -30.5280   -9.7710 C.3   309  CYS309      0.0970
    134  SG        34.9350  -30.1970   -8.0670 S.3   309  CYS309     -0.0800
    135  N         33.3070  -27.3620   -9.3970 N.am  310  TYR310     -0.1976
    136  CA        32.3240  -26.4420   -8.8130 C.3   310  TYR310      0.1639
    137  C         31.5410  -25.6330   -9.8450 C.2   310  TYR310      0.2290
    138  O         30.5620  -24.9710   -9.4960 O.2   310  TYR310     -0.2864
    139  CB        32.9600  -25.5410   -7.7440 C.3   310  TYR310      0.0560
    140  CG        33.5680  -26.3430   -6.6190 C.ar  310  TYR310     -0.0198
    141  CD1       32.8080  -27.2910   -5.9330 C.ar  310  TYR310     -0.0009
    142  CD2       34.9040  -26.1820   -6.2600 C.ar  310  TYR310     -0.0009
    143  CE1       33.3530  -28.0510   -4.9210 C.ar  310  TYR310      0.0417
    144  CE2       35.4650  -26.9450   -5.2360 C.ar  310  TYR310      0.0417
    145  CZ        34.6790  -27.8770   -4.5740 C.ar  310  TYR310      0.1957
    146  OH        35.1990  -28.6420   -3.5560 O.3   310  TYR310     -0.2866
    147  N         28.6240  -27.9050   -9.3190 N.3   313  TRP313     -0.1241
    148  CA        28.0720  -27.8500   -7.9580 C.3   313  TRP313      0.1605
    149  C         27.5530  -26.4690   -7.5590 C.2   313  TRP313      0.2264
    150  O         26.4610  -26.3530   -7.0020 O.2   313  TRP313     -0.2867
    151  CB        29.0560  -28.3980   -6.9130 C.3   313  TRP313      0.0550
    152  CG        29.5350  -29.7980   -7.2260 C.ar  313  TRP313      0.0003
    153  CD1       30.8200  -30.1860   -7.4800 C.ar  313  TRP313      0.0946
    154  CD2       28.7290  -30.9800   -7.3470 C.ar  313  TRP313      0.0152
    155  NE1       30.8670  -31.5330   -7.7410 N.ar  313  TRP313     -0.2442
    156  CE2       29.5990  -32.0460   -7.6690 C.ar  313  TRP313      0.0810
    157  CE3       27.3590  -31.2420   -7.2130 C.ar  313  TRP313      0.0012
    158  CZ2       29.1440  -33.3580   -7.8540 C.ar  313  TRP313      0.0191
    159  CZ3       26.9050  -32.5480   -7.3960 C.ar  313  TRP313      0.0001
    160  CH2       27.7980  -33.5880   -7.7160 C.ar  313  TRP313      0.0015
    161  N         40.4930  -30.2190  -12.3600 N.3   363  ASP363     -0.1239
    162  CA        40.3310  -29.2870  -11.2480 C.3   363  ASP363      0.1674
    163  C         40.9110  -27.9100  -11.6050 C.2   363  ASP363      0.2266
    164  O         40.1750  -26.9200  -11.6980 O.2   363  ASP363     -0.2867
    165  CB        41.0070  -29.9080  -10.0040 C.3   363  ASP363      0.1410
    166  CG        41.2110  -28.9250   -8.8490 C.2   363  ASP363      0.3668
    167  OD1       40.8730  -27.7280   -8.9510 O.co2 363  ASP363     -0.2456
    168  OD2       41.7350  -29.3750   -7.8100 O.co2 363  ASP363     -0.2456
    169  N         46.8210  -30.1700  -12.1840 N.3   367  LYS367     -0.1231
    170  CA        46.0770  -31.3460  -11.7380 C.3   367  LYS367      0.1693
    171  C         45.7440  -32.2640  -12.9080 C.2   367  LYS367      0.2591
    172  O         45.3740  -31.7980  -13.9880 O.2   367  LYS367     -0.2718
    173  CB        44.7940  -30.9440  -10.9950 C.3   367  LYS367      0.0285
    174  CG        44.9880  -29.9330   -9.8580 C.3   367  LYS367      0.0035
    175  CD        46.0910  -30.3490   -8.8810 C.3   367  LYS367      0.0206
    176  CE        45.5820  -31.3010   -7.8120 C.3   367  LYS367      0.1093
    177  NZ        44.9240  -30.5470   -6.7140 N.3   367  LYS367     -0.1314
    178  N         45.8860  -33.5670  -12.6820 N.am  368  ARG368     -0.1980
    179  CA        45.5430  -34.5800  -13.6830 C.3   368  ARG368      0.1597
    180  C         44.0430  -34.5940  -13.9600 C.2   368  ARG368      0.2287
    181  O         43.2410  -34.5230  -13.0230 O.2   368  ARG368     -0.2864
    182  CB        45.9820  -35.9690  -13.2170 C.3   368  ARG368      0.0334
    183  CG        47.4820  -36.2000  -13.2650 C.3   368  ARG368      0.0492
    184  CD        47.8380  -37.5380  -12.6450 C.3   368  ARG368      0.2205
    185  NE        49.1900  -37.9630  -12.9980 N.pl3 368  ARG368     -0.0865
    186  CZ        49.7030  -39.1570  -12.7070 C.cat 368  ARG368      0.5346
    187  NH1       48.9770  -40.0560  -12.0490 N.pl3 368  ARG368      0.1354
    188  NH2       50.9450  -39.4520  -13.0710 N.pl3 368  ARG368      0.1354
    189  N         40.4310  -36.1910  -14.7560 N.3   370  ASP370     -0.1239
    190  CA        39.7520  -37.4430  -14.4350 C.3   370  ASP370      0.1674
    191  C         38.3010  -37.3860  -14.9120 C.2   370  ASP370      0.2266
    192  O         37.8230  -36.3280  -15.3380 O.2   370  ASP370     -0.2867
    193  CB        39.8670  -37.7780  -12.9340 C.3   370  ASP370      0.1410
    194  CG        39.2970  -36.6870  -12.0270 C.2   370  ASP370      0.3668
    195  OD1       38.3240  -36.0060  -12.4100 O.co2 370  ASP370     -0.2456
    196  OD2       39.8200  -36.5230  -10.9080 O.co2 370  ASP370     -0.2456
    197  N         35.4690  -37.6520  -13.2200 N.3   372  TYR372     -0.1227
    198  CA        34.6810  -36.7880  -12.3470 C.3   372  TYR372      0.1736
    199  C         34.7450  -35.3120  -12.7650 C.2   372  TYR372      0.2595
    200  O         33.7110  -34.6500  -12.8860 O.2   372  TYR372     -0.2718
    201  CB        35.1240  -36.9660  -10.8870 C.3   372  TYR372      0.0548
    202  CG        34.6380  -35.8730   -9.9580 C.ar  372  TYR372     -0.0200
    203  CD1       33.3400  -35.8910   -9.4470 C.ar  372  TYR372     -0.0009
    204  CD2       35.4800  -34.8240   -9.5830 C.ar  372  TYR372     -0.0009
    205  CE1       32.8860  -34.8880   -8.5900 C.ar  372  TYR372      0.0417
    206  CE2       35.0340  -33.8120   -8.7240 C.ar  372  TYR372      0.0417
    207  CZ        33.7370  -33.8510   -8.2350 C.ar  372  TYR372      0.1957
    208  OH        33.2840  -32.8620   -7.3920 O.3   372  TYR372     -0.2866
    209  N         35.9580  -34.8040  -12.9780 N.am  373  HIS373     -0.1975
    210  CA        36.1360  -33.4090  -13.3770 C.3   373  HIS373      0.1656
    211  C         35.7450  -33.1600  -14.8270 C.2   373  HIS373      0.2291
    212  O         35.3290  -32.0580  -15.1710 O.2   373  HIS373     -0.2864
    213  CB        37.5600  -32.9190  -13.0820 C.3   373  HIS373      0.0771
    214  CG        37.8170  -32.7040  -11.6260 C.ar  373  HIS373      0.0820
    215  ND1       38.5300  -33.5950  -10.8530 N.ar  373  HIS373     -0.2267
    216  CD2       37.4170  -31.7150  -10.7900 C.ar  373  HIS373      0.1154
    217  CE1       38.5730  -33.1550   -9.6070 C.ar  373  HIS373      0.1986
    218  NE2       37.9010  -32.0190   -9.5410 N.ar  373  HIS373     -0.2212
@<TRIPOS>BOND
     1    52    51    2
     2    51    50    1
     3    50    49    1
     4    50    53    1
     5   192   191    2
     6   212   211    2
     7   191   190    1
     8   211   210    1
     9   189   190    1
    10    53    54    1
    11   190   193    1
    12   172   171    2
    13   180   179    1
    14   180   181    2
    15   179   182    1
    16   179   178    1
    17   210   213    1
    18   210   209    1
    19   183   182    1
    20   183   184    1
    21   197   198    1
    22    54    55   ar
    23    54    56   ar
    24   213   214    1
    25   188   186    1
    26   185   186    2
    27   185   184    1
    28   209   199   am
    29   193   194    1
    30    38    37    2
    31   171   178   am
    32   171   170    1
    33   200   199    2
    34   199   198    1
    35    55    57   ar
    36   186   187    1
    37   195   194   ar
    38   161   162    1
    39   198   201    1
    40   169   170    1
    41    37    36    1
    42    56    59   ar
    43    56    58   ar
    44   194   196   ar
    45    59    61   ar
    46   170   173    1
    47   164   163    2
    48   214   215   ar
    49   214   216   ar
    50   163   162    1
    51     7     6    1
    52     7     8    1
    53    57    58   ar
    54   162   165    1
    55     9     8    1
    56   129   130    1
    57   173   174    1
    58     6     5    1
    59    58    60   ar
    60   201   202    1
    61    36    35    1
    62    36    39    1
    63   215   217   ar
    64   216   218   ar
    65   130   131    1
    66   130   133    1
    67    61    62   ar
    68     1     2    1
    69   132   131    2
    70   131   135   am
    71   123   124    2
    72   123   122    1
    73   165   166    1
    74   202   204   ar
    75   202   203   ar
    76   174   175    1
    77   137   138    2
    78   137   136    1
    79   133   134    1
    80    39    40    1
    81     5     2    1
    82    60    62   ar
    83   217   218   ar
    84   204   206   ar
    85    45    47   ar
    86    45    42   ar
    87   203   205   ar
    88    32    31    2
    89   135   136    1
    90   127   126   ar
    91     2     3    1
    92   147   148    1
    93    22    21    1
    94     3     4    2
    95    47    48   ar
    96   122   121    1
    97   122   125    1
    98   167   166   ar
    99   175   176    1
   100   166   168   ar
   101   136   139    1
   102   206   207   ar
   103    31    30    1
   104   205   207   ar
   105    40    42   ar
   106    40    41   ar
   107    42    44   ar
   108    88    87    2
   109   207   208    1
   110    20    21    1
   111    20    17    1
   112   126   125    1
   113   126   128   ar
   114    19    18    2
   115   148   149    1
   116   148   151    1
   117    21    23    1
   118    48    46   ar
   119   158   160   ar
   120   158   156   ar
   121   176   177    1
   122   139   140    1
   123   155   156   ar
   124   155   153   ar
   125   160   159   ar
   126    66    65    2
   127   156   154   ar
   128   149   150    2
   129   153   152   ar
   130   159   157   ar
   131   154   152   ar
   132   154   157   ar
   133    41    43   ar
   134    44    46   ar
   135    44    43   ar
   136    18    17    1
   137   152   151    1
   138    87    86    1
   139    30    33    1
   140    30    29    1
   141    33    34    1
   142    17    16    1
   143    65    64    1
   144    86    89    1
   145    86    85    1
   146    80    79    2
   147   140   142   ar
   148   140   141   ar
   149    16    12   am
   150    29    26   am
   151   142   144   ar
   152    15    14    1
   153    89    90    1
   154    64    63    1
   155   141   143   ar
   156    10    11    1
   157    79    85   am
   158    79    78    1
   159    85    91    1
   160    26    27    2
   161    26    25    1
   162    24    25    1
   163    12    11    1
   164    12    13    2
   165   144   145   ar
   166    90    91    1
   167    11    14    1
   168   143   145   ar
   169    25    28    1
   170   145   146    1
   171    78    81    1
   172    78    77    1
   173    81    82    1
   174    70    69    2
   175    82    84    1
   176    82    83    1
   177   115   114    2
   178    69    68    1
   179   114   113    1
   180    67    68    1
   181   104   103    2
   182    71    68    1
   183    71    72    1
   184    74    72   ar
   185    74    76   ar
   186    72    73   ar
   187   103   102    1
   188   102   105    1
   189   102   101    1
   190   106   105    1
   191   106   107    1
   192   113   116    1
   193   113   112    1
   194    76    75   ar
   195   107   108    1
   196   116   117    1
   197    73    75   ar
   198   110   109    1
   199   118   117    1
   200   118   119    1
   201   108   109    2
   202   120   119    1
   203   109   111    1
   204   100    98   ar
   205    98    99   ar
   206    98    97    1
   207    97    96    1
   208    95    94    2
   209    94    93    1
   210    96    93    1
   211    92    93    1
