@<TRIPOS>MOLECULE
tmp/3q77A00.pdb
 81 79 0 0 0
SMALL
GASTEIGER

@<TRIPOS>ATOM
      1  N         38.1280   -2.8300  -15.6370 N.3     5  ARG5       -0.1245
      2  CA        38.8580   -2.2550  -16.7600 C.3     5  ARG5        0.1563
      3  C         40.1260   -1.5960  -16.2300 C.2     5  ARG5        0.2260
      4  O         40.2230   -1.2940  -15.0300 O.2     5  ARG5       -0.2867
      5  CB        38.0040   -1.1980  -17.4750 C.3     5  ARG5        0.0307
      6  CG        37.6750   -0.0070  -16.5890 C.3     5  ARG5        0.0489
      7  CD        36.9930    1.1460  -17.3140 C.3     5  ARG5        0.2205
      8  NE        36.5300    2.1080  -16.3190 N.pl3   5  ARG5       -0.0865
      9  CZ        35.3790    1.9940  -15.6650 C.cat   5  ARG5        0.5346
     10  NH1       34.5590    0.9900  -15.9410 N.pl3   5  ARG5        0.1354
     11  NH2       35.0400    2.8810  -14.7480 N.pl3   5  ARG5        0.1354
     12  N         43.9810    7.6590   -9.8230 N.3    12  TRP12      -0.1241
     13  CA        43.6620    7.5440   -8.4030 C.3    12  TRP12       0.1605
     14  C         44.9590    7.5970   -7.5940 C.2    12  TRP12       0.2264
     15  O         45.4310    6.5740   -7.0930 O.2    12  TRP12      -0.2867
     16  CB        42.9050    6.2320   -8.1460 C.3    12  TRP12       0.0550
     17  CG        41.8590    5.9920   -9.2080 C.ar   12  TRP12       0.0003
     18  CD1       41.8330    4.9890  -10.1410 C.ar   12  TRP12       0.0946
     19  CD2       40.7090    6.8120   -9.4660 C.ar   12  TRP12       0.0152
     20  NE1       40.7230    5.1310  -10.9500 N.ar   12  TRP12      -0.2442
     21  CE2       40.0260    6.2450  -10.5580 C.ar   12  TRP12       0.0810
     22  CE3       40.1930    7.9710   -8.8690 C.ar   12  TRP12       0.0012
     23  CZ2       38.8500    6.8000  -11.0730 C.ar   12  TRP12       0.0191
     24  CZ3       39.0260    8.5180   -9.3790 C.ar   12  TRP12       0.0001
     25  CH2       38.3700    7.9320  -10.4690 C.ar   12  TRP12       0.0015
     26  N         26.4670    4.9810   -6.1900 N.3   121  GLN121     -0.1231
     27  CA        27.3500    4.4870   -7.2390 C.3   121  GLN121      0.1698
     28  C         28.7940    4.7020   -6.8270 C.2   121  GLN121      0.2592
     29  O         29.1870    5.8200   -6.5000 O.2   121  GLN121     -0.2718
     30  CB        27.0950    5.2320   -8.5510 C.3   121  GLN121      0.0381
     31  CG        25.7190    5.0290   -9.1330 C.3   121  GLN121      0.0905
     32  CD        25.4570    3.5850   -9.4590 C.2   121  GLN121      0.2608
     33  OE1       26.1020    3.0070  -10.3380 O.2   121  GLN121     -0.2717
     34  NE2       24.5190    2.9800   -8.7390 N.am  121  GLN121     -0.0878
     35  N         29.5910    3.6410   -6.8530 N.am  122  CYS122     -0.1956
     36  CA        30.9870    3.7580   -6.4530 C.3   122  CYS122      0.1843
     37  C         31.9260    3.1370   -7.4720 C.2   122  CYS122      0.2625
     38  O         31.4970    2.4530   -8.3980 O.2   122  CYS122     -0.2714
     39  CB        31.2110    3.0610   -5.1100 C.3   122  CYS122      0.0997
     40  SG        30.0830    3.5040   -3.7750 S.3   122  CYS122     -0.0797
     41  N         33.2190    3.3830   -7.2840 N.am  123  LEU123     -0.1977
     42  CA        34.2600    2.6770   -8.0100 C.3   123  LEU123      0.1596
     43  C         35.0700    1.8530   -7.0200 C.2   123  LEU123      0.2287
     44  O         35.6100    2.3980   -6.0490 O.2   123  LEU123     -0.2864
     45  CB        35.2190    3.6570   -8.6790 C.3   123  LEU123      0.0297
     46  CG        35.0500    4.1080  -10.1250 C.3   123  LEU123      0.0022
     47  CD1       36.2850    4.9160  -10.4970 C.3   123  LEU123      0.0001
     48  CD2       34.8690    2.9200  -11.0660 C.3   123  LEU123      0.0001
     49  N         32.9720   -0.2080  -11.8630 N.3   144  ASN144     -0.1240
     50  CA        31.7450    0.4140  -11.3670 C.3   144  ASN144      0.1653
     51  C         30.9640   -0.5740  -10.5110 C.2   144  ASN144      0.2266
     52  O         30.6850   -1.6920  -10.9430 O.2   144  ASN144     -0.2867
     53  CB        30.8770    0.8840  -12.5320 C.3   144  ASN144      0.1155
     54  CG        31.3600    2.1880  -13.1510 C.2   144  ASN144      0.2627
     55  OD1       32.4330    2.2550  -13.7650 O.2   144  ASN144     -0.2716
     56  ND2       30.5310    3.2280  -13.0190 N.am  144  ASN144     -0.0877
     57  N         35.6770    4.0990   -3.6210 N.3   178  VAL178     -0.1231
     58  CA        35.4590    5.5390   -3.7880 C.3   178  VAL178      0.1692
     59  C         33.9950    5.8150   -4.1210 C.2   178  VAL178      0.2592
     60  O         33.4890    5.3270   -5.1220 O.2   178  VAL178     -0.2718
     61  CB        36.3300    6.1050   -4.9240 C.3   178  VAL178      0.0266
     62  CG1       36.2360    7.6450   -4.9710 C.3   178  VAL178      0.0020
     63  CG2       37.7860    5.6730   -4.7490 C.3   178  VAL178      0.0020
     64  N         33.3140    6.5830   -3.2750 N.am  179  CYS179     -0.1956
     65  CA        31.9090    6.8920   -3.5060 C.3   179  CYS179      0.1843
     66  C         31.7250    8.3910   -3.3610 C.2   179  CYS179      0.2625
     67  O         32.0890    8.9760   -2.3310 O.2   179  CYS179     -0.2714
     68  CB        31.0030    6.1690   -2.5010 C.3   179  CYS179      0.0997
     69  SG        31.2350    4.3760   -2.3390 S.3   179  CYS179     -0.0797
     70  N         31.1880    9.0130   -4.4050 N.am  180  ASN180     -0.1958
     71  CA        30.9840   10.4490   -4.4050 C.3   180  ASN180      0.1819
     72  C         32.2900   11.1500   -4.0160 C.2   180  ASN180      0.2621
     73  O         32.2870   12.0610   -3.1970 O.2   180  ASN180     -0.2715
     74  CB        29.8560   10.8210   -3.4300 C.3   180  ASN180      0.1195
     75  CG        28.5550   10.0440   -3.6950 C.2   180  ASN180      0.2630
     76  OD1       27.9120    9.5410   -2.7680 O.2   180  ASN180     -0.2716
     77  ND2       28.1770    9.9370   -4.9610 N.am  180  ASN180     -0.0877
     78  N         33.4060   10.6780   -4.5710 N.am  181  GLY181     -0.1954
     79  CA        34.7010   11.3090   -4.3770 C.3   181  GLY181      0.1869
     80  C         35.3870   11.0610   -3.0410 C.2   181  GLY181      0.2309
     81  O         36.4990   11.5470   -2.8080 O.2   181  GLY181     -0.2863
@<TRIPOS>BOND
     1     5     2    1
     2     5     6    1
     3     7     6    1
     4     7     8    1
     5     2     3    1
     6     2     1    1
     7     8     9    2
     8     3     4    2
     9    10     9    1
    10     9    11    1
    11    55    54    2
    12    54    56   am
    13    54    53    1
    14    53    50    1
    15    49    50    1
    16    50    51    1
    17    23    21   ar
    18    23    25   ar
    19    48    46    1
    20    20    21   ar
    21    20    18   ar
    22    52    51    2
    23    21    19   ar
    24    47    46    1
    25    25    24   ar
    26    33    32    2
    27    18    17   ar
    28    46    45    1
    29    12    13    1
    30    19    17   ar
    31    19    22   ar
    32    32    31    1
    33    32    34   am
    34    24    22   ar
    35    17    16    1
    36    31    30    1
    37    45    42    1
    38    30    27    1
    39    13    16    1
    40    13    14    1
    41    38    37    2
    42    42    41    1
    43    42    43    1
    44    14    15    2
    45    37    41   am
    46    37    36    1
    47    27    28    1
    48    27    26    1
    49    43    44    2
    50    35    28   am
    51    35    36    1
    52    28    29    2
    53    36    39    1
    54    60    59    2
    55    39    40    1
    56    62    61    1
    57    77    75   am
    58    61    63    1
    59    61    58    1
    60    78    79    1
    61    78    72   am
    62    71    70    1
    63    71    72    1
    64    71    74    1
    65    70    66   am
    66    79    80    1
    67    59    58    1
    68    59    64   am
    69    72    73    2
    70    58    57    1
    71    40    69    1
    72    75    74    1
    73    75    76    2
    74    65    66    1
    75    65    64    1
    76    65    68    1
    77    66    67    2
    78    80    81    2
    79    68    69    1
