@<TRIPOS>MOLECULE
tmp/3q77A02.pdb
 148 144 0 0 0
SMALL
GASTEIGER

@<TRIPOS>ATOM
      1  N         43.2320   -7.5800    7.8880 N.3    41  HIS41      -0.1241
      2  CA        43.5200   -8.9270    7.4000 C.3    41  HIS41       0.1621
      3  C         44.7230   -8.9880    6.4320 C.2    41  HIS41       0.2264
      4  O         45.3680  -10.0310    6.3070 O.2    41  HIS41      -0.2867
      5  CB        42.2450   -9.6290    6.8630 C.3    41  HIS41       0.0745
      6  CG        41.8990   -9.3060    5.4380 C.ar   41  HIS41       0.0817
      7  ND1       40.9820   -8.3360    5.0930 N.ar   41  HIS41      -0.2268
      8  CD2       42.3190   -9.8530    4.2710 C.ar   41  HIS41       0.1154
      9  CE1       40.8670   -8.2860    3.7770 C.ar   41  HIS41       0.1986
     10  NE2       41.6590   -9.2060    3.2550 N.ar   41  HIS41      -0.2212
     11  N         47.6790   -9.1480    9.2380 N.3    44  ALA44      -0.1231
     12  CA        47.6700  -10.2000   10.2480 C.3    44  ALA44       0.1694
     13  C         48.5220  -11.3570    9.7300 C.2    44  ALA44       0.2592
     14  O         48.3000  -11.8480    8.6270 O.2    44  ALA44      -0.2718
     15  CB        46.2550  -10.6680   10.5280 C.3    44  ALA44       0.0304
     16  N         49.5040  -11.7790   10.5110 N.am   45  ASN45      -0.1974
     17  CA        50.3950  -12.8640   10.0910 C.3    45  ASN45       0.1688
     18  C         51.3850  -12.4980    8.9920 C.2    45  ASN45       0.2292
     19  O         51.9080  -13.3780    8.3100 O.2    45  ASN45      -0.2864
     20  CB        49.6000  -14.1000    9.6620 C.3    45  ASN45       0.1181
     21  CG        49.0930  -14.8910   10.8380 C.2    45  ASN45       0.2629
     22  OD1       49.8510  -15.6280   11.4720 O.2    45  ASN45      -0.2716
     23  ND2       47.8080  -14.7420   11.1470 N.am   45  ASN45      -0.0877
     24  N         40.2600   -5.2290   15.2330 N.3    80  TYR80      -0.1241
     25  CA        40.1560   -6.2820   14.2210 C.3    80  TYR80       0.1605
     26  C         39.6450   -7.5920   14.8170 C.2    80  TYR80       0.2264
     27  O         40.2650   -8.1610   15.7110 O.2    80  TYR80      -0.2867
     28  CB        41.5340   -6.5010   13.5820 C.3    80  TYR80       0.0534
     29  CG        41.5890   -7.6240   12.5760 C.ar   80  TYR80      -0.0201
     30  CD1       42.6410   -8.5350   12.5830 C.ar   80  TYR80      -0.0009
     31  CD2       40.5970   -7.7740   11.6200 C.ar   80  TYR80      -0.0009
     32  CE1       42.7020   -9.5670   11.6630 C.ar   80  TYR80       0.0417
     33  CE2       40.6550   -8.8070   10.6920 C.ar   80  TYR80       0.0417
     34  CZ        41.7080   -9.7010   10.7300 C.ar   80  TYR80       0.1957
     35  OH        41.7750  -10.7280    9.8150 O.3    80  TYR80      -0.2866
     36  N         38.7280  -11.0870   13.2490 N.3    82  PRO82      -0.2116
     37  CA        38.6080  -11.9460   12.0720 C.3    82  PRO82       0.1372
     38  C         37.4560  -12.9540   12.1870 C.2    82  PRO82       0.2244
     39  O         36.8720  -13.3120   11.1710 O.2    82  PRO82      -0.2868
     40  CB        39.9650  -12.6610   12.0060 C.3    82  PRO82       0.0268
     41  CG        40.5760  -12.5060   13.3530 C.3    82  PRO82       0.0207
     42  CD        40.0170  -11.2520   13.9460 C.3    82  PRO82       0.0892
     43  N         34.4990  -11.0290   11.5100 N.3    85  LEU85      -0.1231
     44  CA        34.7660  -10.1930   10.3380 C.3    85  LEU85       0.1693
     45  C         34.4950   -8.7110   10.6030 C.2    85  LEU85       0.2591
     46  O         33.8990   -8.0270    9.7750 O.2    85  LEU85      -0.2718
     47  CB        33.9400  -10.6620    9.1420 C.3    85  LEU85       0.0284
     48  CG        34.0960  -12.1350    8.7620 C.3    85  LEU85       0.0019
     49  CD1       33.0900  -12.5150    7.6920 C.3    85  LEU85       0.0001
     50  CD2       35.5110  -12.4200    8.3120 C.3    85  LEU85       0.0001
     51  N         34.9430   -8.2160   11.7510 N.am   86  LEU86      -0.1980
     52  CA        34.6570   -6.8330   12.1340 C.3    86  LEU86       0.1596
     53  C         35.9130   -5.9860   12.2450 C.2    86  LEU86       0.2287
     54  O         36.9840   -6.4920   12.5640 O.2    86  LEU86      -0.2864
     55  CB        33.9150   -6.7970   13.4700 C.3    86  LEU86       0.0297
     56  CG        32.5540   -7.4830   13.5180 C.3    86  LEU86       0.0022
     57  CD1       32.0710   -7.5720   14.9550 C.3    86  LEU86       0.0001
     58  CD2       31.5570   -6.7280   12.6580 C.3    86  LEU86       0.0001
     59  N         37.8360   -4.3080   10.0850 N.3    88  ASP88      -0.1239
     60  CA        38.9100   -4.7320    9.1980 C.3    88  ASP88       0.1674
     61  C         39.6310   -3.5140    8.6410 C.2    88  ASP88       0.2266
     62  O         39.5690   -3.2180    7.4460 O.2    88  ASP88      -0.2867
     63  CB        38.3560   -5.5890    8.0680 C.3    88  ASP88       0.1410
     64  CG        39.4340   -6.3740    7.3470 C.2    88  ASP88       0.3668
     65  OD1       40.5950   -6.3620    7.8090 O.co2  88  ASP88      -0.2456
     66  OD2       39.1060   -7.0220    6.3300 O.co2  88  ASP88      -0.2456
     67  N         35.5070   -7.5850   -6.5680 N.3   168  VAL168     -0.1231
     68  CA        36.8830   -7.5700   -6.0700 C.3   168  VAL168      0.1692
     69  C         37.3230   -9.0130   -5.8450 C.2   168  VAL168      0.2592
     70  O         36.5000   -9.9340   -5.8650 O.2   168  VAL168     -0.2718
     71  CB        37.0300   -6.7740   -4.7480 C.3   168  VAL168      0.0266
     72  CG1       36.6380   -5.2980   -4.9570 C.3   168  VAL168      0.0020
     73  CG2       36.1770   -7.4200   -3.6130 C.3   168  VAL168      0.0020
     74  N         38.6190   -9.2120   -5.6470 N.am  169  CYS169     -0.1956
     75  CA        39.1400  -10.5620   -5.5340 C.3   169  CYS169      0.1843
     76  C         40.4510  -10.5230   -4.7730 C.2   169  CYS169      0.2625
     77  O         40.8740   -9.4520   -4.3230 O.2   169  CYS169     -0.2714
     78  CB        39.3030  -11.1880   -6.9290 C.3   169  CYS169      0.0997
     79  SG        39.4050  -13.0280   -6.9420 S.3   169  CYS169     -0.0797
     80  N         41.0960  -11.6770   -4.6190 N.am  170  PHE170     -0.1960
     81  CA        42.3470  -11.7380   -3.8640 C.3   170  PHE170      0.1771
     82  C         43.3690  -10.7480   -4.4020 C.2   170  PHE170      0.2620
     83  O         43.5370  -10.6210   -5.6180 O.2   170  PHE170     -0.2715
     84  CB        42.9040  -13.1720   -3.8610 C.3   170  PHE170      0.0574
     85  CG        41.9870  -14.1720   -3.2030 C.ar  170  PHE170     -0.0200
     86  CD1       41.0220  -14.8320   -3.9380 C.ar  170  PHE170     -0.0042
     87  CD2       42.0990  -14.4500   -1.8460 C.ar  170  PHE170     -0.0042
     88  CE1       40.1680  -15.7530   -3.3390 C.ar  170  PHE170     -0.0003
     89  CE2       41.2600  -15.3770   -1.2310 C.ar  170  PHE170     -0.0003
     90  CZ        40.2920  -16.0320   -1.9750 C.ar  170  PHE170     -0.0000
     91  N         44.0550  -10.0470   -3.5020 N.am  171  GLY171     -0.1940
     92  CA        44.9980   -9.0090   -3.9080 C.3   171  GLY171      0.2014
     93  C         44.3700   -7.6170   -3.9130 C.2   171  GLY171      0.2639
     94  O         45.0710   -6.6040   -3.8970 O.2   171  GLY171     -0.2714
     95  N         43.0440   -7.5720   -3.9520 N.am  172  ASP172     -0.1957
     96  CA        42.2830   -6.3180   -3.8460 C.3   172  ASP172      0.1840
     97  C         42.0230   -5.9070   -2.3970 C.2   172  ASP172      0.2622
     98  O         41.6540   -4.7560   -2.1270 O.2   172  ASP172     -0.2715
     99  CB        40.9420   -6.4470   -4.5600 C.3   172  ASP172      0.1450
    100  CG        41.0930   -6.5180   -6.0470 C.2   172  ASP172      0.3671
    101  OD1       42.0310   -5.8740   -6.5620 O.co2 172  ASP172     -0.2456
    102  OD2       40.2960   -7.2330   -6.6900 O.co2 172  ASP172     -0.2456
    103  N         42.1810   -6.8580   -1.4770 N.am  173  SER173     -0.1950
    104  CA        42.0570   -6.5900   -0.0450 C.3   173  SER173      0.1924
    105  C         42.7620   -5.2910    0.3090 C.2   173  SER173      0.2314
    106  O         43.8940   -5.0570   -0.1220 O.2   173  SER173     -0.2863
    107  CB        42.6900   -7.7260    0.7600 C.3   173  SER173      0.2116
    108  OG        42.0040   -8.9530    0.5450 O.3   173  SER173     -0.2180
    109  N         38.3780   -2.7070    1.0320 N.3   187  ALA187     -0.1231
    110  CA        37.9600   -4.0530    0.6180 C.3   187  ALA187      0.1694
    111  C         38.2910   -5.1010    1.6820 C.2   187  ALA187      0.2593
    112  O         39.4460   -5.2500    2.0980 O.2   187  ALA187     -0.2718
    113  CB        38.5590   -4.4250   -0.7460 C.3   187  ALA187      0.0304
    114  N         37.2580   -5.8110    2.1350 N.am  188  SER188     -0.1938
    115  CA        37.3840   -6.6870    3.2950 C.3   188  SER188      0.2055
    116  C         37.1480   -8.1540    2.9290 C.2   188  SER188      0.2643
    117  O         38.0320   -8.9720    3.1280 O.2   188  SER188     -0.2714
    118  CB        36.4570   -6.2340    4.4480 C.3   188  SER188      0.2130
    119  OG        36.5460   -7.0850    5.5950 O.3   188  SER188     -0.2179
    120  N         35.9880   -8.5040    2.3800 N.am  189  PHE189     -0.1959
    121  CA        35.7790   -9.9300    2.0580 C.3   189  PHE189      0.1771
    122  C         34.7220  -10.2150    1.0010 C.2   189  PHE189      0.2619
    123  O         33.8120   -9.4230    0.7820 O.2   189  PHE189     -0.2715
    124  CB        35.5220  -10.7730    3.3310 C.3   189  PHE189      0.0574
    125  CG        34.2350  -10.4340    4.0440 C.ar  189  PHE189     -0.0200
    126  CD1       34.2190   -9.4910    5.0690 C.ar  189  PHE189     -0.0042
    127  CD2       33.0390  -11.0490    3.6860 C.ar  189  PHE189     -0.0042
    128  CE1       33.0280   -9.1700    5.7240 C.ar  189  PHE189     -0.0003
    129  CE2       31.8460  -10.7350    4.3360 C.ar  189  PHE189     -0.0003
    130  CZ        31.8400   -9.8000    5.3560 C.ar  189  PHE189     -0.0000
    131  N         34.8620  -11.3660    0.3450 N.am  190  VAL190     -0.1977
    132  CA        33.8730  -11.8420   -0.6070 C.3   190  VAL190      0.1596
    133  C         33.2010  -13.1220   -0.0790 C.2   190  VAL190      0.2287
    134  O         33.6810  -13.7530    0.8550 O.2   190  VAL190     -0.2864
    135  CB        34.4970  -12.1140   -2.0010 C.3   190  VAL190      0.0276
    136  CG1       35.1950  -10.8700   -2.5320 C.3   190  VAL190      0.0022
    137  CG2       35.4730  -13.2900   -1.9310 C.3   190  VAL190      0.0022
    138  N         35.0780  -15.0320   -5.6960 N.3   194  CYS194     -0.1235
    139  CA        35.0320  -13.7020   -6.2960 C.3   194  CYS194      0.1677
    140  C         33.9780  -13.6850   -7.3970 C.2   194  CYS194      0.2270
    141  O         33.8010  -14.6820   -8.0960 O.2   194  CYS194     -0.2867
    142  CB        36.3970  -13.3660   -6.9090 C.3   194  CYS194      0.0956
    143  SG        37.8020  -13.5840   -5.8040 S.3   194  CYS194     -0.0801
    144  N         32.0810   -7.0380    0.4250 N.3   202  ALA202     -0.1245
    145  CA        32.0200   -6.3540    1.7120 C.3   202  ALA202      0.1562
    146  C         33.2630   -5.5040    1.9330 C.2   202  ALA202      0.2260
    147  O         34.3860   -5.9390    1.6690 O.2   202  ALA202     -0.2867
    148  CB        31.8780   -7.3740    2.8400 C.3   202  ALA202      0.0290
@<TRIPOS>BOND
     1   141   140    2
     2   140   139    1
     3    79    78    1
     4    79   143    1
     5    78    75    1
     6   142   139    1
     7   142   143    1
     8   102   100   ar
     9    67    68    1
    10   101   100   ar
    11   139   138    1
    12    68    69    1
    13    68    71    1
    14   100    99    1
    15    70    69    2
    16    69    74   am
    17    74    75    1
    18    83    82    2
    19    75    76    1
    20    72    71    1
    21    76    80   am
    22    76    77    2
    23    71    73    1
    24    80    81    1
    25    99    96    1
    26    82    81    1
    27    82    91   am
    28    95    93   am
    29    95    96    1
    30    86    88   ar
    31    86    85   ar
    32    93    92    1
    33    93    94    2
    34    92    91    1
    35    81    84    1
    36    84    85    1
    37    96    97    1
    38    88    90   ar
    39    85    87   ar
    40   136   135    1
    41    97    98    2
    42    97   103   am
    43   135   137    1
    44   135   132    1
    45    90    89   ar
    46    87    89   ar
    47   103   104    1
    48   113   110    1
    49   132   133    1
    50   132   131    1
    51   106   105    2
    52   133   134    2
    53   104   105    1
    54   104   107    1
    55   131   122   am
    56   144   145    1
    57   108   107    1
    58   110   109    1
    59   110   111    1
    60   123   122    2
    61   122   121    1
    62   147   146    2
    63   111   112    2
    64   111   114   am
    65   145   146    1
    66   145   148    1
    67   121   120    1
    68   121   124    1
    69   114   115    1
    70   120   116   am
    71   116   117    2
    72   116   115    1
    73    10     9   ar
    74    10     8   ar
    75   115   118    1
    76   124   125    1
    77   127   125   ar
    78   127   129   ar
    79     9     7   ar
    80   125   126   ar
    81     8     6   ar
    82   129   130   ar
    83   118   119    1
    84   126   128   ar
    85     7     6   ar
    86   130   128   ar
    87     6     5    1
    88     4     3    2
    89    66    64   ar
    90     3     2    1
    91     5     2    1
    92    64    65   ar
    93    64    63    1
    94     2     1    1
    95    62    61    2
    96    49    48    1
    97    63    60    1
    98    19    18    2
    99    50    48    1
   100    14    13    2
   101    61    60    1
   102    48    47    1
   103    18    17    1
   104    47    44    1
   105    60    59    1
   106    11    12    1
   107    20    17    1
   108    20    21    1
   109    13    12    1
   110    13    16   am
   111    46    45    2
   112    35    34    1
   113    17    16    1
   114    12    15    1
   115    44    45    1
   116    44    43    1
   117    45    51   am
   118    33    34   ar
   119    33    31   ar
   120    34    32   ar
   121    21    23   am
   122    21    22    2
   123    39    38    2
   124    31    29   ar
   125    32    30   ar
   126    51    52    1
   127    40    37    1
   128    40    41    1
   129    37    38    1
   130    37    36    1
   131    52    53    1
   132    52    55    1
   133    53    54    2
   134    29    30   ar
   135    29    28    1
   136    58    56    1
   137    36    42    1
   138    41    42    1
   139    55    56    1
   140    56    57    1
   141    28    25    1
   142    25    26    1
   143    25    24    1
   144    26    27    2
