@<TRIPOS>MOLECULE
tmp/3q78B03.pdb
 173 169 0 0 0
SMALL
GASTEIGER

@<TRIPOS>ATOM
      1  N         30.0450  -45.1710  -10.8530 N.3    85  TRP85      -0.1241
      2  CA        30.4530  -43.7850  -11.0970 C.3    85  TRP85       0.1605
      3  C         31.3680  -43.6830  -12.3140 C.2    85  TRP85       0.2264
      4  O         31.3000  -42.7170  -13.0740 O.2    85  TRP85      -0.2867
      5  CB        31.1610  -43.1870   -9.8760 C.3    85  TRP85       0.0550
      6  CG        30.2340  -42.7590   -8.7860 C.ar   85  TRP85       0.0003
      7  CD1       30.1190  -43.3100   -7.5430 C.ar   85  TRP85       0.0946
      8  CD2       29.2840  -41.6870   -8.8400 C.ar   85  TRP85       0.0152
      9  NE1       29.1570  -42.6470   -6.8190 N.ar   85  TRP85      -0.2442
     10  CE2       28.6300  -41.6460   -7.5920 C.ar   85  TRP85       0.0810
     11  CE3       28.9230  -40.7600   -9.8220 C.ar   85  TRP85       0.0012
     12  CZ2       27.6350  -40.7140   -7.3010 C.ar   85  TRP85       0.0191
     13  CZ3       27.9340  -39.8360   -9.5310 C.ar   85  TRP85       0.0001
     14  CH2       27.3000  -39.8210   -8.2810 C.ar   85  TRP85       0.0015
     15  N         24.6560  -44.1260   -3.4500 N.3   136  LEU136     -0.1245
     16  CA        25.3970  -43.4100   -4.4790 C.3   136  LEU136      0.1561
     17  C         25.5340  -44.2170   -5.7770 C.2   136  LEU136      0.2260
     18  O         25.2130  -43.7090   -6.8480 O.2   136  LEU136     -0.2867
     19  CB        26.7480  -42.9150   -3.9470 C.3   136  LEU136      0.0270
     20  CG        26.7230  -41.5790   -3.1920 C.3   136  LEU136      0.0019
     21  CD1       25.6630  -41.5500   -2.0950 C.3   136  LEU136      0.0001
     22  CD2       28.0960  -41.2500   -2.6140 C.3   136  LEU136      0.0001
     23  N         22.1940  -44.1270   -7.5610 N.3   139  TYR139     -0.1241
     24  CA        21.9970  -42.9460   -8.3950 C.3   139  TYR139      0.1605
     25  C         22.7760  -43.0930   -9.6960 C.2   139  TYR139      0.2264
     26  O         22.2250  -42.9350  -10.7870 O.2   139  TYR139     -0.2867
     27  CB        22.4510  -41.6780   -7.6660 C.3   139  TYR139      0.0534
     28  CG        22.6620  -40.4890   -8.5800 C.ar  139  TYR139     -0.0201
     29  CD1       21.6290  -39.5970   -8.8490 C.ar  139  TYR139     -0.0009
     30  CD2       23.8950  -40.2610   -9.1800 C.ar  139  TYR139     -0.0009
     31  CE1       21.8220  -38.5070   -9.6920 C.ar  139  TYR139      0.0417
     32  CE2       24.0970  -39.1780  -10.0230 C.ar  139  TYR139      0.0417
     33  CZ        23.0590  -38.3030  -10.2740 C.ar  139  TYR139      0.1957
     34  OH        23.2640  -37.2260  -11.1100 O.3   139  TYR139     -0.2866
     35  N         24.4840  -36.2700    0.5980 N.3   192  ARG192     -0.1245
     36  CA        24.7770  -37.0290   -0.6170 C.3   192  ARG192      0.1563
     37  C         23.7430  -38.1390   -0.7540 C.2   192  ARG192      0.2260
     38  O         23.2300  -38.3990   -1.8420 O.2   192  ARG192     -0.2867
     39  CB        26.1760  -37.6510   -0.5720 C.3   192  ARG192      0.0307
     40  CG        27.3440  -36.6720   -0.5810 C.3   192  ARG192      0.0489
     41  CD        28.6590  -37.4240   -0.3470 C.3   192  ARG192      0.2205
     42  NE        28.5640  -38.2760    0.8380 N.pl3 192  ARG192     -0.0865
     43  CZ        29.0800  -39.4980    0.9420 C.cat 192  ARG192      0.5346
     44  NH1       29.7510  -40.0360   -0.0660 N.pl3 192  ARG192      0.1354
     45  NH2       28.9250  -40.1840    2.0650 N.pl3 192  ARG192      0.1354
     46  N         20.2130  -36.6800   -1.6340 N.3   195  TYR195     -0.1227
     47  CA        20.1450  -36.2690   -3.0310 C.3   195  TYR195      0.1736
     48  C         19.9800  -37.4630   -3.9660 C.2   195  TYR195      0.2595
     49  O         19.0840  -37.4810   -4.8070 O.2   195  TYR195     -0.2718
     50  CB        21.3730  -35.4460   -3.4370 C.3   195  TYR195      0.0548
     51  CG        21.5180  -35.3280   -4.9400 C.ar  195  TYR195     -0.0200
     52  CD1       20.6940  -34.4820   -5.6730 C.ar  195  TYR195     -0.0009
     53  CD2       22.4610  -36.0820   -5.6290 C.ar  195  TYR195     -0.0009
     54  CE1       20.8130  -34.3810   -7.0500 C.ar  195  TYR195      0.0417
     55  CE2       22.5880  -35.9860   -7.0060 C.ar  195  TYR195      0.0417
     56  CZ        21.7610  -35.1380   -7.7100 C.ar  195  TYR195      0.1957
     57  OH        21.8840  -35.0430   -9.0770 O.3   195  TYR195     -0.2866
     58  N         20.8480  -38.4580   -3.8130 N.am  196  CYS196     -0.1970
     59  CA        20.8290  -39.6300   -4.6840 C.3   196  CYS196      0.1712
     60  C         19.5150  -40.4050   -4.5730 C.2   196  CYS196      0.2296
     61  O         18.9650  -40.8550   -5.5770 O.2   196  CYS196     -0.2864
     62  CB        22.0190  -40.5420   -4.3780 C.3   196  CYS196      0.0983
     63  SG        23.6250  -39.8290   -4.8290 S.3   196  CYS196     -0.0798
     64  N         29.7600  -26.3690    1.8120 N.3   246  HIS246     -0.1241
     65  CA        30.6150  -26.9980    0.8100 C.3   246  HIS246      0.1621
     66  C         29.9040  -27.1340   -0.5360 C.2   246  HIS246      0.2264
     67  O         28.7310  -27.5110   -0.5920 O.2   246  HIS246     -0.2867
     68  CB        31.0570  -28.3770    1.3010 C.3   246  HIS246      0.0745
     69  CG        32.1610  -28.9820    0.4920 C.ar  246  HIS246      0.0817
     70  ND1       31.9370  -29.9300   -0.4820 N.ar  246  HIS246     -0.2268
     71  CD2       33.4990  -28.7770    0.5180 C.ar  246  HIS246      0.1154
     72  CE1       33.0900  -30.2820   -1.0230 C.ar  246  HIS246      0.1986
     73  NE2       34.0540  -29.5960   -0.4350 N.ar  246  HIS246     -0.2212
     74  N         29.9600  -29.3290   -2.8970 N.3   248  GLY248     -0.1210
     75  CA        29.3650  -30.6310   -3.1360 C.3   248  GLY248      0.1956
     76  C         28.0750  -30.8360   -2.3680 C.2   248  GLY248      0.2611
     77  O         27.0740  -31.2770   -2.9320 O.2   248  GLY248     -0.2717
     78  N         28.1020  -30.5090   -1.0800 N.am  249  TYR249     -0.1976
     79  CA        26.9450  -30.6940   -0.2160 C.3   249  TYR249      0.1639
     80  C         25.8840  -29.6170   -0.4310 C.2   249  TYR249      0.2290
     81  O         24.6980  -29.8470   -0.1850 O.2   249  TYR249     -0.2864
     82  CB        27.3830  -30.7500    1.2500 C.3   249  TYR249      0.0560
     83  CG        28.3350  -31.8880    1.5440 C.ar  249  TYR249     -0.0198
     84  CD1       27.9400  -33.2090    1.3830 C.ar  249  TYR249     -0.0009
     85  CD2       29.6300  -31.6430    1.9810 C.ar  249  TYR249     -0.0009
     86  CE1       28.8090  -34.2550    1.6480 C.ar  249  TYR249      0.0417
     87  CE2       30.5030  -32.6790    2.2480 C.ar  249  TYR249      0.0417
     88  CZ        30.0870  -33.9820    2.0820 C.ar  249  TYR249      0.1957
     89  OH        30.9560  -35.0140    2.3480 O.3   249  TYR249     -0.2866
     90  N         23.9310  -30.9570   -3.4550 N.3   252  CYS252     -0.1235
     91  CA        23.0050  -32.0090   -3.0440 C.3   252  CYS252      0.1677
     92  C         21.8250  -31.4550   -2.2520 C.2   252  CYS252      0.2270
     93  O         20.6950  -31.9240   -2.3980 O.2   252  CYS252     -0.2867
     94  CB        23.7290  -33.0810   -2.2260 C.3   252  CYS252      0.0956
     95  SG        24.9810  -34.0020   -3.1500 S.3   252  CYS252     -0.0801
     96  N         35.2260  -24.6960   -3.8920 N.3   296  GLY296     -0.1210
     97  CA        34.2070  -25.4630   -3.1970 C.3   296  GLY296      0.1956
     98  C         33.9550  -24.9780   -1.7820 C.2   296  GLY296      0.2611
     99  O         32.9100  -25.2630   -1.1920 O.2   296  GLY296     -0.2717
    100  N         34.9190  -24.2450   -1.2370 N.am  297  ARG297     -0.1979
    101  CA        34.8070  -23.6990    0.1130 C.3   297  ARG297      0.1597
    102  C         35.5020  -22.3490    0.2020 C.2   297  ARG297      0.2287
    103  O         36.4850  -22.1020   -0.4950 O.2   297  ARG297     -0.2864
    104  CB        35.4310  -24.6520    1.1370 C.3   297  ARG297      0.0334
    105  CG        34.4990  -25.7220    1.6730 C.3   297  ARG297      0.0492
    106  CD        35.1840  -26.5430    2.7570 C.3   297  ARG297      0.2205
    107  NE        36.1830  -27.4610    2.2160 N.pl3 297  ARG297     -0.0865
    108  CZ        37.0910  -28.0960    2.9520 C.cat 297  ARG297      0.5346
    109  NH1       37.1390  -27.9040    4.2630 N.pl3 297  ARG297      0.1354
    110  NH2       37.9580  -28.9180    2.3760 N.pl3 297  ARG297      0.1354
    111  N         39.4540  -21.6560   -0.0330 N.3   300  LYS300     -0.1231
    112  CA        40.0990  -22.8310   -0.6060 C.3   300  LYS300      0.1693
    113  C         40.3850  -22.5890   -2.0890 C.2   300  LYS300      0.2591
    114  O         40.1260  -21.5020   -2.6030 O.2   300  LYS300     -0.2718
    115  CB        39.2380  -24.0760   -0.3990 C.3   300  LYS300      0.0285
    116  CG        39.0920  -24.4780    1.0630 C.3   300  LYS300      0.0035
    117  CD        40.2490  -25.3490    1.5110 C.3   300  LYS300      0.0206
    118  CE        40.0990  -26.7640    0.9810 C.3   300  LYS300      0.1093
    119  NZ        41.3180  -27.5920    1.1980 N.3   300  LYS300     -0.1314
    120  N         40.9200  -23.5970   -2.7710 N.am  301  LEU301     -0.1980
    121  CA        41.3480  -23.4340   -4.1570 C.3   301  LEU301      0.1596
    122  C         40.2420  -23.7450   -5.1610 C.2   301  LEU301      0.2287
    123  O         39.3980  -24.6110   -4.9250 O.2   301  LEU301     -0.2864
    124  CB        42.5670  -24.3160   -4.4420 C.3   301  LEU301      0.0297
    125  CG        43.7850  -24.1250   -3.5370 C.3   301  LEU301      0.0022
    126  CD1       44.8730  -25.1340   -3.8850 C.3   301  LEU301      0.0001
    127  CD2       44.3120  -22.7020   -3.6370 C.3   301  LEU301      0.0001
    128  N         38.5310  -25.4310   -8.2890 N.3   303  ASP303     -0.1239
    129  CA        38.6010  -26.8120   -8.7630 C.3   303  ASP303      0.1674
    130  C         37.5710  -26.9570   -9.8750 C.2   303  ASP303      0.2266
    131  O         36.4000  -26.6100   -9.6950 O.2   303  ASP303     -0.2867
    132  CB        38.3000  -27.7850   -7.6120 C.3   303  ASP303      0.1410
    133  CG        38.4780  -29.2610   -7.9920 C.2   303  ASP303      0.3668
    134  OD1       38.1940  -29.6760   -9.1280 O.co2 303  ASP303     -0.2456
    135  OD2       38.8800  -30.0410   -7.1150 O.co2 303  ASP303     -0.2456
    136  N         33.9100  -28.2360   -9.2970 N.3   306  TYR306     -0.1241
    137  CA        32.8770  -27.4000   -8.6920 C.3   306  TYR306      0.1605
    138  C         32.1300  -26.5820   -9.7370 C.2   306  TYR306      0.2264
    139  O         31.1330  -25.9280   -9.4300 O.2   306  TYR306     -0.2867
    140  CB        33.4500  -26.4980   -7.5930 C.3   306  TYR306      0.0534
    141  CG        34.0570  -27.2760   -6.4480 C.ar  306  TYR306     -0.0201
    142  CD1       33.2790  -28.1260   -5.6730 C.ar  306  TYR306     -0.0009
    143  CD2       35.4060  -27.1660   -6.1460 C.ar  306  TYR306     -0.0009
    144  CE1       33.8310  -28.8450   -4.6300 C.ar  306  TYR306      0.0417
    145  CE2       35.9660  -27.8800   -5.1040 C.ar  306  TYR306      0.0417
    146  CZ        35.1750  -28.7190   -4.3510 C.ar  306  TYR306      0.1957
    147  OH        35.7290  -29.4360   -3.3120 O.3   306  TYR306     -0.2866
    148  N         29.1630  -28.7400   -9.3290 N.3   309  TRP309     -0.1241
    149  CA        28.5750  -28.7360   -7.9900 C.3   309  TRP309      0.1605
    150  C         28.0900  -27.3410   -7.5950 C.2   309  TRP309      0.2264
    151  O         26.9680  -27.1800   -7.1170 O.2   309  TRP309     -0.2867
    152  CB        29.5480  -29.2850   -6.9420 C.3   309  TRP309      0.0550
    153  CG        30.0580  -30.6660   -7.2440 C.ar  309  TRP309      0.0003
    154  CD1       31.3580  -31.0350   -7.4370 C.ar  309  TRP309      0.0946
    155  CD2       29.2760  -31.8590   -7.3950 C.ar  309  TRP309      0.0152
    156  NE1       31.4360  -32.3830   -7.6930 N.ar  309  TRP309     -0.2442
    157  CE2       30.1730  -32.9120   -7.6730 C.ar  309  TRP309      0.0810
    158  CE3       27.9080  -32.1390   -7.3210 C.ar  309  TRP309      0.0012
    159  CZ2       29.7440  -34.2230   -7.8810 C.ar  309  TRP309      0.0191
    160  CZ3       27.4830  -33.4430   -7.5270 C.ar  309  TRP309      0.0001
    161  CH2       28.3990  -34.4690   -7.8040 C.ar  309  TRP309      0.0015
    162  N         36.2770  -38.4050  -13.3860 N.3   368  TYR368     -0.1241
    163  CA        35.4350  -37.5920  -12.5160 C.3   368  TYR368      0.1605
    164  C         35.4710  -36.1080  -12.8800 C.2   368  TYR368      0.2264
    165  O         34.4240  -35.4710  -13.0030 O.2   368  TYR368     -0.2867
    166  CB        35.8250  -37.8010  -11.0460 C.3   368  TYR368      0.0534
    167  CG        35.3020  -36.7330  -10.1060 C.ar  368  TYR368     -0.0201
    168  CD1       33.9940  -36.7710   -9.6370 C.ar  368  TYR368     -0.0009
    169  CD2       36.1200  -35.6890   -9.6830 C.ar  368  TYR368     -0.0009
    170  CE1       33.5150  -35.8000   -8.7790 C.ar  368  TYR368      0.0417
    171  CE2       35.6470  -34.7120   -8.8230 C.ar  368  TYR368      0.0417
    172  CZ        34.3430  -34.7730   -8.3750 C.ar  368  TYR368      0.1957
    173  OH        33.8590  -33.8080   -7.5200 O.3   368  TYR368     -0.2866
@<TRIPOS>BOND
     1   162   163    1
     2     4     3    2
     3   165   164    2
     4   164   163    1
     5   163   166    1
     6     3     2    1
     7    34    33    1
     8     2     1    1
     9     2     5    1
    10   166   167    1
    11    26    25    2
    12    33    32   ar
    13    33    31   ar
    14   167   169   ar
    15   167   168   ar
    16    32    30   ar
    17     5     6    1
    18   130   131    2
    19   130   129    1
    20    11    13   ar
    21    11     8   ar
    22   138   139    2
    23   138   137    1
    24    25    24    1
    25    31    29   ar
    26   169   171   ar
    27   168   170   ar
    28    13    14   ar
    29   148   149    1
    30   136   137    1
    31    30    28   ar
    32   134   133   ar
    33    57    56    1
    34    29    28   ar
    35     8     6   ar
    36     8    10   ar
    37   171   172   ar
    38     6     7   ar
    39   170   172   ar
    40   129   128    1
    41   129   132    1
    42   137   140    1
    43    28    27    1
    44    24    27    1
    45    24    23    1
    46   172   173    1
    47    14    12   ar
    48   133   132    1
    49   133   135   ar
    50   149   150    1
    51   149   152    1
    52   159   161   ar
    53   159   157   ar
    54   161   160   ar
    55    56    54   ar
    56    56    55   ar
    57   156   157   ar
    58   156   154   ar
    59   157   155   ar
    60   150   151    2
    61   140   141    1
    62    10    12   ar
    63    10     9   ar
    64     7     9   ar
    65   160   158   ar
    66   154   153   ar
    67   155   158   ar
    68   155   153   ar
    69   153   152    1
    70    54    52   ar
    71    55    53   ar
    72    18    17    2
    73   141   143   ar
    74   141   142   ar
    75   143   145   ar
    76    17    16    1
    77   142   144   ar
    78    52    51   ar
    79    53    51   ar
    80    61    60    2
    81   122   123    2
    82   122   121    1
    83   145   146   ar
    84    51    50    1
    85    63    62    1
    86    49    48    2
    87    59    60    1
    88    59    62    1
    89    59    58    1
    90   144   146   ar
    91    16    19    1
    92    16    15    1
    93   124   121    1
    94   124   125    1
    95   146   147    1
    96   121   120    1
    97    48    58   am
    98    48    47    1
    99    19    20    1
   100    96    97    1
   101   126   125    1
   102   127   125    1
   103    90    91    1
   104    50    47    1
   105    97    98    1
   106    20    22    1
   107    20    21    1
   108    95    94    1
   109    75    74    1
   110    75    76    1
   111    91    92    1
   112    91    94    1
   113    47    46    1
   114    77    76    2
   115   120   113   am
   116   114   113    2
   117    93    92    2
   118    76    78   am
   119   113   112    1
   120    38    37    2
   121    98   100   am
   122    98    99    2
   123   100   101    1
   124    78    79    1
   125    72    70   ar
   126    72    73   ar
   127    37    36    1
   128    36    39    1
   129    36    35    1
   130   112   115    1
   131   112   111    1
   132    67    66    2
   133    40    39    1
   134    40    41    1
   135    66    65    1
   136   103   102    2
   137    70    69   ar
   138    73    71   ar
   139    80    79    1
   140    80    81    2
   141   115   116    1
   142    41    42    1
   143    79    82    1
   144    44    43    1
   145   101   102    1
   146   101   104    1
   147    69    71   ar
   148    69    68    1
   149    65    68    1
   150    65    64    1
   151    42    43    2
   152    43    45    1
   153   118   119    1
   154   118   117    1
   155   116   117    1
   156   104   105    1
   157    82    83    1
   158    84    83   ar
   159    84    86   ar
   160    83    85   ar
   161    86    88   ar
   162   105   106    1
   163    85    87   ar
   164    88    87   ar
   165    88    89    1
   166   107   106    1
   167   107   108    2
   168   110   108    1
   169   108   109    1
