@<TRIPOS>MOLECULE
tmp/3q79B00.pdb
 194 190 0 0 0
SMALL
GASTEIGER

@<TRIPOS>ATOM
      1  N         38.3990  -46.7130   -6.5280 N.3    78  LEU78      -0.1245
      2  CA        37.0370  -46.3810   -6.9180 C.3    78  LEU78       0.1561
      3  C         36.2910  -47.6550   -7.2940 C.2    78  LEU78       0.2260
      4  O         35.3120  -47.6220   -8.0390 O.2    78  LEU78      -0.2867
      5  CB        37.0380  -45.3950   -8.0890 C.3    78  LEU78       0.0270
      6  CG        37.6670  -44.0230   -7.8210 C.3    78  LEU78       0.0019
      7  CD1       37.9940  -43.3120   -9.1270 C.3    78  LEU78       0.0001
      8  CD2       36.7620  -43.1640   -6.9480 C.3    78  LEU78       0.0001
      9  N         34.4720  -49.1590   -5.5030 N.3    80  ALA80      -0.1231
     10  CA        33.1700  -49.0550   -4.8590 C.3    80  ALA80       0.1694
     11  C         32.3290  -47.9430   -5.4820 C.2    80  ALA80       0.2592
     12  O         31.2390  -47.6350   -4.9970 O.2    80  ALA80      -0.2718
     13  CB        33.3390  -48.8210   -3.3670 C.3    80  ALA80       0.0304
     14  N         32.8390  -47.3490   -6.5570 N.am   81  SER81      -0.1952
     15  CA        32.1610  -46.2390   -7.2210 C.3    81  SER81       0.1924
     16  C         32.0820  -46.4250   -8.7360 C.2    81  SER81       0.2314
     17  O         32.0730  -45.4470   -9.4850 O.2    81  SER81      -0.2863
     18  CB        32.8670  -44.9170   -6.9080 C.3    81  SER81       0.2116
     19  OG        32.6910  -44.5370   -5.5580 O.3    81  SER81      -0.2180
     20  N         29.6170  -44.5310  -10.7540 N.3    84  TRP84      -0.1241
     21  CA        30.0080  -43.1440  -10.9770 C.3    84  TRP84       0.1605
     22  C         30.9270  -43.0430  -12.1910 C.2    84  TRP84       0.2264
     23  O         30.8350  -42.0990  -12.9720 O.2    84  TRP84      -0.2867
     24  CB        30.6990  -42.5540   -9.7460 C.3    84  TRP84       0.0550
     25  CG        29.7600  -42.2000   -8.6400 C.ar   84  TRP84       0.0003
     26  CD1       29.6340  -42.8320   -7.4390 C.ar   84  TRP84       0.0946
     27  CD2       28.8090  -41.1290   -8.6320 C.ar   84  TRP84       0.0152
     28  NE1       28.6650  -42.2210   -6.6820 N.ar   84  TRP84      -0.2442
     29  CE2       28.1410  -41.1740   -7.3910 C.ar   84  TRP84       0.0810
     30  CE3       28.4570  -40.1370   -9.5530 C.ar   84  TRP84       0.0012
     31  CZ2       27.1390  -40.2660   -7.0460 C.ar   84  TRP84       0.0191
     32  CZ3       27.4620  -39.2360   -9.2090 C.ar   84  TRP84       0.0001
     33  CH2       26.8140  -39.3080   -7.9660 C.ar   84  TRP84       0.0015
     34  N         29.8490  -40.6240  -15.1490 N.3    88  TRP88      -0.1241
     35  CA        30.7480  -39.5700  -15.5940 C.3    88  TRP88       0.1605
     36  C         31.0460  -39.7210  -17.0840 C.2    88  TRP88       0.2264
     37  O         31.1660  -38.7330  -17.8050 O.2    88  TRP88      -0.2867
     38  CB        32.0380  -39.5910  -14.7690 C.3    88  TRP88       0.0550
     39  CG        31.8240  -39.2010  -13.3310 C.ar   88  TRP88       0.0003
     40  CD1       30.8630  -38.3630  -12.8450 C.ar   88  TRP88       0.0946
     41  CD2       32.5760  -39.6470  -12.1950 C.ar   88  TRP88       0.0152
     42  NE1       30.9750  -38.2520  -11.4820 N.ar   88  TRP88      -0.2442
     43  CE2       32.0180  -39.0310  -11.0570 C.ar   88  TRP88       0.0810
     44  CE3       33.6690  -40.5030  -12.0290 C.ar   88  TRP88       0.0012
     45  CZ2       32.5160  -39.2430   -9.7710 C.ar   88  TRP88       0.0191
     46  CZ3       34.1610  -40.7130  -10.7540 C.ar   88  TRP88       0.0001
     47  CH2       33.5840  -40.0860   -9.6410 C.ar   88  TRP88       0.0015
     48  N         23.6240  -48.7510   -1.9710 N.3   133  HIS133     -0.1241
     49  CA        24.0860  -47.4650   -1.4740 C.3   133  HIS133      0.1621
     50  C         23.3820  -46.3720   -2.2720 C.2   133  HIS133      0.2264
     51  O         23.2350  -46.4830   -3.4860 O.2   133  HIS133     -0.2867
     52  CB        25.6060  -47.3720   -1.6220 C.3   133  HIS133      0.0745
     53  CG        26.2110  -46.1510   -0.9980 C.ar  133  HIS133      0.0817
     54  ND1       27.2390  -46.2200   -0.0810 N.ar  133  HIS133     -0.2268
     55  CD2       25.9540  -44.8340   -1.1760 C.ar  133  HIS133      0.1154
     56  CE1       27.5790  -44.9970    0.2880 C.ar  133  HIS133      0.1986
     57  NE2       26.8180  -44.1380   -0.3650 N.ar  133  HIS133     -0.2212
     58  N         24.2050  -43.4910   -3.2710 N.3   135  LEU135     -0.1231
     59  CA        24.9700  -42.7960   -4.3010 C.3   135  LEU135      0.1678
     60  C         25.1110  -43.6160   -5.5870 C.2   135  LEU135      0.2434
     61  O         24.7350  -43.1470   -6.6610 O.2   135  LEU135     -0.2733
     62  CB        26.3240  -42.3120   -3.7680 C.3   135  LEU135      0.0284
     63  CG        26.2680  -40.9590   -3.0440 C.3   135  LEU135      0.0019
     64  CD1       25.3320  -41.0090   -1.8410 C.3   135  LEU135      0.0001
     65  CD2       27.6520  -40.4960   -2.6270 C.3   135  LEU135      0.0001
     66  N         25.6400  -44.8460   -5.4860 N.am  136  PRO136     -0.2729
     67  CA        25.6510  -45.7100   -6.6690 C.3   136  PRO136      0.1401
     68  C         24.2470  -45.8920   -7.2450 C.2   136  PRO136      0.2269
     69  O         24.1020  -46.0510   -8.4580 O.2   136  PRO136     -0.2865
     70  CB        26.1790  -47.0360   -6.1220 C.3   136  PRO136      0.0296
     71  CG        27.0390  -46.6390   -4.9770 C.3   136  PRO136      0.0237
     72  CD        26.3430  -45.4650   -4.3490 C.3   136  PRO136      0.0939
     73  N         27.0090  -43.3000    6.7270 N.3   187  GLU187     -0.1245
     74  CA        26.9510  -41.9190    7.1960 C.3   187  GLU187      0.1567
     75  C         25.6890  -41.2020    6.7180 C.2   187  GLU187      0.2260
     76  O         24.9920  -41.6780    5.8150 O.2   187  GLU187     -0.2867
     77  CB        28.2130  -41.1420    6.7940 C.3   187  GLU187      0.0388
     78  CG        28.3830  -40.9020    5.2980 C.3   187  GLU187      0.1160
     79  CD        28.9940  -42.0850    4.5680 C.2   187  GLU187      0.3649
     80  OE1       29.1560  -43.1570    5.1880 O.co2 187  GLU187     -0.2457
     81  OE2       29.3200  -41.9380    3.3700 O.co2 187  GLU187     -0.2457
     82  N         23.9270  -35.5250    0.7200 N.3   191  ARG191     -0.1245
     83  CA        24.2510  -36.3230   -0.4620 C.3   191  ARG191      0.1563
     84  C         23.2270  -37.4430   -0.6090 C.2   191  ARG191      0.2260
     85  O         22.6830  -37.6640   -1.6900 O.2   191  ARG191     -0.2867
     86  CB        25.6510  -36.9330   -0.3690 C.3   191  ARG191      0.0307
     87  CG        26.8110  -35.9780   -0.6010 C.3   191  ARG191      0.0489
     88  CD        28.1240  -36.7040   -0.3520 C.3   191  ARG191      0.2205
     89  NE        28.0590  -37.4720    0.8920 N.pl3 191  ARG191     -0.0865
     90  CZ        28.6120  -38.6680    1.0750 C.cat 191  ARG191      0.5346
     91  NH1       29.2890  -39.2490    0.0950 N.pl3 191  ARG191      0.1354
     92  NH2       28.4870  -39.2850    2.2420 N.pl3 191  ARG191      0.1354
     93  N         38.0010  -24.6110   -8.1370 N.3   305  ASP305     -0.1239
     94  CA        38.0760  -25.9960   -8.5930 C.3   305  ASP305      0.1674
     95  C         37.0650  -26.1680   -9.7210 C.2   305  ASP305      0.2266
     96  O         35.9020  -25.7750   -9.5890 O.2   305  ASP305     -0.2867
     97  CB        37.7530  -26.9420   -7.4310 C.3   305  ASP305      0.1410
     98  CG        37.9260  -28.4210   -7.7840 C.2   305  ASP305      0.3668
     99  OD1       37.6220  -28.8470   -8.9130 O.co2 305  ASP305     -0.2456
    100  OD2       38.3480  -29.1860   -6.9010 O.co2 305  ASP305     -0.2456
    101  N         35.4580  -28.6560  -10.7680 N.3   307  CYS307     -0.1221
    102  CA        34.2980  -29.4900  -10.4600 C.3   307  CYS307      0.1808
    103  C         33.1650  -28.6940   -9.8160 C.2   307  CYS307      0.2601
    104  O         32.0100  -29.1140   -9.8490 O.2   307  CYS307     -0.2717
    105  CB        34.6800  -30.7030   -9.5960 C.3   307  CYS307      0.0970
    106  SG        35.1690  -30.3550   -7.8780 S.3   307  CYS307     -0.0800
    107  N         33.4940  -27.5410   -9.2430 N.am  308  TYR308     -0.1976
    108  CA        32.4860  -26.7040   -8.6000 C.3   308  TYR308      0.1639
    109  C         31.6740  -25.8860   -9.6010 C.2   308  TYR308      0.2290
    110  O         30.6700  -25.2680   -9.2420 O.2   308  TYR308     -0.2864
    111  CB        33.1140  -25.8000   -7.5350 C.3   308  TYR308      0.0560
    112  CG        33.5450  -26.5540   -6.3010 C.ar  308  TYR308     -0.0198
    113  CD1       32.6160  -27.2270   -5.5210 C.ar  308  TYR308     -0.0009
    114  CD2       34.8780  -26.5950   -5.9150 C.ar  308  TYR308     -0.0009
    115  CE1       33.0010  -27.9220   -4.3920 C.ar  308  TYR308      0.0417
    116  CE2       35.2730  -27.2880   -4.7850 C.ar  308  TYR308      0.0417
    117  CZ        34.3290  -27.9500   -4.0290 C.ar  308  TYR308      0.1957
    118  OH        34.7100  -28.6420   -2.9020 O.3   308  TYR308     -0.2866
    119  N         28.6170  -27.9980   -9.1150 N.3   311  TRP311     -0.1241
    120  CA        28.0570  -27.9560   -7.7600 C.3   311  TRP311      0.1605
    121  C         27.5600  -26.5640   -7.3780 C.2   311  TRP311      0.2264
    122  O         26.4890  -26.4210   -6.7890 O.2   311  TRP311     -0.2867
    123  CB        29.0590  -28.4660   -6.7150 C.3   311  TRP311      0.0550
    124  CG        29.5240  -29.8650   -6.9660 C.ar  311  TRP311      0.0003
    125  CD1       30.8130  -30.2870   -7.1040 C.ar  311  TRP311      0.0946
    126  CD2       28.7020  -31.0280   -7.1340 C.ar  311  TRP311      0.0152
    127  NE1       30.8460  -31.6400   -7.3390 N.ar  311  TRP311     -0.2442
    128  CE2       29.5630  -32.1190   -7.3630 C.ar  311  TRP311      0.0810
    129  CE3       27.3210  -31.2530   -7.1110 C.ar  311  TRP311      0.0012
    130  CZ2       29.0910  -33.4150   -7.5650 C.ar  311  TRP311      0.0191
    131  CZ3       26.8540  -32.5410   -7.3130 C.ar  311  TRP311      0.0001
    132  CH2       27.7370  -33.6050   -7.5370 C.ar  311  TRP311      0.0015
    133  N         40.6290  -30.3580  -12.2610 N.3   361  ASP361     -0.1239
    134  CA        40.4410  -29.4520  -11.1350 C.3   361  ASP361      0.1674
    135  C         40.9330  -28.0590  -11.5070 C.2   361  ASP361      0.2266
    136  O         40.1500  -27.1180  -11.6350 O.2   361  ASP361     -0.2867
    137  CB        41.2230  -29.9890   -9.9310 C.3   361  ASP361      0.1410
    138  CG        41.2120  -29.0470   -8.7400 C.2   361  ASP361      0.3668
    139  OD1       41.0770  -27.8210   -8.9280 O.co2 361  ASP361     -0.2456
    140  OD2       41.3560  -29.5420   -7.6030 O.co2 361  ASP361     -0.2456
    141  N         47.8640  -27.8140  -13.1450 N.3   364  GLY364     -0.1210
    142  CA        48.7280  -28.4790  -12.1870 C.3   364  GLY364      0.1956
    143  C         48.1500  -29.7780  -11.6530 C.2   364  GLY364      0.2612
    144  O         48.7880  -30.4650  -10.8550 O.2   364  GLY364     -0.2717
    145  N         46.9420  -30.1210  -12.0870 N.am  365  LYS365     -0.1965
    146  CA        46.3070  -31.3620  -11.6550 C.3   365  LYS365      0.1728
    147  C         46.0130  -32.2620  -12.8520 C.2   365  LYS365      0.2616
    148  O         45.7520  -31.7780  -13.9510 O.2   365  LYS365     -0.2715
    149  CB        45.0140  -31.0740  -10.8840 C.3   365  LYS365      0.0311
    150  CG        45.1150  -29.9100   -9.9070 C.3   365  LYS365      0.0038
    151  CD        46.2480  -30.1060   -8.9110 C.3   365  LYS365      0.0206
    152  CE        45.8430  -31.0150   -7.7650 C.3   365  LYS365      0.1093
    153  NZ        44.8750  -30.3410   -6.8550 N.3   365  LYS365     -0.1314
    154  N         46.0650  -33.5730  -12.6330 N.am  366  ARG366     -0.1977
    155  CA        45.7270  -34.5360  -13.6710 C.3   366  ARG366      0.1597
    156  C         44.2270  -34.5310  -13.9250 C.2   366  ARG366      0.2287
    157  O         43.4360  -34.4120  -12.9890 O.2   366  ARG366     -0.2864
    158  CB        46.1600  -35.9460  -13.2670 C.3   366  ARG366      0.0334
    159  CG        47.6600  -36.1750  -13.2220 C.3   366  ARG366      0.0492
    160  CD        47.9580  -37.6280  -12.8770 C.3   366  ARG366      0.2205
    161  NE        49.3790  -37.9500  -12.9640 N.pl3 366  ARG366     -0.0865
    162  CZ        49.8660  -39.1870  -12.9200 C.cat 366  ARG366      0.5346
    163  NH1       49.0440  -40.2200  -12.7920 N.pl3 366  ARG366      0.1354
    164  NH2       51.1730  -39.3930  -13.0070 N.pl3 366  ARG366      0.1354
    165  N         40.5380  -36.1340  -14.7770 N.3   368  ASP368     -0.1239
    166  CA        39.8780  -37.3870  -14.4230 C.3   368  ASP368      0.1674
    167  C         38.4200  -37.3750  -14.8690 C.2   368  ASP368      0.2266
    168  O         37.8910  -36.3270  -15.2430 O.2   368  ASP368     -0.2867
    169  CB        40.0130  -37.7020  -12.9220 C.3   368  ASP368      0.1410
    170  CG        39.5830  -36.5460  -12.0260 C.2   368  ASP368      0.3668
    171  OD1       38.4630  -36.0170  -12.2020 O.co2 368  ASP368     -0.2456
    172  OD2       40.3720  -36.1700  -11.1340 O.co2 368  ASP368     -0.2456
    173  N         35.6540  -37.6340  -13.2130 N.3   370  TYR370     -0.1227
    174  CA        34.8220  -36.7990  -12.3600 C.3   370  TYR370      0.1736
    175  C         34.8500  -35.3220  -12.7620 C.2   370  TYR370      0.2595
    176  O         33.8010  -34.7010  -12.9590 O.2   370  TYR370     -0.2718
    177  CB        35.2450  -36.9700  -10.9000 C.3   370  TYR370      0.0548
    178  CG        34.7270  -35.8930   -9.9820 C.ar  370  TYR370     -0.0200
    179  CD1       33.4110  -35.9030   -9.5390 C.ar  370  TYR370     -0.0009
    180  CD2       35.5550  -34.8630   -9.5550 C.ar  370  TYR370     -0.0009
    181  CE1       32.9350  -34.9180   -8.6940 C.ar  370  TYR370      0.0417
    182  CE2       35.0880  -33.8750   -8.7100 C.ar  370  TYR370      0.0417
    183  CZ        33.7780  -33.9080   -8.2830 C.ar  370  TYR370      0.1957
    184  OH        33.3110  -32.9240   -7.4460 O.3   370  TYR370     -0.2866
    185  N         36.0490  -34.7630  -12.8790 N.am  371  HIS371     -0.1975
    186  CA        36.1950  -33.3580  -13.2420 C.3   371  HIS371      0.1656
    187  C         35.8230  -33.1200  -14.7020 C.2   371  HIS371      0.2291
    188  O         35.3640  -32.0370  -15.0700 O.2   371  HIS371     -0.2864
    189  CB        37.6120  -32.8620  -12.9450 C.3   371  HIS371      0.0771
    190  CG        37.8670  -32.6080  -11.4920 C.ar  371  HIS371      0.0820
    191  ND1       38.2750  -33.5950  -10.6220 N.ar  371  HIS371     -0.2267
    192  CD2       37.7570  -31.4770  -10.7510 C.ar  371  HIS371      0.1154
    193  CE1       38.4130  -33.0840   -9.4100 C.ar  371  HIS371      0.1986
    194  NE2       38.1050  -31.8000   -9.4640 N.ar  371  HIS371     -0.2212
@<TRIPOS>BOND
     1    37    36    2
     2    36    35    1
     3    35    34    1
     4    35    38    1
     5   168   167    2
     6   188   187    2
     7   167   166    1
     8   165   166    1
     9    38    39    1
    10   187   186    1
    11   166   169    1
    12   148   147    2
    13   156   155    1
    14   156   157    2
    15   155   158    1
    16   155   154    1
    17    39    40   ar
    18    39    41   ar
    19   158   159    1
    20   186   189    1
    21   186   185    1
    22   159   160    1
    23   173   174    1
    24   141   142    1
    25   164   162    1
    26    23    22    2
    27   161   162    2
    28   161   160    1
    29   176   175    2
    30   189   190    1
    31   169   170    1
    32   162   163    1
    33   185   175   am
    34   147   154   am
    35   147   146    1
    36    40    42   ar
    37   175   174    1
    38   174   177    1
    39   133   134    1
    40   171   170   ar
    41    41    44   ar
    42    41    43   ar
    43    22    21    1
    44   142   143    1
    45   145   146    1
    46   145   143   am
    47    44    46   ar
    48   170   172   ar
    49   146   149    1
    50   143   144    2
    51   136   135    2
    52   135   134    1
    53   190   192   ar
    54   190   191   ar
    55    42    43   ar
    56   134   137    1
    57    43    45   ar
    58    21    20    1
    59    21    24    1
    60   177   178    1
    61   149   150    1
    62   101   102    1
    63    46    47   ar
    64   192   194   ar
    65   191   193   ar
    66   102   103    1
    67   102   105    1
    68   178   180   ar
    69   178   179   ar
    70   137   138    1
    71   150   151    1
    72   104   103    2
    73   103   107   am
    74    45    47   ar
    75    24    25    1
    76    95    96    2
    77    95    94    1
    78   109   110    2
    79   109   108    1
    80   105   106    1
    81   180   182   ar
    82    30    32   ar
    83    30    27   ar
    84   179   181   ar
    85    17    16    2
    86   194   193   ar
    87   107   108    1
    88    32    33   ar
    89     7     6    1
    90   119   120    1
    91   139   138   ar
    92    99    98   ar
    93   151   152    1
    94   138   140   ar
    95    16    15    1
    96   182   183   ar
    97   181   183   ar
    98    25    27   ar
    99    25    26   ar
   100    27    29   ar
   101   108   111    1
   102    94    93    1
   103    94    97    1
   104    69    68    2
   105   183   184    1
   106     5     6    1
   107     5     2    1
   108     4     3    2
   109    33    31   ar
   110     6     8    1
   111    98    97    1
   112    98   100   ar
   113   152   153    1
   114   120   121    1
   115   120   123    1
   116   130   132   ar
   117   130   128   ar
   118   132   131   ar
   119   111   112    1
   120    26    28   ar
   121    29    31   ar
   122    29    28   ar
   123   121   122    2
   124   128   127   ar
   125   128   126   ar
   126   127   125   ar
   127   131   129   ar
   128     3     2    1
   129    68    67    1
   130    15    18    1
   131    15    14    1
   132   126   129   ar
   133   126   124   ar
   134   125   124   ar
   135   124   123    1
   136     2     1    1
   137    18    19    1
   138    67    70    1
   139    67    66    1
   140    61    60    2
   141    14    11   am
   142   112   114   ar
   143   112   113   ar
   144    70    71    1
   145   114   116   ar
   146    60    66   am
   147    60    59    1
   148   113   115   ar
   149     9    10    1
   150    66    72    1
   151    11    12    2
   152    11    10    1
   153    71    72    1
   154    10    13    1
   155   116   117   ar
   156   115   117   ar
   157    59    62    1
   158    59    58    1
   159   117   118    1
   160    62    63    1
   161    51    50    2
   162    63    65    1
   163    63    64    1
   164    50    49    1
   165    48    49    1
   166    85    84    2
   167    52    49    1
   168    52    53    1
   169    55    53   ar
   170    55    57   ar
   171    53    54   ar
   172    84    83    1
   173    87    86    1
   174    87    88    1
   175    83    86    1
   176    83    82    1
   177    57    56   ar
   178    88    89    1
   179    54    56   ar
   180    91    90    1
   181    89    90    2
   182    90    92    1
   183    81    79   ar
   184    79    80   ar
   185    79    78    1
   186    78    77    1
   187    76    75    2
   188    75    74    1
   189    73    74    1
   190    77    74    1
