@<TRIPOS>MOLECULE
tmp/3q79B01.pdb
 165 163 0 0 0
SMALL
GASTEIGER

@<TRIPOS>ATOM
      1  N         29.6170  -44.5310  -10.7540 N.3    84  TRP84      -0.1241
      2  CA        30.0080  -43.1440  -10.9770 C.3    84  TRP84       0.1605
      3  C         30.9270  -43.0430  -12.1910 C.2    84  TRP84       0.2264
      4  O         30.8350  -42.0990  -12.9720 O.2    84  TRP84      -0.2867
      5  CB        30.6990  -42.5540   -9.7460 C.3    84  TRP84       0.0550
      6  CG        29.7600  -42.2000   -8.6400 C.ar   84  TRP84       0.0003
      7  CD1       29.6340  -42.8320   -7.4390 C.ar   84  TRP84       0.0946
      8  CD2       28.8090  -41.1290   -8.6320 C.ar   84  TRP84       0.0152
      9  NE1       28.6650  -42.2210   -6.6820 N.ar   84  TRP84      -0.2442
     10  CE2       28.1410  -41.1740   -7.3910 C.ar   84  TRP84       0.0810
     11  CE3       28.4570  -40.1370   -9.5530 C.ar   84  TRP84       0.0012
     12  CZ2       27.1390  -40.2660   -7.0460 C.ar   84  TRP84       0.0191
     13  CZ3       27.4620  -39.2360   -9.2090 C.ar   84  TRP84       0.0001
     14  CH2       26.8140  -39.3080   -7.9660 C.ar   84  TRP84       0.0015
     15  N         24.2050  -43.4910   -3.2710 N.3   135  LEU135     -0.1245
     16  CA        24.9700  -42.7960   -4.3010 C.3   135  LEU135      0.1561
     17  C         25.1110  -43.6160   -5.5870 C.2   135  LEU135      0.2260
     18  O         24.7350  -43.1470   -6.6610 O.2   135  LEU135     -0.2867
     19  CB        26.3240  -42.3120   -3.7680 C.3   135  LEU135      0.0270
     20  CG        26.2680  -40.9590   -3.0440 C.3   135  LEU135      0.0019
     21  CD1       25.3320  -41.0090   -1.8410 C.3   135  LEU135      0.0001
     22  CD2       27.6520  -40.4960   -2.6270 C.3   135  LEU135      0.0001
     23  N         21.7770  -43.6060   -7.3450 N.3   138  TYR138     -0.1241
     24  CA        21.5450  -42.4330   -8.1800 C.3   138  TYR138      0.1605
     25  C         22.3480  -42.5170   -9.4820 C.2   138  TYR138      0.2264
     26  O         21.8070  -42.3280  -10.5700 O.2   138  TYR138     -0.2867
     27  CB        21.8980  -41.1480   -7.4210 C.3   138  TYR138      0.0534
     28  CG        22.1300  -39.9520   -8.3210 C.ar  138  TYR138     -0.0201
     29  CD1       21.0730  -39.1460   -8.7290 C.ar  138  TYR138     -0.0009
     30  CD2       23.4070  -39.6330   -8.7670 C.ar  138  TYR138     -0.0009
     31  CE1       21.2830  -38.0530   -9.5580 C.ar  138  TYR138      0.0417
     32  CE2       23.6270  -38.5460   -9.5970 C.ar  138  TYR138      0.0417
     33  CZ        22.5640  -37.7590   -9.9890 C.ar  138  TYR138      0.1957
     34  OH        22.7860  -36.6780  -10.8140 O.3   138  TYR138     -0.2866
     35  N         23.9270  -35.5250    0.7200 N.3   191  ARG191     -0.1245
     36  CA        24.2510  -36.3230   -0.4620 C.3   191  ARG191      0.1563
     37  C         23.2270  -37.4430   -0.6090 C.2   191  ARG191      0.2260
     38  O         22.6830  -37.6640   -1.6900 O.2   191  ARG191     -0.2867
     39  CB        25.6510  -36.9330   -0.3690 C.3   191  ARG191      0.0307
     40  CG        26.8110  -35.9780   -0.6010 C.3   191  ARG191      0.0489
     41  CD        28.1240  -36.7040   -0.3520 C.3   191  ARG191      0.2205
     42  NE        28.0590  -37.4720    0.8920 N.pl3 191  ARG191     -0.0865
     43  CZ        28.6120  -38.6680    1.0750 C.cat 191  ARG191      0.5346
     44  NH1       29.2890  -39.2490    0.0950 N.pl3 191  ARG191      0.1354
     45  NH2       28.4870  -39.2850    2.2420 N.pl3 191  ARG191      0.1354
     46  N         19.7170  -36.0460   -1.4310 N.3   194  TYR194     -0.1227
     47  CA        19.6630  -35.6640   -2.8310 C.3   194  TYR194      0.1736
     48  C         19.4750  -36.8800   -3.7260 C.2   194  TYR194      0.2595
     49  O         18.5320  -36.9380   -4.5170 O.2   194  TYR194     -0.2718
     50  CB        20.9280  -34.9070   -3.2420 C.3   194  TYR194      0.0548
     51  CG        21.0710  -34.7870   -4.7390 C.ar  194  TYR194     -0.0200
     52  CD1       20.3380  -33.8480   -5.4540 C.ar  194  TYR194     -0.0009
     53  CD2       21.9230  -35.6290   -5.4430 C.ar  194  TYR194     -0.0009
     54  CE1       20.4580  -33.7460   -6.8260 C.ar  194  TYR194      0.0417
     55  CE2       22.0510  -35.5340   -6.8150 C.ar  194  TYR194      0.0417
     56  CZ        21.3170  -34.5930   -7.5010 C.ar  194  TYR194      0.1957
     57  OH        21.4440  -34.4960   -8.8660 O.3   194  TYR194     -0.2866
     58  N         20.3730  -37.8500   -3.5930 N.am  195  CYS195     -0.1970
     59  CA        20.3610  -39.0250   -4.4580 C.3   195  CYS195      0.1712
     60  C         19.0610  -39.8040   -4.3330 C.2   195  CYS195      0.2296
     61  O         18.5620  -40.3550   -5.3140 O.2   195  CYS195     -0.2864
     62  CB        21.5580  -39.9310   -4.1560 C.3   195  CYS195      0.0983
     63  SG        23.1520  -39.1860   -4.5750 S.3   195  CYS195     -0.0798
     64  N         29.0980  -25.4900    1.8890 N.3   248  HIS248     -0.1241
     65  CA        29.9500  -26.2110    0.9490 C.3   248  HIS248      0.1621
     66  C         29.2960  -26.3220   -0.4340 C.2   248  HIS248      0.2264
     67  O         28.0950  -26.5670   -0.5420 O.2   248  HIS248     -0.2867
     68  CB        30.2510  -27.5990    1.5150 C.3   248  HIS248      0.0745
     69  CG        31.1410  -28.4330    0.6510 C.ar  248  HIS248      0.0817
     70  ND1       32.4740  -28.6310    0.9300 N.ar  248  HIS248     -0.2268
     71  CD2       30.8830  -29.1360   -0.4800 C.ar  248  HIS248      0.1154
     72  CE1       33.0040  -29.4150    0.0060 C.ar  248  HIS248      0.1986
     73  NE2       32.0590  -29.7340   -0.8590 N.ar  248  HIS248     -0.2212
     74  N         29.3370  -28.5750   -2.8650 N.3   250  GLY250     -0.1210
     75  CA        28.6720  -29.8320   -3.1500 C.3   250  GLY250      0.1956
     76  C         27.4140  -30.0170   -2.3260 C.2   250  GLY250      0.2611
     77  O         26.3540  -30.3520   -2.8540 O.2   250  GLY250     -0.2717
     78  N         27.5320  -29.7920   -1.0240 N.am  251  TYR251     -0.1976
     79  CA        26.4070  -29.9740   -0.1150 C.3   251  TYR251      0.1639
     80  C         25.3290  -28.9140   -0.3350 C.2   251  TYR251      0.2290
     81  O         24.1460  -29.1570   -0.0900 O.2   251  TYR251     -0.2864
     82  CB        26.8970  -29.9810    1.3340 C.3   251  TYR251      0.0560
     83  CG        27.8580  -31.1150    1.6270 C.ar  251  TYR251     -0.0198
     84  CD1       27.5260  -32.4260    1.3150 C.ar  251  TYR251     -0.0009
     85  CD2       29.1050  -30.8710    2.1890 C.ar  251  TYR251     -0.0009
     86  CE1       28.3990  -33.4670    1.5690 C.ar  251  TYR251      0.0417
     87  CE2       29.9860  -31.9060    2.4470 C.ar  251  TYR251      0.0417
     88  CZ        29.6270  -33.2010    2.1350 C.ar  251  TYR251      0.1957
     89  OH        30.4950  -34.2350    2.3890 O.3   251  TYR251     -0.2866
     90  N         23.4030  -30.2400   -3.3050 N.3   254  CYS254     -0.1235
     91  CA        22.5120  -31.2930   -2.8260 C.3   254  CYS254      0.1677
     92  C         21.3370  -30.7280   -2.0330 C.2   254  CYS254      0.2270
     93  O         20.2140  -31.2210   -2.1420 O.2   254  CYS254     -0.2867
     94  CB        23.2760  -32.3000   -1.9640 C.3   254  CYS254      0.0956
     95  SG        24.4600  -33.3060   -2.8720 S.3   254  CYS254     -0.0801
     96  N         38.0010  -24.6110   -8.1370 N.3   305  ASP305     -0.1239
     97  CA        38.0760  -25.9960   -8.5930 C.3   305  ASP305      0.1674
     98  C         37.0650  -26.1680   -9.7210 C.2   305  ASP305      0.2266
     99  O         35.9020  -25.7750   -9.5890 O.2   305  ASP305     -0.2867
    100  CB        37.7530  -26.9420   -7.4310 C.3   305  ASP305      0.1410
    101  CG        37.9260  -28.4210   -7.7840 C.2   305  ASP305      0.3668
    102  OD1       37.6220  -28.8470   -8.9130 O.co2 305  ASP305     -0.2456
    103  OD2       38.3480  -29.1860   -6.9010 O.co2 305  ASP305     -0.2456
    104  N         35.4580  -28.6560  -10.7680 N.3   307  CYS307     -0.1221
    105  CA        34.2980  -29.4900  -10.4600 C.3   307  CYS307      0.1808
    106  C         33.1650  -28.6940   -9.8160 C.2   307  CYS307      0.2601
    107  O         32.0100  -29.1140   -9.8490 O.2   307  CYS307     -0.2717
    108  CB        34.6800  -30.7030   -9.5960 C.3   307  CYS307      0.0970
    109  SG        35.1690  -30.3550   -7.8780 S.3   307  CYS307     -0.0800
    110  N         33.4940  -27.5410   -9.2430 N.am  308  TYR308     -0.1976
    111  CA        32.4860  -26.7040   -8.6000 C.3   308  TYR308      0.1639
    112  C         31.6740  -25.8860   -9.6010 C.2   308  TYR308      0.2290
    113  O         30.6700  -25.2680   -9.2420 O.2   308  TYR308     -0.2864
    114  CB        33.1140  -25.8000   -7.5350 C.3   308  TYR308      0.0560
    115  CG        33.5450  -26.5540   -6.3010 C.ar  308  TYR308     -0.0198
    116  CD1       32.6160  -27.2270   -5.5210 C.ar  308  TYR308     -0.0009
    117  CD2       34.8780  -26.5950   -5.9150 C.ar  308  TYR308     -0.0009
    118  CE1       33.0010  -27.9220   -4.3920 C.ar  308  TYR308      0.0417
    119  CE2       35.2730  -27.2880   -4.7850 C.ar  308  TYR308      0.0417
    120  CZ        34.3290  -27.9500   -4.0290 C.ar  308  TYR308      0.1957
    121  OH        34.7100  -28.6420   -2.9020 O.3   308  TYR308     -0.2866
    122  N         28.6170  -27.9980   -9.1150 N.3   311  TRP311     -0.1241
    123  CA        28.0570  -27.9560   -7.7600 C.3   311  TRP311      0.1605
    124  C         27.5600  -26.5640   -7.3780 C.2   311  TRP311      0.2264
    125  O         26.4890  -26.4210   -6.7890 O.2   311  TRP311     -0.2867
    126  CB        29.0590  -28.4660   -6.7150 C.3   311  TRP311      0.0550
    127  CG        29.5240  -29.8650   -6.9660 C.ar  311  TRP311      0.0003
    128  CD1       30.8130  -30.2870   -7.1040 C.ar  311  TRP311      0.0946
    129  CD2       28.7020  -31.0280   -7.1340 C.ar  311  TRP311      0.0152
    130  NE1       30.8460  -31.6400   -7.3390 N.ar  311  TRP311     -0.2442
    131  CE2       29.5630  -32.1190   -7.3630 C.ar  311  TRP311      0.0810
    132  CE3       27.3210  -31.2530   -7.1110 C.ar  311  TRP311      0.0012
    133  CZ2       29.0910  -33.4150   -7.5650 C.ar  311  TRP311      0.0191
    134  CZ3       26.8540  -32.5410   -7.3130 C.ar  311  TRP311      0.0001
    135  CH2       27.7370  -33.6050   -7.5370 C.ar  311  TRP311      0.0015
    136  N         40.6290  -30.3580  -12.2610 N.3   361  ASP361     -0.1239
    137  CA        40.4410  -29.4520  -11.1350 C.3   361  ASP361      0.1674
    138  C         40.9330  -28.0590  -11.5070 C.2   361  ASP361      0.2266
    139  O         40.1500  -27.1180  -11.6350 O.2   361  ASP361     -0.2867
    140  CB        41.2230  -29.9890   -9.9310 C.3   361  ASP361      0.1410
    141  CG        41.2120  -29.0470   -8.7400 C.2   361  ASP361      0.3668
    142  OD1       41.0770  -27.8210   -8.9280 O.co2 361  ASP361     -0.2456
    143  OD2       41.3560  -29.5420   -7.6030 O.co2 361  ASP361     -0.2456
    144  N         35.6540  -37.6340  -13.2130 N.3   370  TYR370     -0.1227
    145  CA        34.8220  -36.7990  -12.3600 C.3   370  TYR370      0.1736
    146  C         34.8500  -35.3220  -12.7620 C.2   370  TYR370      0.2595
    147  O         33.8010  -34.7010  -12.9590 O.2   370  TYR370     -0.2718
    148  CB        35.2450  -36.9700  -10.9000 C.3   370  TYR370      0.0548
    149  CG        34.7270  -35.8930   -9.9820 C.ar  370  TYR370     -0.0200
    150  CD1       33.4110  -35.9030   -9.5390 C.ar  370  TYR370     -0.0009
    151  CD2       35.5550  -34.8630   -9.5550 C.ar  370  TYR370     -0.0009
    152  CE1       32.9350  -34.9180   -8.6940 C.ar  370  TYR370      0.0417
    153  CE2       35.0880  -33.8750   -8.7100 C.ar  370  TYR370      0.0417
    154  CZ        33.7780  -33.9080   -8.2830 C.ar  370  TYR370      0.1957
    155  OH        33.3110  -32.9240   -7.4460 O.3   370  TYR370     -0.2866
    156  N         36.0490  -34.7630  -12.8790 N.am  371  HIS371     -0.1975
    157  CA        36.1950  -33.3580  -13.2420 C.3   371  HIS371      0.1656
    158  C         35.8230  -33.1200  -14.7020 C.2   371  HIS371      0.2291
    159  O         35.3640  -32.0370  -15.0700 O.2   371  HIS371     -0.2864
    160  CB        37.6120  -32.8620  -12.9450 C.3   371  HIS371      0.0771
    161  CG        37.8670  -32.6080  -11.4920 C.ar  371  HIS371      0.0820
    162  ND1       38.2750  -33.5950  -10.6220 N.ar  371  HIS371     -0.2267
    163  CD2       37.7570  -31.4770  -10.7510 C.ar  371  HIS371      0.1154
    164  CE1       38.4130  -33.0840   -9.4100 C.ar  371  HIS371      0.1986
    165  NE2       38.1050  -31.8000   -9.4640 N.ar  371  HIS371     -0.2212
@<TRIPOS>BOND
     1   159   158    2
     2   158   157    1
     3   157   160    1
     4   157   156    1
     5   144   145    1
     6     4     3    2
     7   147   146    2
     8   160   161    1
     9   156   146   am
    10   146   145    1
    11   145   148    1
    12   136   137    1
    13     3     2    1
    14   139   138    2
    15   138   137    1
    16   161   163   ar
    17   161   162   ar
    18   137   140    1
    19     2     1    1
    20     2     5    1
    21   148   149    1
    22    34    33    1
    23   104   105    1
    24   163   165   ar
    25   162   164   ar
    26    26    25    2
    27   105   106    1
    28   105   108    1
    29    33    32   ar
    30    33    31   ar
    31   149   151   ar
    32   149   150   ar
    33   140   141    1
    34   107   106    2
    35   106   110   am
    36     5     6    1
    37    98    99    2
    38    98    97    1
    39   112   113    2
    40   112   111    1
    41    32    30   ar
    42   108   109    1
    43    31    29   ar
    44   151   153   ar
    45    11    13   ar
    46    11     8   ar
    47   150   152   ar
    48    25    24    1
    49   165   164   ar
    50   110   111    1
    51    13    14   ar
    52   122   123    1
    53   142   141   ar
    54   102   101   ar
    55    57    56    1
    56    30    28   ar
    57   141   143   ar
    58    29    28   ar
    59   153   154   ar
    60   152   154   ar
    61     6     8   ar
    62     6     7   ar
    63     8    10   ar
    64   111   114    1
    65    97    96    1
    66    97   100    1
    67    28    27    1
    68   154   155    1
    69    24    27    1
    70    24    23    1
    71    14    12   ar
    72   101   100    1
    73   101   103   ar
    74   123   124    1
    75   123   126    1
    76   133   135   ar
    77   133   131   ar
    78   135   134   ar
    79   114   115    1
    80    56    54   ar
    81    56    55   ar
    82     7     9   ar
    83    10    12   ar
    84    10     9   ar
    85   124   125    2
    86   131   130   ar
    87   131   129   ar
    88   130   128   ar
    89   134   132   ar
    90   129   132   ar
    91   129   127   ar
    92   128   127   ar
    93   127   126    1
    94    54    52   ar
    95    55    53   ar
    96    18    17    2
    97   115   117   ar
    98   115   116   ar
    99   117   119   ar
   100    17    16    1
   101   116   118   ar
   102    52    51   ar
   103    53    51   ar
   104    61    60    2
   105   119   120   ar
   106    51    50    1
   107    63    62    1
   108    49    48    2
   109    59    60    1
   110    59    62    1
   111    59    58    1
   112   118   120   ar
   113    16    19    1
   114    16    15    1
   115   120   121    1
   116    19    20    1
   117    48    58   am
   118    48    47    1
   119    90    91    1
   120    50    47    1
   121    75    74    1
   122    75    76    1
   123    20    22    1
   124    20    21    1
   125    95    94    1
   126    77    76    2
   127    47    46    1
   128    91    92    1
   129    91    94    1
   130    76    78   am
   131    93    92    2
   132    38    37    2
   133    78    79    1
   134    73    71   ar
   135    73    72   ar
   136    37    36    1
   137    40    39    1
   138    40    41    1
   139    67    66    2
   140    71    69   ar
   141    36    39    1
   142    36    35    1
   143    66    65    1
   144    41    42    1
   145    80    79    1
   146    80    81    2
   147    79    82    1
   148    72    70   ar
   149    44    43    1
   150    69    70   ar
   151    69    68    1
   152    42    43    2
   153    65    68    1
   154    65    64    1
   155    43    45    1
   156    84    86   ar
   157    84    83   ar
   158    82    83    1
   159    86    88   ar
   160    83    85   ar
   161    88    89    1
   162    88    87   ar
   163    85    87   ar
