@<TRIPOS>MOLECULE
tmp/3q7aB05.pdb
 173 169 0 0 0
SMALL
GASTEIGER

@<TRIPOS>ATOM
      1  N         30.1060  -45.1700  -10.8340 N.3    89  TRP89      -0.1241
      2  CA        30.4950  -43.7770  -11.0770 C.3    89  TRP89       0.1605
      3  C         31.4090  -43.6700  -12.2940 C.2    89  TRP89       0.2264
      4  O         31.2740  -42.7460  -13.0910 O.2    89  TRP89      -0.2867
      5  CB        31.1670  -43.1560   -9.8490 C.3    89  TRP89       0.0550
      6  CG        30.2020  -42.7970   -8.7640 C.ar   89  TRP89       0.0003
      7  CD1       30.0180  -43.4550   -7.5800 C.ar   89  TRP89       0.0946
      8  CD2       29.2790  -41.7010   -8.7630 C.ar   89  TRP89       0.0152
      9  NE1       29.0390  -42.8340   -6.8410 N.ar   89  TRP89      -0.2442
     10  CE2       28.5690  -41.7550   -7.5420 C.ar   89  TRP89       0.0810
     11  CE3       28.9840  -40.6750   -9.6740 C.ar   89  TRP89       0.0012
     12  CZ2       27.5810  -40.8240   -7.2060 C.ar   89  TRP89       0.0191
     13  CZ3       28.0000  -39.7490   -9.3400 C.ar   89  TRP89       0.0001
     14  CH2       27.3100  -39.8310   -8.1140 C.ar   89  TRP89       0.0015
     15  N         24.5520  -44.0620   -3.3200 N.3   140  LEU140     -0.1245
     16  CA        25.3090  -43.3310   -4.3390 C.3   140  LEU140      0.1561
     17  C         25.4690  -44.0830   -5.6760 C.2   140  LEU140      0.2260
     18  O         25.1790  -43.5130   -6.7290 O.2   140  LEU140     -0.2867
     19  CB        26.6520  -42.8280   -3.7780 C.3   140  LEU140      0.0270
     20  CG        26.6300  -41.5060   -2.9900 C.3   140  LEU140      0.0019
     21  CD1       25.6330  -41.5070   -1.8240 C.3   140  LEU140      0.0001
     22  CD2       28.0170  -41.1510   -2.4830 C.3   140  LEU140      0.0001
     23  N         22.1120  -44.0160   -7.5090 N.3   143  TYR143     -0.1241
     24  CA        21.9670  -42.8410   -8.3780 C.3   143  TYR143      0.1605
     25  C         22.7810  -42.9900   -9.6620 C.2   143  TYR143      0.2264
     26  O         22.2680  -42.7520  -10.7580 O.2   143  TYR143     -0.2867
     27  CB        22.3800  -41.5520   -7.6490 C.3   143  TYR143      0.0534
     28  CG        22.6450  -40.3680   -8.5700 C.ar  143  TYR143     -0.0201
     29  CD1       21.6280  -39.4740   -8.8990 C.ar  143  TYR143     -0.0009
     30  CD2       23.9190  -40.1420   -9.1040 C.ar  143  TYR143     -0.0009
     31  CE1       21.8680  -38.3820   -9.7420 C.ar  143  TYR143      0.0417
     32  CE2       24.1690  -39.0620   -9.9540 C.ar  143  TYR143      0.0417
     33  CZ        23.1390  -38.1880  -10.2680 C.ar  143  TYR143      0.1957
     34  OH        23.3860  -37.1190  -11.0980 O.3   143  TYR143     -0.2866
     35  N         24.5780  -36.1570    0.5190 N.3   196  ARG196     -0.1245
     36  CA        24.8230  -36.9370   -0.7060 C.3   196  ARG196      0.1563
     37  C         23.8160  -38.0850   -0.8060 C.2   196  ARG196      0.2260
     38  O         23.2610  -38.3410   -1.8730 O.2   196  ARG196     -0.2867
     39  CB        26.2380  -37.5250   -0.7510 C.3   196  ARG196      0.0307
     40  CG        27.3860  -36.5230   -0.7350 C.3   196  ARG196      0.0489
     41  CD        28.7220  -37.2520   -0.5360 C.3   196  ARG196      0.2205
     42  NE        28.6600  -38.1480    0.6220 N.pl3 196  ARG196     -0.0865
     43  CZ        29.3530  -39.2770    0.7600 C.cat 196  ARG196      0.5346
     44  NH1       30.1940  -39.6790   -0.1840 N.pl3 196  ARG196      0.1354
     45  NH2       29.1990  -40.0080    1.8570 N.pl3 196  ARG196      0.1354
     46  N         20.2870  -36.6350   -1.5720 N.3   199  TYR199     -0.1227
     47  CA        20.2020  -36.2400   -2.9800 C.3   199  TYR199      0.1736
     48  C         20.0350  -37.4400   -3.9100 C.2   199  TYR199      0.2595
     49  O         19.1330  -37.4590   -4.7410 O.2   199  TYR199     -0.2718
     50  CB        21.4190  -35.4120   -3.4090 C.3   199  TYR199      0.0548
     51  CG        21.5560  -35.3000   -4.9170 C.ar  199  TYR199     -0.0200
     52  CD1       20.7030  -34.4750   -5.6510 C.ar  199  TYR199     -0.0009
     53  CD2       22.5230  -36.0330   -5.6100 C.ar  199  TYR199     -0.0009
     54  CE1       20.8120  -34.3760   -7.0350 C.ar  199  TYR199      0.0417
     55  CE2       22.6400  -35.9380   -7.0020 C.ar  199  TYR199      0.0417
     56  CZ        21.7780  -35.1050   -7.7030 C.ar  199  TYR199      0.1957
     57  OH        21.8700  -35.0000   -9.0730 O.3   199  TYR199     -0.2866
     58  N         20.9170  -38.4270   -3.7670 N.am  200  CYS200     -0.1970
     59  CA        20.9030  -39.6110   -4.6240 C.3   200  CYS200      0.1712
     60  C         19.5880  -40.3790   -4.5210 C.2   200  CYS200      0.2296
     61  O         19.0450  -40.8330   -5.5310 O.2   200  CYS200     -0.2864
     62  CB        22.0980  -40.5100   -4.3030 C.3   200  CYS200      0.0983
     63  SG        23.6710  -39.7860   -4.8380 S.3   200  CYS200     -0.0798
     64  N         30.0010  -26.4000    1.7820 N.3   253  HIS253     -0.1241
     65  CA        30.8280  -26.9130    0.6980 C.3   253  HIS253      0.1621
     66  C         30.0110  -27.0090   -0.5840 C.2   253  HIS253      0.2264
     67  O         28.8150  -27.3070   -0.5390 O.2   253  HIS253     -0.2867
     68  CB        31.4070  -28.2880    1.0500 C.3   253  HIS253      0.0745
     69  CG        32.5220  -28.7120    0.1450 C.ar  253  HIS253      0.0817
     70  ND1       33.8500  -28.5800    0.4890 N.ar  253  HIS253     -0.2268
     71  CD2       32.5060  -29.2340   -1.1040 C.ar  253  HIS253      0.1154
     72  CE1       34.6050  -29.0080   -0.5070 C.ar  253  HIS253      0.1986
     73  NE2       33.8150  -29.4120   -1.4850 N.ar  253  HIS253     -0.2212
     74  N         29.9610  -29.2780   -2.9210 N.3   255  GLY255     -0.1210
     75  CA        29.3700  -30.6010   -3.0780 C.3   255  GLY255      0.1956
     76  C         28.0840  -30.7930   -2.2970 C.2   255  GLY255      0.2611
     77  O         27.0780  -31.2580   -2.8400 O.2   255  GLY255     -0.2717
     78  N         28.1180  -30.4230   -1.0210 N.am  256  TYR256     -0.1976
     79  CA        26.9570  -30.5520   -0.1460 C.3   256  TYR256      0.1639
     80  C         25.8950  -29.4790   -0.3930 C.2   256  TYR256      0.2290
     81  O         24.7080  -29.7200   -0.1660 O.2   256  TYR256     -0.2864
     82  CB        27.3910  -30.5850    1.3220 C.3   256  TYR256      0.0560
     83  CG        28.3150  -31.7410    1.6450 C.ar  256  TYR256     -0.0198
     84  CD1       27.9250  -33.0600    1.4010 C.ar  256  TYR256     -0.0009
     85  CD2       29.5770  -31.5190    2.1930 C.ar  256  TYR256     -0.0009
     86  CE1       28.7660  -34.1280    1.6970 C.ar  256  TYR256      0.0417
     87  CE2       30.4290  -32.5840    2.4890 C.ar  256  TYR256      0.0417
     88  CZ        30.0150  -33.8830    2.2370 C.ar  256  TYR256      0.1957
     89  OH        30.8450  -34.9380    2.5300 O.3   256  TYR256     -0.2866
     90  N         24.0440  -30.8300   -3.4480 N.3   259  CYS259     -0.1235
     91  CA        23.1360  -31.8870   -3.0080 C.3   259  CYS259      0.1677
     92  C         21.9330  -31.3470   -2.2320 C.2   259  CYS259      0.2270
     93  O         20.8140  -31.8430   -2.3930 O.2   259  CYS259     -0.2867
     94  CB        23.8840  -32.9330   -2.1800 C.3   259  CYS259      0.0956
     95  SG        24.9850  -33.9780   -3.1510 S.3   259  CYS259     -0.0801
     96  N         35.4670  -24.7860   -3.8970 N.3   303  GLY303     -0.1210
     97  CA        34.4810  -25.6040   -3.1870 C.3   303  GLY303      0.1956
     98  C         34.0650  -25.0590   -1.8340 C.2   303  GLY303      0.2611
     99  O         32.9790  -25.3730   -1.3390 O.2   303  GLY303     -0.2717
    100  N         34.9390  -24.2530   -1.2350 N.am  304  ARG304     -0.1979
    101  CA        34.6630  -23.5910    0.0430 C.3   304  ARG304      0.1597
    102  C         35.5530  -22.3690    0.2250 C.2   304  ARG304      0.2287
    103  O         36.6160  -22.2670   -0.3910 O.2   304  ARG304     -0.2864
    104  CB        34.8120  -24.5540    1.2330 C.3   304  ARG304      0.0334
    105  CG        36.0040  -25.4930    1.1590 C.3   304  ARG304      0.0492
    106  CD        36.0550  -26.4170    2.3670 C.3   304  ARG304      0.2205
    107  NE        36.9360  -27.5570    2.1330 N.pl3 304  ARG304     -0.0865
    108  CZ        37.5580  -28.2390    3.0900 C.cat 304  ARG304      0.5346
    109  NH1       37.4130  -27.8950    4.3650 N.pl3 304  ARG304      0.1354
    110  NH2       38.3370  -29.2620    2.7700 N.pl3 304  ARG304      0.1354
    111  N         39.6440  -21.7550    0.1040 N.3   307  LYS307     -0.1231
    112  CA        40.2640  -22.9160   -0.5160 C.3   307  LYS307      0.1693
    113  C         40.5050  -22.6310   -2.0040 C.2   307  LYS307      0.2591
    114  O         40.3750  -21.4850   -2.4430 O.2   307  LYS307     -0.2718
    115  CB        39.4080  -24.1640   -0.2970 C.3   307  LYS307      0.0285
    116  CG        39.5980  -24.8220    1.0690 C.3   307  LYS307      0.0035
    117  CD        40.8690  -25.6570    1.0730 C.3   307  LYS307      0.0206
    118  CE        40.6400  -26.9950    1.7120 C.3   307  LYS307      0.1093
    119  NZ        41.5360  -28.0190    1.1180 N.3   307  LYS307     -0.1314
    120  N         40.8590  -23.6620   -2.7700 N.am  308  LEU308     -0.1980
    121  CA        41.3280  -23.4670   -4.1460 C.3   308  LEU308      0.1596
    122  C         40.2570  -23.7110   -5.2050 C.2   308  LEU308      0.2287
    123  O         39.3730  -24.5550   -5.0300 O.2   308  LEU308     -0.2864
    124  CB        42.5670  -24.3330   -4.4270 C.3   308  LEU308      0.0297
    125  CG        43.7850  -24.1340   -3.5130 C.3   308  LEU308      0.0022
    126  CD1       44.8810  -25.1490   -3.8340 C.3   308  LEU308      0.0001
    127  CD2       44.3260  -22.7080   -3.5950 C.3   308  LEU308      0.0001
    128  N         38.7270  -25.2030   -8.5780 N.3   310  ASP310     -0.1239
    129  CA        38.8030  -26.5820   -9.0450 C.3   310  ASP310      0.1674
    130  C         37.7100  -26.7980  -10.0780 C.2   310  ASP310      0.2266
    131  O         36.5380  -26.4960   -9.8300 O.2   310  ASP310     -0.2867
    132  CB        38.6440  -27.5400   -7.8550 C.3   310  ASP310      0.1410
    133  CG        38.6430  -29.0140   -8.2500 C.2   310  ASP310      0.3668
    134  OD1       38.4180  -29.3620   -9.4290 O.co2 310  ASP310     -0.2456
    135  OD2       38.8560  -29.8470   -7.3470 O.co2 310  ASP310     -0.2456
    136  N         34.0220  -28.1640   -9.5100 N.3   313  TYR313     -0.1241
    137  CA        33.0180  -27.2930   -8.8840 C.3   313  TYR313      0.1605
    138  C         32.2400  -26.4370   -9.8810 C.2   313  TYR313      0.2264
    139  O         31.2970  -25.7390   -9.5040 O.2   313  TYR313     -0.2867
    140  CB        33.6450  -26.4420   -7.7700 C.3   313  TYR313      0.0534
    141  CG        34.2420  -27.3010   -6.6800 C.ar  313  TYR313     -0.0201
    142  CD1       33.4770  -28.2840   -6.0510 C.ar  313  TYR313     -0.0009
    143  CD2       35.5720  -27.1540   -6.2970 C.ar  313  TYR313     -0.0009
    144  CE1       34.0200  -29.0960   -5.0660 C.ar  313  TYR313      0.0417
    145  CE2       36.1240  -27.9590   -5.3060 C.ar  313  TYR313      0.0417
    146  CZ        35.3420  -28.9280   -4.6960 C.ar  313  TYR313      0.1957
    147  OH        35.8740  -29.7290   -3.7150 O.3   313  TYR313     -0.2866
    148  N         29.3240  -28.6430   -9.3820 N.3   316  TRP316     -0.1241
    149  CA        28.7730  -28.6190   -8.0170 C.3   316  TRP316      0.1605
    150  C         28.2910  -27.2380   -7.5840 C.2   316  TRP316      0.2264
    151  O         27.2050  -27.1110   -7.0190 O.2   316  TRP316     -0.2867
    152  CB        29.7390  -29.2180   -6.9880 C.3   316  TRP316      0.0550
    153  CG        30.1750  -30.6160   -7.3330 C.ar  316  TRP316      0.0003
    154  CD1       31.4450  -31.0210   -7.6320 C.ar  316  TRP316      0.0946
    155  CD2       29.3450  -31.7820   -7.4420 C.ar  316  TRP316      0.0152
    156  NE1       31.4600  -32.3660   -7.9110 N.ar  316  TRP316     -0.2442
    157  CE2       30.1860  -32.8600   -7.8000 C.ar  316  TRP316      0.0810
    158  CE3       27.9720  -32.0250   -7.2650 C.ar  316  TRP316      0.0012
    159  CZ2       29.7030  -34.1620   -7.9890 C.ar  316  TRP316      0.0191
    160  CZ3       27.4900  -33.3240   -7.4570 C.ar  316  TRP316      0.0001
    161  CH2       28.3550  -34.3740   -7.8150 C.ar  316  TRP316      0.0015
    162  N         36.2110  -38.4420  -13.2470 N.3   375  TYR375     -0.1241
    163  CA        35.4220  -37.5910  -12.3600 C.3   375  TYR375      0.1605
    164  C         35.4960  -36.1130  -12.7650 C.2   375  TYR375      0.2264
    165  O         34.4690  -35.4400  -12.8720 O.2   375  TYR375     -0.2867
    166  CB        35.8570  -37.7920  -10.8990 C.3   375  TYR375      0.0534
    167  CG        35.3860  -36.7080   -9.9520 C.ar  375  TYR375     -0.0201
    168  CD1       34.0890  -36.7200   -9.4320 C.ar  375  TYR375     -0.0009
    169  CD2       36.2360  -35.6670   -9.5790 C.ar  375  TYR375     -0.0009
    170  CE1       33.6520  -35.7190   -8.5650 C.ar  375  TYR375      0.0417
    171  CE2       35.8090  -34.6640   -8.7170 C.ar  375  TYR375      0.0417
    172  CZ        34.5170  -34.6960   -8.2170 C.ar  375  TYR375      0.1957
    173  OH        34.0960  -33.7010   -7.3660 O.3   375  TYR375     -0.2866
@<TRIPOS>BOND
     1   162   163    1
     2     4     3    2
     3   165   164    2
     4   164   163    1
     5   163   166    1
     6     3     2    1
     7    34    33    1
     8     2     1    1
     9     2     5    1
    10   166   167    1
    11    26    25    2
    12    33    32   ar
    13    33    31   ar
    14   130   131    2
    15   130   129    1
    16    32    30   ar
    17   167   169   ar
    18   167   168   ar
    19   138   139    2
    20   138   137    1
    21     5     6    1
    22    31    29   ar
    23    11    13   ar
    24    11     8   ar
    25    25    24    1
    26   169   171   ar
    27   136   137    1
    28   168   170   ar
    29   134   133   ar
    30   148   149    1
    31    13    14   ar
    32    30    28   ar
    33    57    56    1
    34   129   128    1
    35   129   132    1
    36    29    28   ar
    37   137   140    1
    38     6     8   ar
    39     6     7   ar
    40     8    10   ar
    41   171   172   ar
    42    28    27    1
    43   170   172   ar
    44    24    27    1
    45    24    23    1
    46   133   132    1
    47   133   135   ar
    48   172   173    1
    49    14    12   ar
    50   149   150    1
    51   149   152    1
    52   159   161   ar
    53   159   157   ar
    54   156   157   ar
    55   156   154   ar
    56   161   160   ar
    57   157   155   ar
    58   140   141    1
    59    56    54   ar
    60    56    55   ar
    61   154   153   ar
    62   150   151    2
    63     7     9   ar
    64    10    12   ar
    65    10     9   ar
    66   160   158   ar
    67   155   153   ar
    68   155   158   ar
    69   153   152    1
    70    54    52   ar
    71    55    53   ar
    72    18    17    2
    73   141   143   ar
    74   141   142   ar
    75   143   145   ar
    76   142   144   ar
    77    17    16    1
    78    52    51   ar
    79    53    51   ar
    80    61    60    2
    81   145   146   ar
    82   122   123    2
    83   122   121    1
    84   144   146   ar
    85    51    50    1
    86    63    62    1
    87    49    48    2
    88   146   147    1
    89    59    60    1
    90    59    62    1
    91    59    58    1
    92   124   121    1
    93   124   125    1
    94    16    19    1
    95    16    15    1
    96   121   120    1
    97    48    58   am
    98    48    47    1
    99    96    97    1
   100   126   125    1
   101    19    20    1
   102   127   125    1
   103    90    91    1
   104    50    47    1
   105    97    98    1
   106    95    94    1
   107    75    74    1
   108    75    76    1
   109    91    92    1
   110    91    94    1
   111    20    22    1
   112    20    21    1
   113    47    46    1
   114    77    76    2
   115   120   113   am
   116   114   113    2
   117    93    92    2
   118    76    78   am
   119   113   112    1
   120    38    37    2
   121    98    99    2
   122    98   100   am
   123    73    71   ar
   124    73    72   ar
   125   100   101    1
   126    71    69   ar
   127    78    79    1
   128    37    36    1
   129    39    40    1
   130    39    36    1
   131    40    41    1
   132    36    35    1
   133    66    67    2
   134    66    65    1
   135    41    42    1
   136   112   115    1
   137   112   111    1
   138    72    70   ar
   139    80    81    2
   140    80    79    1
   141   103   102    2
   142   115   116    1
   143    44    43    1
   144    79    82    1
   145   101   102    1
   146   101   104    1
   147    69    70   ar
   148    69    68    1
   149    42    43    2
   150    65    68    1
   151    65    64    1
   152    43    45    1
   153   116   117    1
   154   117   118    1
   155   119   118    1
   156   105   104    1
   157   105   106    1
   158    82    83    1
   159    84    83   ar
   160    84    86   ar
   161    83    85   ar
   162    86    88   ar
   163   107   106    1
   164   107   108    2
   165    85    87   ar
   166    88    87   ar
   167    88    89    1
   168   110   108    1
   169   108   109    1
