@<TRIPOS>MOLECULE
tmp/3q7aB06.pdb
 161 158 0 0 0
SMALL
GASTEIGER

@<TRIPOS>ATOM
      1  N         39.0070  -47.3770   -6.6460 N.3    83  LEU83      -0.1245
      2  CA        37.6450  -47.0460   -7.0680 C.3    83  LEU83       0.1561
      3  C         36.7870  -48.2860   -7.3500 C.2    83  LEU83       0.2260
      4  O         35.7640  -48.1950   -8.0340 O.2    83  LEU83      -0.2867
      5  CB        37.6730  -46.1250   -8.2970 C.3    83  LEU83       0.0270
      6  CG        38.2640  -44.7210   -8.1200 C.3    83  LEU83       0.0019
      7  CD1       38.4870  -44.0570   -9.4740 C.3    83  LEU83       0.0001
      8  CD2       37.3710  -43.8560   -7.2280 C.3    83  LEU83       0.0001
      9  N         33.3500  -47.9210   -6.5200 N.3    86  SER86      -0.1217
     10  CA        32.7750  -46.7900   -7.2490 C.3    86  SER86       0.1889
     11  C         32.6580  -47.0220   -8.7620 C.2    86  SER86       0.2288
     12  O         32.5860  -46.0640   -9.5340 O.2    86  SER86      -0.2866
     13  CB        33.5970  -45.5250   -6.9860 C.3    86  SER86       0.2089
     14  OG        33.4260  -45.0790   -5.6560 O.3    86  SER86      -0.2183
     15  N         30.1060  -45.1700  -10.8340 N.3    89  TRP89      -0.1241
     16  CA        30.4950  -43.7770  -11.0770 C.3    89  TRP89       0.1605
     17  C         31.4090  -43.6700  -12.2940 C.2    89  TRP89       0.2264
     18  O         31.2740  -42.7460  -13.0910 O.2    89  TRP89      -0.2867
     19  CB        31.1670  -43.1560   -9.8490 C.3    89  TRP89       0.0550
     20  CG        30.2020  -42.7970   -8.7640 C.ar   89  TRP89       0.0003
     21  CD1       30.0180  -43.4550   -7.5800 C.ar   89  TRP89       0.0946
     22  CD2       29.2790  -41.7010   -8.7630 C.ar   89  TRP89       0.0152
     23  NE1       29.0390  -42.8340   -6.8410 N.ar   89  TRP89      -0.2442
     24  CE2       28.5690  -41.7550   -7.5420 C.ar   89  TRP89       0.0810
     25  CE3       28.9840  -40.6750   -9.6740 C.ar   89  TRP89       0.0012
     26  CZ2       27.5810  -40.8240   -7.2060 C.ar   89  TRP89       0.0191
     27  CZ3       28.0000  -39.7490   -9.3400 C.ar   89  TRP89       0.0001
     28  CH2       27.3100  -39.8310   -8.1140 C.ar   89  TRP89       0.0015
     29  N         30.3290  -41.3010  -15.1800 N.3    93  TRP93      -0.1241
     30  CA        31.2430  -40.2480  -15.6280 C.3    93  TRP93       0.1605
     31  C         31.5450  -40.3650  -17.1210 C.2    93  TRP93       0.2264
     32  O         31.6050  -39.3580  -17.8150 O.2    93  TRP93      -0.2867
     33  CB        32.5460  -40.2330  -14.8190 C.3    93  TRP93       0.0550
     34  CG        32.3790  -39.8820  -13.3540 C.ar   93  TRP93       0.0003
     35  CD1       31.4910  -38.9910  -12.8100 C.ar   93  TRP93       0.0946
     36  CD2       33.1390  -40.4070  -12.2580 C.ar   93  TRP93       0.0152
     37  NE1       31.6440  -38.9420  -11.4440 N.ar   93  TRP93      -0.2442
     38  CE2       32.6510  -39.8000  -11.0790 C.ar   93  TRP93       0.0810
     39  CE3       34.1800  -41.3420  -12.1560 C.ar   93  TRP93       0.0012
     40  CZ2       33.1680  -40.0980   -9.8120 C.ar   93  TRP93       0.0191
     41  CZ3       34.6970  -41.6340  -10.8960 C.ar   93  TRP93       0.0001
     42  CH2       34.1900  -41.0120   -9.7440 C.ar   93  TRP93       0.0015
     43  N         24.5520  -44.0620   -3.3200 N.3   140  LEU140     -0.1245
     44  CA        25.3090  -43.3310   -4.3390 C.3   140  LEU140      0.1561
     45  C         25.4690  -44.0830   -5.6760 C.2   140  LEU140      0.2260
     46  O         25.1790  -43.5130   -6.7290 O.2   140  LEU140     -0.2867
     47  CB        26.6520  -42.8280   -3.7780 C.3   140  LEU140      0.0270
     48  CG        26.6300  -41.5060   -2.9900 C.3   140  LEU140      0.0019
     49  CD1       25.6330  -41.5070   -1.8240 C.3   140  LEU140      0.0001
     50  CD2       28.0170  -41.1510   -2.4830 C.3   140  LEU140      0.0001
     51  N         24.5780  -36.1570    0.5190 N.3   196  ARG196     -0.1245
     52  CA        24.8230  -36.9370   -0.7060 C.3   196  ARG196      0.1563
     53  C         23.8160  -38.0850   -0.8060 C.2   196  ARG196      0.2260
     54  O         23.2610  -38.3410   -1.8730 O.2   196  ARG196     -0.2867
     55  CB        26.2380  -37.5250   -0.7510 C.3   196  ARG196      0.0307
     56  CG        27.3860  -36.5230   -0.7350 C.3   196  ARG196      0.0489
     57  CD        28.7220  -37.2520   -0.5360 C.3   196  ARG196      0.2205
     58  NE        28.6600  -38.1480    0.6220 N.pl3 196  ARG196     -0.0865
     59  CZ        29.3530  -39.2770    0.7600 C.cat 196  ARG196      0.5346
     60  NH1       30.1940  -39.6790   -0.1840 N.pl3 196  ARG196      0.1354
     61  NH2       29.1990  -40.0080    1.8570 N.pl3 196  ARG196      0.1354
     62  N         30.0010  -26.4000    1.7820 N.3   253  HIS253     -0.1241
     63  CA        30.8280  -26.9130    0.6980 C.3   253  HIS253      0.1621
     64  C         30.0110  -27.0090   -0.5840 C.2   253  HIS253      0.2264
     65  O         28.8150  -27.3070   -0.5390 O.2   253  HIS253     -0.2867
     66  CB        31.4070  -28.2880    1.0500 C.3   253  HIS253      0.0745
     67  CG        32.5220  -28.7120    0.1450 C.ar  253  HIS253      0.0817
     68  ND1       33.8500  -28.5800    0.4890 N.ar  253  HIS253     -0.2268
     69  CD2       32.5060  -29.2340   -1.1040 C.ar  253  HIS253      0.1154
     70  CE1       34.6050  -29.0080   -0.5070 C.ar  253  HIS253      0.1986
     71  NE2       33.8150  -29.4120   -1.4850 N.ar  253  HIS253     -0.2212
     72  N         28.1180  -30.4230   -1.0210 N.3   256  TYR256     -0.1241
     73  CA        26.9570  -30.5520   -0.1460 C.3   256  TYR256      0.1605
     74  C         25.8950  -29.4790   -0.3930 C.2   256  TYR256      0.2264
     75  O         24.7080  -29.7200   -0.1660 O.2   256  TYR256     -0.2867
     76  CB        27.3910  -30.5850    1.3220 C.3   256  TYR256      0.0534
     77  CG        28.3150  -31.7410    1.6450 C.ar  256  TYR256     -0.0201
     78  CD1       27.9250  -33.0600    1.4010 C.ar  256  TYR256     -0.0009
     79  CD2       29.5770  -31.5190    2.1930 C.ar  256  TYR256     -0.0009
     80  CE1       28.7660  -34.1280    1.6970 C.ar  256  TYR256      0.0417
     81  CE2       30.4290  -32.5840    2.4890 C.ar  256  TYR256      0.0417
     82  CZ        30.0150  -33.8830    2.2370 C.ar  256  TYR256      0.1957
     83  OH        30.8450  -34.9380    2.5300 O.3   256  TYR256     -0.2866
     84  N         38.7270  -25.2030   -8.5780 N.3   310  ASP310     -0.1239
     85  CA        38.8030  -26.5820   -9.0450 C.3   310  ASP310      0.1674
     86  C         37.7100  -26.7980  -10.0780 C.2   310  ASP310      0.2266
     87  O         36.5380  -26.4960   -9.8300 O.2   310  ASP310     -0.2867
     88  CB        38.6440  -27.5400   -7.8550 C.3   310  ASP310      0.1410
     89  CG        38.6430  -29.0140   -8.2500 C.2   310  ASP310      0.3668
     90  OD1       38.4180  -29.3620   -9.4290 O.co2 310  ASP310     -0.2456
     91  OD2       38.8560  -29.8470   -7.3470 O.co2 310  ASP310     -0.2456
     92  N         35.9990  -29.2770  -11.0950 N.3   312  CYS312     -0.1221
     93  CA        34.8120  -30.0890  -10.7900 C.3   312  CYS312      0.1808
     94  C         33.6760  -29.2710  -10.1680 C.2   312  CYS312      0.2601
     95  O         32.5080  -29.6290  -10.3090 O.2   312  CYS312     -0.2717
     96  CB        35.1500  -31.3190   -9.9320 C.3   312  CYS312      0.0970
     97  SG        35.6460  -30.9910   -8.2190 S.3   312  CYS312     -0.0800
     98  N         34.0220  -28.1640   -9.5100 N.am  313  TYR313     -0.1976
     99  CA        33.0180  -27.2930   -8.8840 C.3   313  TYR313      0.1639
    100  C         32.2400  -26.4370   -9.8810 C.2   313  TYR313      0.2290
    101  O         31.2970  -25.7390   -9.5040 O.2   313  TYR313     -0.2864
    102  CB        33.6450  -26.4420   -7.7700 C.3   313  TYR313      0.0560
    103  CG        34.2420  -27.3010   -6.6800 C.ar  313  TYR313     -0.0198
    104  CD1       33.4770  -28.2840   -6.0510 C.ar  313  TYR313     -0.0009
    105  CD2       35.5720  -27.1540   -6.2970 C.ar  313  TYR313     -0.0009
    106  CE1       34.0200  -29.0960   -5.0660 C.ar  313  TYR313      0.0417
    107  CE2       36.1240  -27.9590   -5.3060 C.ar  313  TYR313      0.0417
    108  CZ        35.3420  -28.9280   -4.6960 C.ar  313  TYR313      0.1957
    109  OH        35.8740  -29.7290   -3.7150 O.3   313  TYR313     -0.2866
    110  N         29.3240  -28.6430   -9.3820 N.3   316  TRP316     -0.1241
    111  CA        28.7730  -28.6190   -8.0170 C.3   316  TRP316      0.1605
    112  C         28.2910  -27.2380   -7.5840 C.2   316  TRP316      0.2264
    113  O         27.2050  -27.1110   -7.0190 O.2   316  TRP316     -0.2867
    114  CB        29.7390  -29.2180   -6.9880 C.3   316  TRP316      0.0550
    115  CG        30.1750  -30.6160   -7.3330 C.ar  316  TRP316      0.0003
    116  CD1       31.4450  -31.0210   -7.6320 C.ar  316  TRP316      0.0946
    117  CD2       29.3450  -31.7820   -7.4420 C.ar  316  TRP316      0.0152
    118  NE1       31.4600  -32.3660   -7.9110 N.ar  316  TRP316     -0.2442
    119  CE2       30.1860  -32.8600   -7.8000 C.ar  316  TRP316      0.0810
    120  CE3       27.9720  -32.0250   -7.2650 C.ar  316  TRP316      0.0012
    121  CZ2       29.7030  -34.1620   -7.9890 C.ar  316  TRP316      0.0191
    122  CZ3       27.4900  -33.3240   -7.4570 C.ar  316  TRP316      0.0001
    123  CH2       28.3550  -34.3740   -7.8150 C.ar  316  TRP316      0.0015
    124  N         41.2080  -31.0430  -12.4640 N.3   366  ASP366     -0.1239
    125  CA        41.0400  -30.1280  -11.3410 C.3   366  ASP366      0.1674
    126  C         41.6010  -28.7420  -11.6890 C.2   366  ASP366      0.2266
    127  O         40.8590  -27.7580  -11.7480 O.2   366  ASP366     -0.2867
    128  CB        41.7460  -30.7540  -10.1250 C.3   366  ASP366      0.1410
    129  CG        41.9580  -29.7900   -8.9630 C.2   366  ASP366      0.3668
    130  OD1       41.5620  -28.6050   -9.0180 O.co2 366  ASP366     -0.2456
    131  OD2       42.5460  -30.2530   -7.9660 O.co2 366  ASP366     -0.2456
    132  N         41.1310  -36.8650  -14.8900 N.3   373  ASP373     -0.1239
    133  CA        40.4600  -38.1280  -14.5760 C.3   373  ASP373      0.1674
    134  C         38.9970  -38.1160  -15.0250 C.2   373  ASP373      0.2266
    135  O         38.4890  -37.0880  -15.4810 O.2   373  ASP373     -0.2867
    136  CB        40.6130  -38.4970  -13.0850 C.3   373  ASP373      0.1410
    137  CG        40.0750  -37.4260  -12.1430 C.2   373  ASP373      0.3668
    138  OD1       39.1080  -36.7200  -12.4900 O.co2 373  ASP373     -0.2456
    139  OD2       40.6140  -37.3030  -11.0280 O.co2 373  ASP373     -0.2456
    140  N         36.2110  -38.4420  -13.2470 N.3   375  TYR375     -0.1227
    141  CA        35.4220  -37.5910  -12.3600 C.3   375  TYR375      0.1736
    142  C         35.4960  -36.1130  -12.7650 C.2   375  TYR375      0.2595
    143  O         34.4690  -35.4400  -12.8720 O.2   375  TYR375     -0.2718
    144  CB        35.8570  -37.7920  -10.8990 C.3   375  TYR375      0.0548
    145  CG        35.3860  -36.7080   -9.9520 C.ar  375  TYR375     -0.0200
    146  CD1       34.0890  -36.7200   -9.4320 C.ar  375  TYR375     -0.0009
    147  CD2       36.2360  -35.6670   -9.5790 C.ar  375  TYR375     -0.0009
    148  CE1       33.6520  -35.7190   -8.5650 C.ar  375  TYR375      0.0417
    149  CE2       35.8090  -34.6640   -8.7170 C.ar  375  TYR375      0.0417
    150  CZ        34.5170  -34.6960   -8.2170 C.ar  375  TYR375      0.1957
    151  OH        34.0960  -33.7010   -7.3660 O.3   375  TYR375     -0.2866
    152  N         36.7070  -35.6110  -12.9950 N.am  376  HIS376     -0.1975
    153  CA        36.8620  -34.2170  -13.4080 C.3   376  HIS376      0.1656
    154  C         36.4110  -33.9600  -14.8430 C.2   376  HIS376      0.2291
    155  O         35.9160  -32.8790  -15.1490 O.2   376  HIS376     -0.2864
    156  CB        38.2860  -33.7170  -13.1650 C.3   376  HIS376      0.0771
    157  CG        38.5620  -33.4140  -11.7280 C.ar  376  HIS376      0.0820
    158  ND1       39.1640  -34.3160  -10.8780 N.ar  376  HIS376     -0.2267
    159  CD2       38.2800  -32.3200  -10.9820 C.ar  376  HIS376      0.1154
    160  CE1       39.2540  -33.7850   -9.6710 C.ar  376  HIS376      0.1986
    161  NE2       38.7220  -32.5750   -9.7060 N.ar  376  HIS376     -0.2212
@<TRIPOS>BOND
     1    32    31    2
     2    31    30    1
     3    30    29    1
     4    30    33    1
     5   135   134    2
     6   155   154    2
     7   134   133    1
     8   132   133    1
     9   154   153    1
    10    33    34    1
    11   133   136    1
    12   153   156    1
    13   153   152    1
    14    34    35   ar
    15    34    36   ar
    16   140   141    1
    17   156   157    1
    18    18    17    2
    19   136   137    1
    20   152   142   am
    21   143   142    2
    22    35    37   ar
    23   142   141    1
    24   138   137   ar
    25   124   125    1
    26   141   144    1
    27    17    16    1
    28    36    39   ar
    29    36    38   ar
    30    39    41   ar
    31   137   139   ar
    32   127   126    2
    33   157   159   ar
    34   157   158   ar
    35   126   125    1
    36    37    38   ar
    37   125   128    1
    38    92    93    1
    39    38    40   ar
    40    16    15    1
    41    16    19    1
    42   159   161   ar
    43   144   145    1
    44    41    42   ar
    45   158   160   ar
    46    93    94    1
    47    93    96    1
    48    95    94    2
    49    94    98   am
    50   128   129    1
    51    86    87    2
    52    86    85    1
    53   145   147   ar
    54   145   146   ar
    55    96    97    1
    56   100   101    2
    57   100    99    1
    58    19    20    1
    59    40    42   ar
    60   161   160   ar
    61    25    27   ar
    62    25    22   ar
    63   147   149   ar
    64    12    11    2
    65    98    99    1
    66     7     6    1
    67   146   148   ar
    68    90    89   ar
    69   110   111    1
    70    27    28   ar
    71    85    84    1
    72    85    88    1
    73   130   129   ar
    74   129   131   ar
    75    99   102    1
    76    20    22   ar
    77    20    21   ar
    78    22    24   ar
    79    11    10    1
    80   149   150   ar
    81   148   150   ar
    82     5     6    1
    83     5     2    1
    84    89    88    1
    85    89    91   ar
    86   150   151    1
    87     6     8    1
    88    28    26   ar
    89     4     3    2
    90   111   112    1
    91   111   114    1
    92   121   123   ar
    93   121   119   ar
    94   118   119   ar
    95   118   116   ar
    96   123   122   ar
    97   119   117   ar
    98   102   103    1
    99   116   115   ar
   100   112   113    2
   101    21    23   ar
   102    24    26   ar
   103    24    23   ar
   104   122   120   ar
   105   117   115   ar
   106   117   120   ar
   107     3     2    1
   108   115   114    1
   109    10    13    1
   110    10     9    1
   111     2     1    1
   112    13    14    1
   113    46    45    2
   114   103   105   ar
   115   103   104   ar
   116   105   107   ar
   117   104   106   ar
   118    45    44    1
   119   107   108   ar
   120   106   108   ar
   121   108   109    1
   122    44    47    1
   123    44    43    1
   124    47    48    1
   125    48    50    1
   126    48    49    1
   127    54    53    2
   128    71    69   ar
   129    71    70   ar
   130    69    67   ar
   131    72    73    1
   132    53    52    1
   133    55    56    1
   134    55    52    1
   135    56    57    1
   136    52    51    1
   137    64    65    2
   138    64    63    1
   139    57    58    1
   140    70    68   ar
   141    74    75    2
   142    74    73    1
   143    60    59    1
   144    73    76    1
   145    67    68   ar
   146    67    66    1
   147    58    59    2
   148    63    66    1
   149    63    62    1
   150    59    61    1
   151    76    77    1
   152    78    77   ar
   153    78    80   ar
   154    77    79   ar
   155    80    82   ar
   156    79    81   ar
   157    82    81   ar
   158    82    83    1
