@<TRIPOS>MOLECULE
tmp/3q7aB02.pdb
 96 93 0 0 0
SMALL
GASTEIGER

@<TRIPOS>ATOM
      1  N         24.0100   -9.7430  -24.3780 N.3     1  ALA1       -0.1231
      2  CA        24.0340  -11.0900  -23.7310 C.3     1  ALA1        0.1694
      3  C         25.2310  -11.2630  -22.7950 C.2     1  ALA1        0.2592
      4  O         25.1440  -11.9790  -21.7890 O.2     1  ALA1       -0.2718
      5  CB        24.0240  -12.1850  -24.7880 C.3     1  ALA1        0.0304
      6  N         26.3390  -10.6010  -23.1270 N.am    2  THR2       -0.1953
      7  CA        27.5810  -10.7170  -22.3570 C.3     2  THR2        0.1897
      8  C         27.9460   -9.4400  -21.5920 C.2     2  THR2        0.2313
      9  O         29.0630   -9.3150  -21.0760 O.2     2  THR2       -0.2863
     10  CB        28.7720  -11.1380  -23.2540 C.3     2  THR2        0.1794
     11  OG1       28.9390  -10.1840  -24.3100 O.3     2  THR2       -0.2208
     12  CG2       28.5400  -12.5260  -23.8530 C.3     2  THR2        0.0378
     13  N         40.0270  -16.8880  -26.1540 N.3    46  PRO46      -0.2102
     14  CA        39.0360  -17.6300  -26.9460 C.3    46  PRO46       0.1504
     15  C         38.0630  -16.7190  -27.6960 C.2    46  PRO46       0.2576
     16  O         37.4900  -17.1270  -28.7050 O.2    46  PRO46      -0.2718
     17  CB        38.2700  -18.4440  -25.8930 C.3    46  PRO46       0.0282
     18  CG        39.1390  -18.4620  -24.6920 C.3    46  PRO46       0.0208
     19  CD        39.9100  -17.1880  -24.7140 C.3    46  PRO46       0.0893
     20  N         37.8880  -15.4970  -27.2000 N.am   47  ASN47      -0.1961
     21  CA        36.9400  -14.5450  -27.7760 C.3    47  ASN47       0.1819
     22  C         37.4810  -13.7810  -28.9860 C.2    47  ASN47       0.2621
     23  O         36.7050  -13.2540  -29.7850 O.2    47  ASN47      -0.2715
     24  CB        36.4740  -13.5580  -26.7030 C.3    47  ASN47       0.1195
     25  CG        35.8820  -14.2540  -25.4920 C.2    47  ASN47       0.2630
     26  OD1       34.7340  -14.6970  -25.5140 O.2    47  ASN47      -0.2716
     27  ND2       36.6650  -14.3490  -24.4250 N.am   47  ASN47      -0.0877
     28  N         38.8070  -13.7330  -29.1170 N.am   48  ALA48      -0.1963
     29  CA        39.4780  -12.9120  -30.1320 C.3    48  ALA48       0.1728
     30  C         39.2850  -13.4080  -31.5650 C.2    48  ALA48       0.2616
     31  O         39.2450  -14.6160  -31.8140 O.2    48  ALA48      -0.2715
     32  CB        40.9670  -12.7870  -29.8120 C.3    48  ALA48       0.0334
     33  N         39.1650  -12.4610  -32.4970 N.am   49  LEU49      -0.1977
     34  CA        39.1030  -12.7640  -33.9290 C.3    49  LEU49       0.1596
     35  C         40.4860  -13.1150  -34.4620 C.2    49  LEU49       0.2287
     36  O         40.6720  -14.1600  -35.0930 O.2    49  LEU49      -0.2864
     37  CB        38.5310  -11.5810  -34.7180 C.3    49  LEU49       0.0297
     38  CG        37.0150  -11.3680  -34.7460 C.3    49  LEU49       0.0022
     39  CD1       36.6910  -10.0380  -35.4170 C.3    49  LEU49       0.0001
     40  CD2       36.2940  -12.5190  -35.4480 C.3    49  LEU49       0.0001
     41  N         30.7500  -16.4970  -18.9260 N.3   344  VAL344     -0.1245
     42  CA        31.8750  -16.4230  -19.8590 C.3   344  VAL344      0.1561
     43  C         33.1720  -16.8870  -19.1880 C.2   344  VAL344      0.2260
     44  O         33.8760  -17.7440  -19.7240 O.2   344  VAL344     -0.2867
     45  CB        32.0280  -14.9980  -20.4700 C.3   344  VAL344      0.0252
     46  CG1       33.3730  -14.8390  -21.1760 C.3   344  VAL344      0.0019
     47  CG2       30.8830  -14.7120  -21.4370 C.3   344  VAL344      0.0019
     48  N         21.7630  -18.7100  -25.1550 N.3   450  GLU450     -0.1231
     49  CA        22.9850  -19.4580  -25.4290 C.3   450  GLU450      0.1699
     50  C         24.2030  -18.5410  -25.5570 C.2   450  GLU450      0.2592
     51  O         24.1670  -17.5460  -26.2810 O.2   450  GLU450     -0.2718
     52  CB        22.8100  -20.2930  -26.7000 C.3   450  GLU450      0.0402
     53  CG        23.7900  -21.4400  -26.8400 C.3   450  GLU450      0.1161
     54  CD        23.5840  -22.2390  -28.1150 C.2   450  GLU450      0.3649
     55  OE1       23.3910  -23.4700  -28.0240 O.co2 450  GLU450     -0.2457
     56  OE2       23.6060  -21.6380  -29.2100 O.co2 450  GLU450     -0.2457
     57  N         25.2660  -18.8750  -24.8290 N.am  451  ILE451     -0.1966
     58  CA        26.5600  -18.2040  -24.9770 C.3   451  ILE451      0.1727
     59  C         27.6420  -19.2690  -25.0990 C.2   451  ILE451      0.2616
     60  O         28.0040  -19.9120  -24.1120 O.2   451  ILE451     -0.2715
     61  CB        26.8970  -17.2460  -23.7920 C.3   451  ILE451      0.0290
     62  CG1       25.7890  -16.2070  -23.5780 C.3   451  ILE451      0.0022
     63  CG2       28.2440  -16.5420  -24.0330 C.3   451  ILE451      0.0023
     64  CD1       25.9230  -15.4050  -22.2870 C.3   451  ILE451      0.0001
     65  N         28.1400  -19.4660  -26.3160 N.am  452  ILE452     -0.1963
     66  CA        29.2110  -20.4270  -26.5550 C.3   452  ILE452      0.1727
     67  C         30.5240  -19.6840  -26.7820 C.2   452  ILE452      0.2616
     68  O         30.7990  -19.2050  -27.8860 O.2   452  ILE452     -0.2715
     69  CB        28.9120  -21.3750  -27.7540 C.3   452  ILE452      0.0290
     70  CG1       27.4590  -21.8840  -27.7290 C.3   452  ILE452      0.0022
     71  CG2       29.9150  -22.5310  -27.7870 C.3   452  ILE452      0.0023
     72  CD1       27.1080  -22.7850  -26.5530 C.3   452  ILE452      0.0001
     73  N         31.3210  -19.5870  -25.7220 N.am  453  VAL453     -0.1963
     74  CA        32.6170  -18.9060  -25.7670 C.3   453  VAL453      0.1727
     75  C         33.5680  -19.6270  -26.7270 C.2   453  VAL453      0.2617
     76  O         33.7410  -20.8440  -26.6440 O.2   453  VAL453     -0.2715
     77  CB        33.2420  -18.7880  -24.3470 C.3   453  VAL453      0.0290
     78  CG1       34.6800  -18.2690  -24.4060 C.3   453  VAL453      0.0023
     79  CG2       32.3840  -17.8870  -23.4630 C.3   453  VAL453      0.0023
     80  N         34.1590  -18.8670  -27.6480 N.am  454  GLY454     -0.1940
     81  CA        35.1250  -19.4170  -28.5990 C.3   454  GLY454      0.2014
     82  C         34.5160  -19.9420  -29.8870 C.2   454  GLY454      0.2639
     83  O         35.2310  -20.4520  -30.7510 O.2   454  GLY454     -0.2714
     84  N         33.1970  -19.8250  -30.0180 N.am  455  GLY455     -0.1939
     85  CA        32.5120  -20.2290  -31.2450 C.3   455  GLY455      0.2014
     86  C         31.7690  -21.5460  -31.1250 C.2   455  GLY455      0.2638
     87  O         32.0120  -22.3300  -30.2050 O.2   455  GLY455     -0.2714
     88  N         30.8840  -21.7960  -32.0840 N.am  456  LYS456     -0.1977
     89  CA        29.9140  -22.8870  -31.9900 C.3   456  LYS456      0.1596
     90  C         30.5110  -24.2980  -31.9750 C.2   456  LYS456      0.2287
     91  O         29.8650  -25.2320  -31.5090 O.2   456  LYS456     -0.2864
     92  CB        28.8350  -22.7400  -33.0700 C.3   456  LYS456      0.0298
     93  CG        27.9050  -21.5610  -32.8080 C.3   456  LYS456      0.0038
     94  CD        26.8740  -21.3750  -33.9050 C.3   456  LYS456      0.0206
     95  CE        25.8660  -20.3010  -33.5180 C.3   456  LYS456      0.1093
     96  NZ        24.7990  -20.1550  -34.5470 N.3   456  LYS456     -0.1314
@<TRIPOS>BOND
     1    40    38    1
     2    39    38    1
     3    36    35    2
     4    38    37    1
     5    37    34    1
     6    96    95    1
     7    35    34    1
     8    34    33    1
     9    94    95    1
    10    94    93    1
    11    92    93    1
    12    92    89    1
    13    33    30   am
    14    88    89    1
    15    88    86   am
    16    89    90    1
    17    90    91    2
    18    31    30    2
    19    30    29    1
    20    85    86    1
    21    85    84    1
    22    86    87    2
    23    83    82    2
    24    29    32    1
    25    29    28    1
    26    84    82   am
    27    82    81    1
    28    23    22    2
    29    56    54   ar
    30    28    22   am
    31    22    21    1
    32    16    15    2
    33    81    80    1
    34    54    55   ar
    35    54    53    1
    36    68    67    2
    37    71    69    1
    38    21    20    1
    39    21    24    1
    40    69    70    1
    41    69    66    1
    42    70    72    1
    43    15    20   am
    44    15    14    1
    45    80    75   am
    46    14    13    1
    47    14    17    1
    48    53    52    1
    49    67    66    1
    50    67    73   am
    51    75    76    2
    52    75    74    1
    53    24    25    1
    54    52    49    1
    55    66    65    1
    56    65    59   am
    57    51    50    2
    58    13    19    1
    59    17    18    1
    60    74    73    1
    61    74    77    1
    62    50    49    1
    63    50    57   am
    64    26    25    2
    65    25    27   am
    66    49    48    1
    67    59    58    1
    68    59    60    2
    69    58    57    1
    70    58    61    1
    71     5     2    1
    72    19    18    1
    73    78    77    1
    74     1     2    1
    75    77    79    1
    76    11    10    1
    77    63    61    1
    78    12    10    1
    79    61    62    1
    80     2     3    1
    81    62    64    1
    82    10     7    1
    83     6     3   am
    84     6     7    1
    85     3     4    2
    86     7     8    1
    87     8     9    2
    88    47    45    1
    89    46    45    1
    90    45    42    1
    91    42    43    1
    92    42    41    1
    93    44    43    2
