@<TRIPOS>MOLECULE
tmp/3q7gA01.pdb
 130 126 0 0 0
SMALL
GASTEIGER

@<TRIPOS>ATOM
      1  N         20.4760  -44.2830   41.2040 N.3    16  HIS16      -0.1241
      2  CA        20.4660  -43.7310   39.8510 C.3    16  HIS16       0.1621
      3  C         19.1260  -43.1000   39.4840 C.2    16  HIS16       0.2264
      4  O         19.0810  -42.0110   38.9000 O.2    16  HIS16      -0.2867
      5  CB        20.8200  -44.8160   38.8380 C.3    16  HIS16       0.0745
      6  CG        20.7220  -44.3620   37.4180 C.ar   16  HIS16       0.0817
      7  ND1       19.6390  -44.6520   36.6150 N.ar   16  HIS16      -0.2268
      8  CD2       21.5630  -43.6160   36.6640 C.ar   16  HIS16       0.1154
      9  CE1       19.8190  -44.1080   35.4250 C.ar   16  HIS16       0.1986
     10  NE2       20.9790  -43.4730   35.4290 N.ar   16  HIS16      -0.2212
     11  N         18.4140  -39.9540   41.6090 N.3    19  PHE19      -0.1227
     12  CA        19.2370  -38.8860   41.0800 C.3    19  PHE19       0.1736
     13  C         18.5460  -38.2930   39.8440 C.2    19  PHE19       0.2595
     14  O         18.3090  -37.0840   39.7710 O.2    19  PHE19      -0.2718
     15  CB        20.6300  -39.4310   40.7330 C.3    19  PHE19       0.0547
     16  CG        21.5080  -38.4350   40.0170 C.ar   19  PHE19      -0.0202
     17  CD1       21.9320  -37.2690   40.6510 C.ar   19  PHE19      -0.0042
     18  CD2       21.8400  -38.6300   38.6780 C.ar   19  PHE19      -0.0042
     19  CE1       22.6730  -36.3000   39.9560 C.ar   19  PHE19      -0.0003
     20  CE2       22.5800  -37.6720   37.9720 C.ar   19  PHE19      -0.0003
     21  CZ        22.9960  -36.5070   38.6060 C.ar   19  PHE19      -0.0000
     22  N         18.1970  -39.1590   38.8980 N.am   20  LEU20      -0.1980
     23  CA        17.5240  -38.7390   37.6750 C.3    20  LEU20       0.1596
     24  C         16.2430  -37.9740   37.9870 C.2    20  LEU20       0.2287
     25  O         16.0630  -36.8460   37.5210 O.2    20  LEU20      -0.2864
     26  CB        17.2080  -39.9520   36.8030 C.3    20  LEU20       0.0297
     27  CG        18.0050  -40.0340   35.4990 C.3    20  LEU20       0.0022
     28  CD1       19.4890  -40.1230   35.8010 C.3    20  LEU20       0.0001
     29  CD2       17.5680  -41.2550   34.7130 C.3    20  LEU20       0.0001
     30  N         16.9810  -34.6100   39.3200 N.3    23  LYS23      -0.1245
     31  CA        17.4850  -33.7280   38.2780 C.3    23  LYS23       0.1561
     32  C         16.3040  -33.2010   37.4440 C.2    23  LYS23       0.2260
     33  O         16.2720  -32.0330   37.0690 O.2    23  LYS23      -0.2867
     34  CB        18.4800  -34.4880   37.3990 C.3    23  LYS23       0.0271
     35  CG        19.4410  -33.6070   36.6280 C.3    23  LYS23       0.0035
     36  CD        20.6790  -34.3840   36.1450 C.3    23  LYS23       0.0206
     37  CE        20.3760  -35.3530   34.9930 C.3    23  LYS23       0.1093
     38  NZ        19.9800  -34.6790   33.7040 N.3    23  LYS23      -0.1314
     39  N         23.2120  -27.6380   40.5530 N.3    78  ARG78      -0.1231
     40  CA        23.5620  -28.8080   39.7450 C.3    78  ARG78       0.1694
     41  C         24.8620  -29.4550   40.2520 C.2    78  ARG78       0.2591
     42  O         24.9640  -30.6780   40.3140 O.2    78  ARG78      -0.2718
     43  CB        23.7160  -28.4160   38.2770 C.3    78  ARG78       0.0321
     44  CG        24.3080  -29.4920   37.3780 C.3    78  ARG78       0.0489
     45  CD        23.4780  -30.7740   37.3920 C.3    78  ARG78       0.2205
     46  NE        22.1230  -30.5900   36.8620 N.pl3  78  ARG78      -0.0865
     47  CZ        21.8000  -30.6310   35.5680 C.cat  78  ARG78       0.5346
     48  NH1       22.7340  -30.8530   34.6520 N.pl3  78  ARG78       0.1354
     49  NH2       20.5410  -30.4530   35.1920 N.pl3  78  ARG78       0.1354
     50  N         25.8390  -28.6260   40.6150 N.am   79  GLN79      -0.1979
     51  CA        27.1170  -29.1130   41.1260 C.3    79  GLN79       0.1601
     52  C         26.9050  -29.8930   42.4270 C.2    79  GLN79       0.2287
     53  O         27.5240  -30.9320   42.6500 O.2    79  GLN79      -0.2864
     54  CB        28.0790  -27.9460   41.3410 C.3    79  GLN79       0.0394
     55  CG        28.5910  -27.3370   40.0480 C.3    79  GLN79       0.0908
     56  CD        29.5920  -26.2280   40.2820 C.2    79  GLN79       0.2608
     57  OE1       29.2820  -25.2200   40.9250 O.2    79  GLN79      -0.2717
     58  NE2       30.8060  -26.4070   39.7630 N.am   79  GLN79      -0.0878
     59  N         25.3110  -33.3200   41.5910 N.3    82  VAL82      -0.1245
     60  CA        26.3120  -34.1950   41.0080 C.3    82  VAL82       0.1561
     61  C         27.3240  -34.7110   42.0290 C.2    82  VAL82       0.2260
     62  O         27.7370  -35.8670   41.9610 O.2    82  VAL82      -0.2867
     63  CB        27.0530  -33.4730   39.8660 C.3    82  VAL82       0.0252
     64  CG1       28.3230  -34.2350   39.4740 C.3    82  VAL82       0.0019
     65  CG2       26.1180  -33.3300   38.6670 C.3    82  VAL82       0.0019
     66  N         25.6240  -37.3860   44.2460 N.3    85  HIS85      -0.1241
     67  CA        25.4040  -38.6050   43.4680 C.3    85  HIS85       0.1621
     68  C         26.7020  -39.3780   43.2540 C.2    85  HIS85       0.2264
     69  O         26.7310  -40.5960   43.3660 O.2    85  HIS85      -0.2867
     70  CB        24.7990  -38.2650   42.1050 C.3    85  HIS85       0.0745
     71  CG        24.6660  -39.4460   41.1970 C.ar   85  HIS85       0.0817
     72  ND1       23.8010  -40.4900   41.4530 N.ar   85  HIS85      -0.2268
     73  CD2       25.2770  -39.7450   40.0260 C.ar   85  HIS85       0.1154
     74  CE1       23.8810  -41.3780   40.4770 C.ar   85  HIS85       0.1986
     75  NE2       24.7680  -40.9490   39.5980 N.ar   85  HIS85      -0.2212
     76  N         32.7010  -48.0530   35.1150 N.3   135  HIS135     -0.1241
     77  CA        32.4610  -46.7120   35.6330 C.3   135  HIS135      0.1621
     78  C         33.6740  -45.8340   35.4160 C.2   135  HIS135      0.2264
     79  O         33.5580  -44.6350   35.1470 O.2   135  HIS135     -0.2867
     80  CB        32.1670  -46.7640   37.1250 C.3   135  HIS135      0.0745
     81  CG        30.7320  -46.5370   37.4630 C.ar  135  HIS135      0.0817
     82  ND1       30.2280  -45.2860   37.7540 N.ar  135  HIS135     -0.2268
     83  CD2       29.6840  -47.3940   37.5220 C.ar  135  HIS135      0.1154
     84  CE1       28.9290  -45.3840   37.9720 C.ar  135  HIS135      0.1986
     85  NE2       28.5740  -46.6510   37.8370 N.ar  135  HIS135     -0.2212
     86  N         33.7120  -45.3560   31.4760 N.3   138  ARG138     -0.1231
     87  CA        32.6150  -44.4920   31.0700 C.3   138  ARG138      0.1694
     88  C         32.8530  -43.0350   31.4810 C.2   138  ARG138      0.2592
     89  O         32.6400  -42.1150   30.6820 O.2   138  ARG138     -0.2718
     90  CB        31.2780  -44.9990   31.6490 C.3   138  ARG138      0.0321
     91  CG        30.0560  -44.5250   30.8510 C.3   138  ARG138      0.0489
     92  CD        28.7440  -45.1000   31.3910 C.3   138  ARG138      0.2205
     93  NE        28.7150  -46.5580   31.3480 N.pl3 138  ARG138     -0.0865
     94  CZ        28.7360  -47.3390   32.4230 C.cat 138  ARG138      0.5346
     95  NH1       28.7800  -46.7990   33.6260 N.pl3 138  ARG138      0.1354
     96  NH2       28.7220  -48.6560   32.3030 N.pl3 138  ARG138      0.1354
     97  N         33.3180  -42.8240   32.7070 N.am  139  HIS139     -0.1976
     98  CA        33.5580  -41.4680   33.1810 C.3   139  HIS139      0.1656
     99  C         34.6510  -40.7910   32.3620 C.2   139  HIS139      0.2291
    100  O         34.4300  -39.7230   31.7740 O.2   139  HIS139     -0.2864
    101  CB        33.9530  -41.4890   34.6540 C.3   139  HIS139      0.0771
    102  CG        34.4100  -40.1590   35.1720 C.ar  139  HIS139      0.0820
    103  ND1       33.7360  -38.9830   34.9110 N.ar  139  HIS139     -0.2267
    104  CD2       35.4680  -39.8180   35.9470 C.ar  139  HIS139      0.1154
    105  CE1       34.3560  -37.9770   35.5020 C.ar  139  HIS139      0.1986
    106  NE2       35.4100  -38.4570   36.1380 N.ar  139  HIS139     -0.2212
    107  N         33.3540  -39.8610   29.1120 N.3   142  HIS142     -0.1226
    108  CA        32.4970  -38.6760   28.9570 C.3   142  HIS142      0.1752
    109  C         33.2980  -37.3790   29.1210 C.2   142  HIS142      0.2595
    110  O         32.9980  -36.3950   28.4510 O.2   142  HIS142     -0.2718
    111  CB        31.3150  -38.6840   29.9330 C.3   142  HIS142      0.0759
    112  CG        30.2890  -37.6270   29.6180 C.ar  142  HIS142      0.0818
    113  ND1       30.0730  -36.5270   30.4370 N.ar  142  HIS142     -0.2268
    114  CD2       29.4850  -37.4660   28.5380 C.ar  142  HIS142      0.1154
    115  CE1       29.1820  -35.7410   29.8730 C.ar  142  HIS142      0.1986
    116  NE2       28.8140  -36.2880   28.7260 N.ar  142  HIS142     -0.2212
    117  N         34.2850  -37.3710   30.0160 N.am  143  VAL143     -0.1980
    118  CA        35.1240  -36.1900   30.2230 C.3   143  VAL143      0.1595
    119  C         35.8440  -35.8230   28.9180 C.2   143  VAL143      0.2287
    120  O         36.0370  -34.6460   28.5980 O.2   143  VAL143     -0.2864
    121  CB        36.2300  -36.4530   31.2920 C.3   143  VAL143      0.0276
    122  CG1       37.1250  -35.2070   31.4300 C.3   143  VAL143      0.0022
    123  CG2       35.6050  -36.8100   32.6270 C.3   143  VAL143      0.0022
    124  N         33.5760  -33.6250   26.8700 N.3   146  VAL146     -0.1245
    125  CA        33.2100  -32.3650   27.4970 C.3   146  VAL146      0.1561
    126  C         34.3750  -31.3930   27.6450 C.2   146  VAL146      0.2260
    127  O         34.3380  -30.2750   27.1220 O.2   146  VAL146     -0.2867
    128  CB        32.5920  -32.6320   28.8850 C.3   146  VAL146      0.0252
    129  CG1       32.2000  -31.3380   29.5890 C.3   146  VAL146      0.0019
    130  CG2       31.3310  -33.4800   28.7030 C.3   146  VAL146      0.0019
@<TRIPOS>BOND
     1   124   125    1
     2   127   126    2
     3   125   126    1
     4   125   128    1
     5   110   109    2
     6   114   116   ar
     7   114   112   ar
     8   120   119    2
     9   130   128    1
    10   116   115   ar
    11   128   129    1
    12   119   118    1
    13   108   107    1
    14   108   109    1
    15   108   111    1
    16   109   117   am
    17   112   111    1
    18   112   113   ar
    19   115   113   ar
    20   117   118    1
    21   118   121    1
    22    89    88    2
    23    91    92    1
    24    91    90    1
    25    87    86    1
    26    87    88    1
    27    87    90    1
    28   121   122    1
    29   121   123    1
    30    93    92    1
    31    93    94    2
    32    88    97   am
    33   100    99    2
    34    96    94    1
    35    99    98    1
    36    94    95    1
    37    97    98    1
    38    98   101    1
    39    38    37    1
    40    48    47    1
    41   101   102    1
    42    29    27    1
    43   103   102   ar
    44   103   105   ar
    45    37    36    1
    46    76    77    1
    47    79    78    2
    48   102   104   ar
    49    49    47    1
    50    78    77    1
    51     9    10   ar
    52     9     7   ar
    53    10     8   ar
    54    27    28    1
    55    27    26    1
    56   105   106   ar
    57    47    46    2
    58    77    80    1
    59   104   106   ar
    60    36    35    1
    61     7     6   ar
    62    35    34    1
    63     8     6   ar
    64    26    23    1
    65    46    45    1
    66    33    32    2
    67    80    81    1
    68    44    45    1
    69    44    43    1
    70    34    31    1
    71     6     5    1
    72    32    31    1
    73    81    83   ar
    74    81    82   ar
    75    25    24    2
    76    83    85   ar
    77    23    24    1
    78    23    22    1
    79    82    84   ar
    80    85    84   ar
    81    20    21   ar
    82    20    18   ar
    83    43    40    1
    84    31    30    1
    85    21    19   ar
    86    65    63    1
    87    18    16   ar
    88     5     2    1
    89    22    13   am
    90     4     3    2
    91    64    63    1
    92     3     2    1
    93    75    73   ar
    94    75    74   ar
    95    40    41    1
    96    40    39    1
    97    58    56   am
    98    14    13    2
    99    13    12    1
   100     2     1    1
   101    63    60    1
   102    19    17   ar
   103    16    17   ar
   104    16    15    1
   105    73    71   ar
   106    55    56    1
   107    55    54    1
   108    41    42    2
   109    41    50   am
   110    56    57    2
   111    74    72   ar
   112    50    51    1
   113    15    12    1
   114    60    59    1
   115    60    61    1
   116    12    11    1
   117    51    54    1
   118    51    52    1
   119    71    72   ar
   120    71    70    1
   121    62    61    2
   122    70    67    1
   123    52    53    2
   124    68    69    2
   125    68    67    1
   126    67    66    1
