@<TRIPOS>MOLECULE
tmp/3q7gB00.pdb
 158 152 0 0 0
SMALL
GASTEIGER

@<TRIPOS>ATOM
      1  N         11.7300  -44.6060   16.9560 N.3    14  SER14      -0.1202
      2  CA        11.6590  -43.1460   17.0030 C.3    14  SER14       0.2020
      3  C         13.0460  -42.5050   17.0220 C.2    14  SER14       0.2619
      4  O         14.0400  -43.1770   17.2810 O.2    14  SER14      -0.2717
      5  CB        10.9230  -42.7190   18.2620 C.3    14  SER14       0.2103
      6  OG        11.7070  -43.1080   19.3810 O.3    14  SER14      -0.2182
      7  N         13.0980  -41.2010   16.7590 N.am   15  GLU15      -0.1965
      8  CA        14.3520  -40.4540   16.7720 C.3    15  GLU15       0.1733
      9  C         14.9980  -40.5610   18.1560 C.2    15  GLU15       0.2616
     10  O         16.1760  -40.8920   18.2810 O.2    15  GLU15      -0.2715
     11  CB        14.0960  -38.9760   16.4400 C.3    15  GLU15       0.0429
     12  CG        15.2470  -38.0000   16.7650 C.3    15  GLU15       0.1163
     13  CD        16.6100  -38.3760   16.1400 C.2    15  GLU15       0.3649
     14  OE1       16.6530  -39.0610   15.0860 O.co2  15  GLU15      -0.2457
     15  OE2       17.6510  -37.9480   16.7180 O.co2  15  GLU15      -0.2457
     16  N         14.2090  -40.2850   19.1880 N.am   16  HIS16      -0.1959
     17  CA        14.6990  -40.3520   20.5480 C.3    16  HIS16       0.1787
     18  C         15.2570  -41.7470   20.8320 C.2    16  HIS16       0.2620
     19  O         16.3770  -41.8970   21.2990 O.2    16  HIS16      -0.2715
     20  CB        13.5750  -40.0510   21.5420 C.3    16  HIS16       0.0785
     21  CG        14.0550  -39.9080   22.9520 C.ar   16  HIS16       0.0821
     22  ND1       14.6830  -38.7660   23.4090 N.ar   16  HIS16      -0.2267
     23  CD2       14.0510  -40.7820   23.9870 C.ar   16  HIS16       0.1154
     24  CE1       15.0430  -38.9460   24.6670 C.ar   16  HIS16       0.1986
     25  NE2       14.6710  -40.1600   25.0410 N.ar   16  HIS16      -0.2212
     26  N         14.4710  -42.7760   20.5610 N.am   17  GLU17      -0.1977
     27  CA        14.9650  -44.1180   20.7860 C.3    17  GLU17       0.1602
     28  C         16.2880  -44.3610   20.0230 C.2    17  GLU17       0.2287
     29  O         17.2890  -44.7450   20.6330 O.2    17  GLU17      -0.2864
     30  CB        13.9170  -45.1510   20.3660 C.3    17  GLU17       0.0415
     31  CG        14.3330  -46.5740   20.5780 C.3    17  GLU17       0.1163
     32  CD        13.2930  -47.6140   20.2940 C.2    17  GLU17       0.3649
     33  OE1       12.2200  -47.2860   19.8350 O.co2  17  GLU17      -0.2457
     34  OE2       13.5390  -48.8290   20.3610 O.co2  17  GLU17      -0.2457
     35  N         18.4260  -42.3430   18.8710 N.3    19  PHE19      -0.1227
     36  CA        19.4780  -41.4810   19.3770 C.3    19  PHE19       0.1736
     37  C         20.1620  -42.0540   20.6290 C.2    19  PHE19       0.2595
     38  O         21.3890  -42.0170   20.7390 O.2    19  PHE19      -0.2718
     39  CB        18.9110  -40.1090   19.7080 C.3    19  PHE19       0.0547
     40  CG        19.8740  -39.2250   20.4450 C.ar   19  PHE19      -0.0202
     41  CD1       21.1070  -38.9110   19.8990 C.ar   19  PHE19      -0.0042
     42  CD2       19.5260  -38.6730   21.6730 C.ar   19  PHE19      -0.0042
     43  CE1       21.9720  -38.0580   20.5530 C.ar   19  PHE19      -0.0003
     44  CE2       20.3770  -37.8230   22.3390 C.ar   19  PHE19      -0.0003
     45  CZ        21.6080  -37.5070   21.7810 C.ar   19  PHE19      -0.0000
     46  N         19.3620  -42.5560   21.5710 N.am   20  LEU20      -0.1980
     47  CA        19.9040  -43.1150   22.8030 C.3    20  LEU20       0.1596
     48  C         20.7460  -44.3420   22.4760 C.2    20  LEU20       0.2287
     49  O         21.8860  -44.4700   22.9380 O.2    20  LEU20      -0.2864
     50  CB        18.7660  -43.4730   23.7690 C.3    20  LEU20       0.0297
     51  CG        18.0240  -42.2780   24.3950 C.3    20  LEU20       0.0022
     52  CD1       16.7710  -42.7630   25.1150 C.3    20  LEU20       0.0001
     53  CD2       18.9470  -41.5280   25.3610 C.3    20  LEU20       0.0001
     54  N         21.1470  -34.9550   16.3880 N.3    85  HIS85      -0.1241
     55  CA        19.9270  -35.0850   17.1690 C.3    85  HIS85       0.1621
     56  C         19.2350  -33.7520   17.4100 C.2    85  HIS85       0.2264
     57  O         18.0060  -33.6430   17.2690 O.2    85  HIS85      -0.2867
     58  CB        20.2230  -35.7460   18.5070 C.3    85  HIS85       0.0745
     59  CG        19.0200  -35.8930   19.3810 C.ar   85  HIS85       0.0817
     60  ND1       17.9850  -36.7550   19.0850 N.ar   85  HIS85      -0.2268
     61  CD2       18.6880  -35.2880   20.5480 C.ar   85  HIS85       0.1154
     62  CE1       17.0690  -36.6770   20.0350 C.ar   85  HIS85       0.1986
     63  NE2       17.4710  -35.7950   20.9340 N.ar   85  HIS85      -0.2212
     64  N         17.4450  -32.6450   14.2550 N.3    88  ARG88      -0.1231
     65  CA        16.2080  -33.3600   13.9940 C.3    88  ARG88       0.1694
     66  C         15.1120  -32.9380   14.9720 C.2    88  ARG88       0.2591
     67  O         13.9290  -32.9920   14.6440 O.2    88  ARG88      -0.2718
     68  CB        16.4170  -34.8690   14.1180 C.3    88  ARG88       0.0321
     69  CG        17.2880  -35.4390   13.0260 C.3    88  ARG88       0.0489
     70  CD        17.4860  -36.9400   13.1980 C.3    88  ARG88       0.2205
     71  NE        18.3790  -37.4440   12.1620 N.pl3  88  ARG88      -0.0865
     72  CZ        18.9170  -38.6640   12.1310 C.cat  88  ARG88       0.5346
     73  NH1       18.6670  -39.5490   13.1040 N.pl3  88  ARG88       0.1354
     74  NH2       19.7020  -38.9970   11.1010 N.pl3  88  ARG88       0.1354
     75  N         15.4970  -32.5360   16.1810 N.am   89  VAL89      -0.1980
     76  CA        14.4750  -32.1490   17.1470 C.3    89  VAL89       0.1595
     77  C         13.8650  -30.8240   16.7170 C.2    89  VAL89       0.2287
     78  O         12.6520  -30.6650   16.7480 O.2    89  VAL89      -0.2864
     79  CB        15.0380  -32.0450   18.5770 C.3    89  VAL89       0.0276
     80  CG1       14.0230  -31.3660   19.4810 C.3    89  VAL89       0.0022
     81  CG2       15.3400  -33.4560   19.1250 C.3    89  VAL89       0.0022
     82  N         11.6540  -31.3760   13.6610 N.3    92  LEU92      -0.1231
     83  CA        10.3700  -31.9530   14.0150 C.3    92  LEU92       0.1693
     84  C          9.4370  -30.8720   14.6180 C.2    92  LEU92       0.2591
     85  O          8.2320  -30.8120   14.3050 O.2    92  LEU92      -0.2718
     86  CB        10.5690  -33.0990   15.0030 C.3    92  LEU92       0.0284
     87  CG         9.3100  -33.9340   15.2520 C.3    92  LEU92       0.0019
     88  CD1        8.7940  -34.5220   13.9300 C.3    92  LEU92       0.0001
     89  CD2        9.6260  -35.0490   16.2400 C.3    92  LEU92       0.0001
     90  N          9.9970  -30.0170   15.4700 N.am   93  ILE93      -0.1980
     91  CA         9.2070  -28.9640   16.1060 C.3    93  ILE93       0.1595
     92  C          8.6720  -27.9820   15.0560 C.2    93  ILE93       0.2287
     93  O          7.5090  -27.5930   15.1130 O.2    93  ILE93      -0.2864
     94  CB        10.0540  -28.2280   17.1780 C.3    93  ILE93       0.0276
     95  CG1       10.2080  -29.1290   18.4090 C.3    93  ILE93       0.0022
     96  CG2        9.4000  -26.9180   17.5470 C.3    93  ILE93       0.0022
     97  CD1       11.1410  -28.6000   19.5050 C.3    93  ILE93       0.0001
     98  N          5.9830  -29.7730   12.9370 N.3    96  GLN96      -0.1245
     99  CA         4.7020  -29.9070   13.5940 C.3    96  GLN96       0.1566
    100  C          3.9900  -28.5590   13.6750 C.2    96  GLN96       0.2260
    101  O          2.7650  -28.4990   13.5660 O.2    96  GLN96      -0.2867
    102  CB         4.8600  -30.5110   14.9920 C.3    96  GLN96       0.0367
    103  CG         5.4870  -31.9030   14.9620 C.3    96  GLN96       0.0905
    104  CD         5.5930  -32.5390   16.3450 C.2    96  GLN96       0.2608
    105  OE1        5.9560  -31.8800   17.3320 O.2    96  GLN96      -0.2717
    106  NE2        5.2900  -33.8320   16.4180 N.am   96  GLN96      -0.0878
    107  N         -0.2960  -25.7800   20.9840 N.3   127  ARG127     -0.1245
    108  CA         0.5550  -26.7970   21.5930 C.3   127  ARG127      0.1563
    109  C          1.9230  -26.8750   20.8910 C.2   127  ARG127      0.2260
    110  O          2.9520  -26.9730   21.5590 O.2   127  ARG127     -0.2867
    111  CB        -0.1470  -28.1590   21.6000 C.3   127  ARG127      0.0307
    112  CG        -1.0320  -28.3650   22.8340 C.3   127  ARG127      0.0489
    113  CD        -1.7770  -29.6900   22.7960 C.3   127  ARG127      0.2205
    114  NE        -0.8730  -30.8380   22.7400 N.pl3 127  ARG127     -0.0865
    115  CZ        -0.1300  -31.2720   23.7560 C.cat 127  ARG127      0.5346
    116  NH1       -0.1710  -30.6580   24.9300 N.pl3 127  ARG127      0.1354
    117  NH2        0.6500  -32.3330   23.5960 N.pl3 127  ARG127      0.1354
    118  N          5.4930  -26.2220   22.6560 N.3   131  LYS131     -0.1245
    119  CA         6.5930  -27.1660   22.6340 C.3   131  LYS131      0.1561
    120  C          7.8600  -26.4440   22.1950 C.2   131  LYS131      0.2260
    121  O          8.9510  -26.7890   22.6480 O.2   131  LYS131     -0.2867
    122  CB         6.3350  -28.3510   21.7020 C.3   131  LYS131      0.0271
    123  CG         7.3800  -29.4460   21.9010 C.3   131  LYS131      0.0035
    124  CD         6.9870  -30.7730   21.2610 C.3   131  LYS131      0.0206
    125  CE         7.9640  -31.8940   21.6510 C.3   131  LYS131      0.1093
    126  NZ         7.8360  -32.3630   23.0650 N.3   131  LYS131     -0.1314
    127  N          8.9370  -24.6260   25.4110 N.3   134  ARG134     -0.1231
    128  CA         9.5860  -25.5080   26.3750 C.3   134  ARG134      0.1694
    129  C         10.9990  -25.8030   25.9210 C.2   134  ARG134      0.2592
    130  O         11.9630  -25.6530   26.6840 O.2   134  ARG134     -0.2718
    131  CB         8.8310  -26.8220   26.5170 C.3   134  ARG134      0.0321
    132  CG         7.5630  -26.7500   27.3320 C.3   134  ARG134      0.0489
    133  CD         7.8090  -26.3910   28.8020 C.3   134  ARG134      0.2205
    134  NE         6.5360  -25.8590   29.3980 N.pl3 134  ARG134     -0.0865
    135  CZ         5.9730  -24.7530   28.8730 C.cat 134  ARG134      0.5346
    136  NH1        6.6470  -24.1340   27.8900 N.pl3 134  ARG134      0.1354
    137  NH2        4.8250  -24.2620   29.3330 N.pl3 134  ARG134      0.1354
    138  N         11.1240  -26.2170   24.6700 N.am  135  HIS135     -0.1976
    139  CA        12.4260  -26.5610   24.1310 C.3   135  HIS135      0.1656
    140  C         13.4350  -25.4170   24.2750 C.2   135  HIS135      0.2291
    141  O         14.5840  -25.6330   24.6930 O.2   135  HIS135     -0.2864
    142  CB        12.2680  -27.0010   22.6760 C.3   135  HIS135      0.0771
    143  CG        13.5270  -27.4910   22.0460 C.ar  135  HIS135      0.0820
    144  ND1       14.4030  -26.6520   21.3940 N.ar  135  HIS135     -0.2267
    145  CD2       14.0610  -28.7340   21.9660 C.ar  135  HIS135      0.1154
    146  CE1       15.4240  -27.3550   20.9410 C.ar  135  HIS135      0.1986
    147  NE2       15.2420  -28.6210   21.2760 N.ar  135  HIS135     -0.2212
    148  N         14.2950  -25.1660   28.0570 N.3   138  ARG138     -0.1245
    149  CA        15.0570  -26.3110   28.5300 C.3   138  ARG138      0.1563
    150  C         16.5190  -26.2310   28.0880 C.2   138  ARG138      0.2260
    151  O         17.4260  -26.5250   28.8700 O.2   138  ARG138     -0.2867
    152  CB        14.4460  -27.6240   28.0310 C.3   138  ARG138      0.0307
    153  CG        14.9080  -28.8630   28.8120 C.3   138  ARG138      0.0489
    154  CD        14.4320  -30.1680   28.1780 C.3   138  ARG138      0.2205
    155  NE        12.9840  -30.2000   27.9620 N.pl3 138  ARG138     -0.0865
    156  CZ        12.0630  -30.3180   28.9180 C.cat 138  ARG138      0.5346
    157  NH1       12.4260  -30.4230   30.1920 N.pl3 138  ARG138      0.1354
    158  NH2       10.7670  -30.3280   28.5990 N.pl3 138  ARG138      0.1354
@<TRIPOS>BOND
     1    74    72    1
     2    72    71    2
     3    72    73    1
     4    71    70    1
     5    98    99    1
     6    69    70    1
     7    69    68    1
     8   101   100    2
     9    99   100    1
    10    99   102    1
    11    82    83    1
    12    88    87    1
    13    65    68    1
    14    65    64    1
    15    65    66    1
    16    83    84    1
    17    83    86    1
    18    85    84    2
    19    84    90   am
    20    67    66    2
    21   103   102    1
    22   103   104    1
    23    66    75   am
    24    86    87    1
    25    92    93    2
    26    92    91    1
    27    14    13   ar
    28    87    89    1
    29    90    91    1
    30    91    94    1
    31    13    15   ar
    32    13    12    1
    33    75    76    1
    34   104   106   am
    35   104   105    2
    36    54    55    1
    37    11    12    1
    38    11     8    1
    39    77    78    2
    40    77    76    1
    41     7     8    1
    42     7     3   am
    43     8     9    1
    44     1     2    1
    45     2     3    1
    46     2     5    1
    47     3     4    2
    48    76    79    1
    49    55    56    1
    50    55    58    1
    51    94    96    1
    52    94    95    1
    53    57    56    2
    54     9    10    2
    55     9    16   am
    56     5     6    1
    57    95    97    1
    58    58    59    1
    59    79    81    1
    60    79    80    1
    61    35    36    1
    62    60    59   ar
    63    60    62   ar
    64    16    17    1
    65    36    39    1
    66    36    37    1
    67    59    61   ar
    68    39    40    1
    69    33    32   ar
    70    41    40   ar
    71    41    43   ar
    72    28    29    2
    73    28    27    1
    74    62    63   ar
    75    32    34   ar
    76    32    31    1
    77    30    31    1
    78    30    27    1
    79    40    42   ar
    80    17    18    1
    81    17    20    1
    82    61    63   ar
    83    43    45   ar
    84    26    27    1
    85    26    18   am
    86    37    38    2
    87    37    46   am
    88    18    19    2
    89   109   110    2
    90   109   108    1
    91   146   147   ar
    92   146   144   ar
    93   107   108    1
    94   124   125    1
    95   124   123    1
    96   147   145   ar
    97   144   143   ar
    98    20    21    1
    99    46    47    1
   100   108   111    1
   101   111   112    1
   102   125   126    1
   103    42    44   ar
   104   122   123    1
   105   122   119    1
   106    45    44   ar
   107   145   143   ar
   108   143   142    1
   109   120   119    1
   110   120   121    2
   111    48    47    1
   112    48    49    2
   113   119   118    1
   114   142   139    1
   115   114   113    1
   116   114   115    2
   117   113   112    1
   118    47    50    1
   119    21    22   ar
   120    21    23   ar
   121    22    24   ar
   122   117   115    1
   123   115   116    1
   124    50    51    1
   125    23    25   ar
   126   139   140    1
   127   139   138    1
   128   140   141    2
   129    51    52    1
   130    51    53    1
   131    24    25   ar
   132   138   129   am
   133   127   128    1
   134   129   128    1
   135   129   130    2
   136   128   131    1
   137   131   132    1
   138   132   133    1
   139   136   135    1
   140   155   154    1
   141   155   156    2
   142   152   149    1
   143   152   153    1
   144   148   149    1
   145   150   149    1
   146   150   151    2
   147   154   153    1
   148   158   156    1
   149   133   134    1
   150   135   137    1
   151   135   134    2
   152   156   157    1
