@<TRIPOS>MOLECULE
tmp/3q7hC02.pdb
 79 75 0 0 0
SMALL
GASTEIGER

@<TRIPOS>ATOM
      1  N         49.0570   -9.2730   30.8140 N.3    61  PRO61      -0.2102
      2  CA        49.1760   -8.3970   29.6390 C.3    61  PRO61       0.1508
      3  C         48.8980   -6.9210   29.9470 C.2    61  PRO61       0.2615
      4  O         49.0090   -6.0680   29.0550 O.2    61  PRO61      -0.2715
      5  CB        48.0880   -8.9430   28.6980 C.3    61  PRO61       0.0282
      6  CG        46.9740   -9.3700   29.6650 C.3    61  PRO61       0.0208
      7  CD        47.7060   -9.8590   30.9360 C.3    61  PRO61       0.0893
      8  N         48.5260   -6.6240   31.1880 N.am   62  GLY62      -0.1719
      9  CA        48.1490   -5.2660   31.5360 C.2    62  GLY62       0.1480
     10  C         47.8560   -5.0200   33.0010 C.2    62  GLY62       0.2821
     11  O         47.9510   -5.9270   33.8360 O.2    62  GLY62      -0.2669
     12  N         47.5010   -3.7810   33.3200 N.am   63  GLY63      -0.1920
     13  CA        47.1600   -3.4370   34.6840 C.3    63  GLY63       0.1872
     14  C         47.9420   -2.2600   35.2190 C.2    63  GLY63       0.2310
     15  O         48.8680   -1.7770   34.5860 O.2    63  GLY63      -0.2863
     16  N         50.3110    0.1110   37.6400 N.3    65  VAL65      -0.1245
     17  CA        51.5570    0.0530   38.3970 C.3    65  VAL65       0.1561
     18  C         51.3470    0.2810   39.8830 C.2    65  VAL65       0.2260
     19  O         52.0680   -0.2830   40.6990 O.2    65  VAL65      -0.2867
     20  CB        52.5940    1.0700   37.9010 C.3    65  VAL65       0.0252
     21  CG1       53.7130    1.2310   38.9350 C.3    65  VAL65       0.0019
     22  CG2       53.1510    0.6400   36.5510 C.3    65  VAL65       0.0019
     23  N         53.5050   -7.3080   30.9900 N.3    89  ALA89      -0.1231
     24  CA        53.2730   -5.9060   30.6730 C.3    89  ALA89       0.1694
     25  C         53.6570   -5.0650   31.8660 C.2    89  ALA89       0.2593
     26  O         54.0720   -5.5850   32.8850 O.2    89  ALA89      -0.2718
     27  CB        51.8620   -5.6600   30.2910 C.3    89  ALA89       0.0304
     28  N         53.6150   -3.7580   31.7240 N.am   90  SER90      -0.1938
     29  CA        54.3240   -2.9280   32.6970 C.3    90  SER90       0.2055
     30  C         54.2120   -3.4090   34.1520 C.2    90  SER90       0.2643
     31  O         55.2210   -3.7280   34.7730 O.2    90  SER90      -0.2714
     32  CB        53.9870   -1.4460   32.5740 C.3    90  SER90       0.2130
     33  OG        55.0350   -0.6950   33.1820 O.3    90  SER90      -0.2179
     34  N         53.0030   -3.4650   34.7010 N.am   91  ALA91      -0.1963
     35  CA        52.8550   -3.8920   36.0890 C.3    91  ALA91       0.1728
     36  C         53.5020   -5.2600   36.3460 C.2    91  ALA91       0.2616
     37  O         54.2460   -5.4300   37.3000 O.2    91  ALA91      -0.2715
     38  CB        51.3920   -3.8840   36.5090 C.3    91  ALA91       0.0334
     39  N         53.2410   -6.2230   35.4770 N.am   92  GLY92      -0.1955
     40  CA        53.8700   -7.5240   35.5950 C.3    92  GLY92       0.1869
     41  C         55.3840   -7.5060   35.4000 C.2    92  GLY92       0.2309
     42  O         56.0940   -8.3420   35.9760 O.2    92  GLY92      -0.2863
     43  N         56.5450    0.3620   30.5670 N.3   114  HIS114     -0.1241
     44  CA        56.1310    1.7010   30.2050 C.3   114  HIS114      0.1621
     45  C         55.8850    2.5400   31.4420 C.2   114  HIS114      0.2264
     46  O         55.7950    2.0150   32.5280 O.2   114  HIS114     -0.2867
     47  CB        54.9240    1.6950   29.2670 C.3   114  HIS114      0.0745
     48  CG        53.6670    1.2020   29.9000 C.ar  114  HIS114      0.0817
     49  ND1       52.7900    0.3670   29.2530 N.ar  114  HIS114     -0.2268
     50  CD2       53.1380    1.4260   31.1220 C.ar  114  HIS114      0.1154
     51  CE1       51.7720    0.1020   30.0470 C.ar  114  HIS114      0.1986
     52  NE2       51.9620    0.7290   31.1900 N.ar  114  HIS114     -0.2212
     53  N         50.5070    5.3620   34.1700 N.3   117  LEU117     -0.1245
     54  CA        49.3380    6.0710   33.6750 C.3   117  LEU117      0.1561
     55  C         48.5470    6.5920   34.8590 C.2   117  LEU117      0.2260
     56  O         48.5990    6.0400   35.9530 O.2   117  LEU117     -0.2867
     57  CB        48.4560    5.1310   32.8650 C.3   117  LEU117      0.0270
     58  CG        49.2450    4.4530   31.7500 C.3   117  LEU117      0.0019
     59  CD1       48.4330    3.3450   31.1260 C.3   117  LEU117      0.0001
     60  CD2       49.6250    5.4840   30.7280 C.3   117  LEU117      0.0001
     61  N         55.7270    2.6740   25.2000 N.3   163  ASP163     -0.1239
     62  CA        55.7820    1.2180   25.3010 C.3   163  ASP163      0.1674
     63  C         57.0980    0.6520   24.7740 C.2   163  ASP163      0.2266
     64  O         57.4720    0.8740   23.6290 O.2   163  ASP163     -0.2867
     65  CB        54.6080    0.5880   24.5690 C.3   163  ASP163      0.1410
     66  CG        53.2920    0.8600   25.2480 C.2   163  ASP163      0.3668
     67  OD1       53.2990    1.5150   26.3010 O.co2 163  ASP163     -0.2456
     68  OD2       52.2450    0.4020   24.7450 O.co2 163  ASP163     -0.2456
     69  N         59.0080   -2.7980   24.2630 N.3   165  PHE165     -0.1241
     70  CA        58.9860   -4.2710   24.2540 C.3   165  PHE165      0.1605
     71  C         60.3910   -4.8990   24.2720 C.2   165  PHE165      0.2264
     72  O         61.3190   -4.4180   23.6130 O.2   165  PHE165     -0.2867
     73  CB        58.2180   -4.8120   23.0360 C.3   165  PHE165      0.0534
     74  CG        56.7410   -4.5420   23.0730 C.ar  165  PHE165     -0.0203
     75  CD1       55.8760   -5.4380   23.6790 C.ar  165  PHE165     -0.0042
     76  CD2       56.2150   -3.3980   22.4970 C.ar  165  PHE165     -0.0042
     77  CE1       54.5170   -5.1930   23.7270 C.ar  165  PHE165     -0.0003
     78  CE2       54.8520   -3.1510   22.5450 C.ar  165  PHE165     -0.0003
     79  CZ        54.0030   -4.0500   23.1620 C.ar  165  PHE165     -0.0000
@<TRIPOS>BOND
     1    76    78   ar
     2    76    74   ar
     3    78    79   ar
     4    73    74    1
     5    73    70    1
     6    74    75   ar
     7    79    77   ar
     8    72    71    2
     9    64    63    2
    10    75    77   ar
    11    70    69    1
    12    70    71    1
    13    65    66    1
    14    65    62    1
    15    68    66   ar
    16    63    62    1
    17    61    62    1
    18    66    67   ar
    19     5     2    1
    20     5     6    1
    21     4     3    2
    22    49    48   ar
    23    49    51   ar
    24    47    48    1
    25    47    44    1
    26     2     3    1
    27     2     1    1
    28     6     7    1
    29    48    50   ar
    30     3     8    1
    31    51    52   ar
    32    44    43    1
    33    44    45    1
    34    27    24    1
    35    24    23    1
    36    24    25    1
    37    60    58    1
    38     1     7    1
    39    50    52   ar
    40    59    58    1
    41     8     9    2
    42    45    46    2
    43     9    10    1
    44    28    25   am
    45    28    29    1
    46    58    57    1
    47    25    26    2
    48    32    29    1
    49    32    33    1
    50    29    30    1
    51    57    54    1
    52    10    12   am
    53    10    11    2
    54    12    13    1
    55    54    53    1
    56    54    55    1
    57    30    34   am
    58    30    31    2
    59    15    14    2
    60    13    14    1
    61    34    35    1
    62    55    56    2
    63    41    40    1
    64    41    42    2
    65    39    40    1
    66    39    36   am
    67    35    36    1
    68    35    38    1
    69    36    37    2
    70    22    20    1
    71    16    17    1
    72    20    17    1
    73    20    21    1
    74    17    18    1
    75    18    19    2
