@<TRIPOS>MOLECULE
tmp/3q7iA00.pdb
 133 123 0 0 0
SMALL
GASTEIGER

@<TRIPOS>ATOM
      1  N         39.2310   52.4030   14.6270 N.3   147  ILE147     -0.1231
      2  CA        39.0040   53.7120   14.0070 C.3   147  ILE147      0.1692
      3  C         40.3250   54.3220   13.5560 C.2   147  ILE147      0.2593
      4  O         41.3840   53.9710   14.1130 O.2   147  ILE147     -0.2718
      5  CB        38.2010   54.6740   14.9330 C.3   147  ILE147      0.0266
      6  CG1       37.5910   55.8970   14.2130 C.3   147  ILE147      0.0019
      7  CG2       38.9900   55.0050   16.2080 C.3   147  ILE147      0.0020
      8  CD1       36.4570   56.5350   15.0060 C.3   147  ILE147      0.0001
      9  N         40.2880   55.2510   12.6080 N.am  148  GLY148     -0.1942
     10  CA        41.5100   55.9050   12.1650 C.3   148  GLY148      0.2014
     11  C         42.4750   54.9240   11.5220 C.2   148  GLY148      0.2639
     12  O         42.1360   54.1510   10.6270 O.2   148  GLY148     -0.2714
     13  N         43.6840   54.9180   12.0270 N.am  149  GLY149     -0.1939
     14  CA        44.6920   53.9850   11.5510 C.3   149  GLY149      0.2014
     15  C         44.3320   52.5330   11.7050 C.2   149  GLY149      0.2639
     16  O         44.8690   51.6790   11.0220 O.2   149  GLY149     -0.2714
     17  N         43.4230   52.2120   12.6340 N.am  150  SER150     -0.1949
     18  CA        42.9490   50.8460   12.8200 C.3   150  SER150      0.1924
     19  C         41.7310   50.4750   12.0150 C.2   150  SER150      0.2314
     20  O         41.1310   49.4170   12.2470 O.2   150  SER150     -0.2863
     21  CB        42.7110   50.6160   14.3080 C.3   150  SER150      0.2116
     22  OG        44.0080   50.5980   14.9840 O.3   150  SER150     -0.2180
     23  N         40.6620   46.0780   16.8240 N.3   199  ALA199     -0.1231
     24  CA        41.9390   46.6010   16.2880 C.3   199  ALA199      0.1694
     25  C         42.1960   47.8920   17.0180 C.2   199  ALA199      0.2593
     26  O         41.5330   48.8870   16.7490 O.2   199  ALA199     -0.2718
     27  CB        41.7900   46.8110   14.7620 C.3   199  ALA199      0.0304
     28  N         43.1720   47.8670   17.9370 N.am  200  SER200     -0.1938
     29  CA        43.4930   49.0970   18.6550 C.3   200  SER200      0.2055
     30  C         44.8880   49.0420   19.2360 C.2   200  SER200      0.2643
     31  O         45.1500   48.2910   20.1790 O.2   200  SER200     -0.2714
     32  CB        42.4910   49.3380   19.7700 C.3   200  SER200      0.2130
     33  OG        42.7360   50.5370   20.4700 O.3   200  SER200     -0.2179
     34  N         45.7590   49.8610   18.6840 N.am  201  LYS201     -0.1963
     35  CA        47.1530   49.9300   19.1570 C.3   201  LYS201      0.1728
     36  C         47.1850   50.2200   20.6120 C.2   201  LYS201      0.2616
     37  O         47.8920   49.5270   21.3740 O.2   201  LYS201     -0.2715
     38  CB        47.8880   51.0050   18.3600 C.3   201  LYS201      0.0311
     39  CG        49.3710   51.1230   18.7340 C.3   201  LYS201      0.0038
     40  CD        50.0690   52.2070   17.9380 C.3   201  LYS201      0.0206
     41  CE        51.5400   52.3530   18.3490 C.3   201  LYS201      0.1093
     42  NZ        52.2250   53.4250   17.4870 N.3   201  LYS201     -0.1314
     43  N         46.4520   51.2230   21.0440 N.am  202  SER202     -0.1950
     44  CA        46.4410   51.6300   22.4580 C.3   202  SER202      0.1924
     45  C         45.5310   50.8160   23.3590 C.2   202  SER202      0.2314
     46  O         45.6850   50.7960   24.5910 O.2   202  SER202     -0.2863
     47  CB        45.9980   53.0890   22.5570 C.3   202  SER202      0.2116
     48  OG        44.6500   53.2900   22.1450 O.3   202  SER202     -0.2180
     49  N         40.8890   53.6210   23.0050 N.3   205  THR205     -0.1218
     50  CA        40.2420   54.6350   22.1720 C.3   205  THR205      0.1862
     51  C         38.7420   54.5630   22.4160 C.2   205  THR205      0.2287
     52  O         38.1840   53.4700   22.3550 O.2   205  THR205     -0.2866
     53  CB        40.5360   54.3550   20.7180 C.3   205  THR205      0.1770
     54  OG1       41.9550   54.4350   20.5280 O.3   205  THR205     -0.2211
     55  CG2       39.8620   55.3900   19.7830 C.3   205  THR205      0.0375
     56  N         36.2790   52.7570   19.8510 N.3   208  THR208     -0.1218
     57  CA        36.5440   51.3420   19.7250 C.3   208  THR208      0.1862
     58  C         36.1340   50.6250   21.0360 C.2   208  THR208      0.2287
     59  O         35.5910   49.5460   20.9560 O.2   208  THR208     -0.2866
     60  CB        37.9880   51.1420   19.3930 C.3   208  THR208      0.1770
     61  OG1       38.2700   51.8230   18.1670 O.3   208  THR208     -0.2211
     62  CG2       38.3040   49.6160   19.2200 C.3   208  THR208      0.0375
     63  N         53.1870   53.3790   13.3880 N.3   261  GLY261     -0.1210
     64  CA        52.1780   54.4450   13.4870 C.3   261  GLY261      0.1956
     65  C         50.8530   53.9410   12.9650 C.2   261  GLY261      0.2612
     66  O         50.8460   53.1660   11.9910 O.2   261  GLY261     -0.2717
     67  N         49.7340   54.3360   13.6050 N.am  262  GLY262     -0.1942
     68  CA        48.4100   53.8820   13.1510 C.3   262  GLY262      0.2014
     69  C         48.1880   54.0940   11.6430 C.2   262  GLY262      0.2638
     70  O         47.7560   53.2270   10.8540 O.2   262  GLY262     -0.2714
     71  N         48.5260   55.2970   11.1560 N.am  263  ARG263     -0.1977
     72  CA        48.3460   55.6580    9.7550 C.3   263  ARG263      0.1597
     73  C         49.3510   55.0070    8.7760 C.2   263  ARG263      0.2287
     74  O         49.2610   55.2320    7.5630 O.2   263  ARG263     -0.2864
     75  CB        48.3250   57.2080    9.5860 C.3   263  ARG263      0.0334
     76  CG        49.6390   57.8860    9.9970 C.3   263  ARG263      0.0492
     77  CD        49.5320   59.3860    9.8880 C.3   263  ARG263      0.2205
     78  NE        50.6000   60.0970   10.5990 N.pl3 263  ARG263     -0.0865
     79  CZ        50.6500   60.3520   11.8850 C.cat 263  ARG263      0.5346
     80  NH1       51.6700   61.0190   12.3550 N.pl3 263  ARG263      0.1354
     81  NH2       49.6790   59.9670   12.6990 N.pl3 263  ARG263      0.1354
     82  N         44.4430   61.0900    5.4820 N.3   344  GLN344     -0.1245
     83  CA        44.9500   60.8130    6.7660 C.3   344  GLN344      0.1566
     84  C         46.4750   60.7370    6.7950 C.2   344  GLN344      0.2260
     85  O         47.1130   61.4020    7.6360 O.2   344  GLN344     -0.2867
     86  CB        44.3300   59.4960    7.2770 C.3   344  GLN344      0.0367
     87  CG        44.9090   59.0690    8.5920 C.3   344  GLN344      0.0905
     88  CD        44.1520   57.9610    9.3400 C.2   344  GLN344      0.2608
     89  OE1       43.1870   57.3710    8.8470 O.2   344  GLN344     -0.2717
     90  NE2       44.6110   57.7080   10.5490 N.am  344  GLN344     -0.0878
     91  N         47.6020   64.2330    8.6390 N.3   348  GLU348     -0.1245
     92  CA        47.9030   63.9430   10.0400 C.3   348  GLU348      0.1567
     93  C         49.4280   63.9200   10.2750 C.2   348  GLU348      0.2260
     94  O         49.8850   64.2360   11.3770 O.2   348  GLU348     -0.2867
     95  CB        47.2860   62.6180   10.4880 C.3   348  GLU348      0.0388
     96  CG        47.2610   62.4970   11.9730 C.3   348  GLU348      0.1160
     97  CD        46.7450   61.1650   12.4500 C.2   348  GLU348      0.3649
     98  OE1       46.4950   60.2620   11.6160 O.co2 348  GLU348     -0.2457
     99  OE2       46.7650   60.9870   13.6740 O.co2 348  GLU348     -0.2457
    100  N         51.2350   63.0350   16.6590 N.3   500  GLN500     -0.1245
    101  CA        49.9030   63.6060   16.3320 C.3   500  GLN500      0.1566
    102  C         49.2840   64.1750   17.5660 C.2   500  GLN500      0.2260
    103  O         48.2360   63.7000   18.0500 O.2   500  GLN500     -0.2867
    104  CB        48.9910   62.5560   15.6210 C.3   500  GLN500      0.0367
    105  CG        48.7490   61.2740   16.3800 C.3   500  GLN500      0.0905
    106  CD        49.9140   60.3040   16.3500 C.2   500  GLN500      0.2608
    107  OE1       50.5310   60.0820   15.2840 O.2   500  GLN500     -0.2717
    108  NE2       50.2300   59.7280   17.5040 N.am  500  GLN500     -0.0878
    109  N         45.5350   64.8490   17.4690 N.3   503  VAL503     -0.1231
    110  CA        44.7380   63.6300   17.5640 C.3   503  VAL503      0.1692
    111  C         44.7750   63.0750   19.0050 C.2   503  VAL503      0.2591
    112  O         43.7620   62.6510   19.5870 O.2   503  VAL503     -0.2718
    113  CB        45.1790   62.6140   16.4890 C.3   503  VAL503      0.0266
    114  CG1       44.5770   61.2060   16.7590 C.3   503  VAL503      0.0020
    115  CG2       44.8150   63.1170   15.1020 C.3   503  VAL503      0.0020
    116  N         45.9540   63.0740   19.5840 N.am  504  GLU504     -0.1979
    117  CA        46.0260   62.6930   20.9730 C.3   504  GLU504      0.1602
    118  C         45.1180   63.5520   21.8920 C.2   504  GLU504      0.2287
    119  O         44.4890   62.9960   22.7950 O.2   504  GLU504     -0.2864
    120  CB        47.4770   62.6560   21.4550 C.3   504  GLU504      0.0415
    121  CG        48.3830   61.7910   20.7190 C.3   504  GLU504      0.1163
    122  CD        48.0240   60.3130   20.7370 C.2   504  GLU504      0.3649
    123  OE1       47.3710   59.7890   21.6880 O.co2 504  GLU504     -0.2457
    124  OE2       48.4900   59.6590   19.8520 O.co2 504  GLU504     -0.2457
    125  N         41.3240   62.5990   21.6580 N.3   507  LYS507     -0.1245
    126  CA        40.9680   61.3930   22.4220 C.3   507  LYS507      0.1561
    127  C         40.6680   61.6150   23.8950 C.2   507  LYS507      0.2260
    128  O         40.0880   60.7120   24.5560 O.2   507  LYS507     -0.2867
    129  CB        42.1090   60.4020   22.3210 C.3   507  LYS507      0.0271
    130  CG        42.2300   59.8850   20.9440 C.3   507  LYS507      0.0035
    131  CD        43.2260   58.7690   20.8350 C.3   507  LYS507      0.0206
    132  CE        42.7330   57.8110   19.8110 C.3   507  LYS507      0.1093
    133  NZ        43.5980   56.7170   19.7030 N.3   507  LYS507     -0.1314
@<TRIPOS>BOND
     1    82    83    1
     2    83    84    1
     3    83    86    1
     4    84    85    2
     5    86    87    1
     6    74    73    2
     7    87    88    1
     8    91    92    1
     9    73    72    1
    10    89    88    2
    11    88    90   am
    12    75    72    1
    13    75    76    1
    14    72    71    1
    15    77    76    1
    16    77    78    1
    17    92    93    1
    18    92    95    1
    19    93    94    2
    20    95    96    1
    21    78    79    2
    22    12    11    2
    23    70    69    2
    24    16    15    2
    25    71    69   am
    26    11    13   am
    27    11    10    1
    28    14    15    1
    29    14    13    1
    30    98    97   ar
    31    69    68    1
    32    15    17   am
    33    79    80    1
    34    79    81    1
    35    96    97    1
    36    66    65    2
    37    19    20    2
    38    19    18    1
    39    10     9    1
    40    97    99   ar
    41     9     3   am
    42    17    18    1
    43    18    21    1
    44    65    64    1
    45    65    67   am
    46    68    67    1
    47    63    64    1
    48     3     2    1
    49     3     4    2
    50     2     1    1
    51     2     5    1
    52     6     5    1
    53     6     8    1
    54    21    22    1
    55    27    24    1
    56     5     7    1
    57   115   113    1
    58   107   106    2
    59   104   101    1
    60   104   105    1
    61    24    23    1
    62    24    25    1
    63   101   100    1
    64   101   102    1
    65   106   105    1
    66   106   108   am
    67   113   114    1
    68   113   110    1
    69    26    25    2
    70    25    28   am
    71   109   110    1
    72    42    41    1
    73   110   111    1
    74   102   103    2
    75    28    29    1
    76    40    41    1
    77    40    39    1
    78    61    60    1
    79    38    39    1
    80    38    35    1
    81    29    30    1
    82    29    32    1
    83    34    35    1
    84    34    30   am
    85   111   116   am
    86   111   112    2
    87    35    36    1
    88    62    60    1
    89    30    31    2
    90    60    57    1
    91   116   117    1
    92   133   132    1
    93    57    56    1
    94    57    58    1
    95    32    33    1
    96    55    53    1
    97   132   131    1
    98   124   122   ar
    99    54    53    1
   100    36    43   am
   101    36    37    2
   102    53    50    1
   103   121   122    1
   104   121   120    1
   105   122   123   ar
   106   131   130    1
   107   130   129    1
   108    59    58    2
   109   117   120    1
   110   117   118    1
   111    43    44    1
   112   125   126    1
   113   118   119    2
   114    48    47    1
   115    50    51    1
   116    50    49    1
   117   129   126    1
   118    52    51    2
   119   126   127    1
   120    44    47    1
   121    44    45    1
   122    45    46    2
   123   127   128    2
