@<TRIPOS>MOLECULE
tmp/3q7pB00.pdb
 133 129 0 0 0
SMALL
GASTEIGER

@<TRIPOS>ATOM
      1  N         16.2360    7.4840  -19.0640 N.3    11  PRO11      -0.2102
      2  CA        15.4530    7.4390  -20.3050 C.3    11  PRO11       0.1504
      3  C         16.0130    8.3520  -21.3970 C.2    11  PRO11       0.2576
      4  O         16.6270    9.3770  -21.0990 O.2    11  PRO11      -0.2718
      5  CB        14.0530    7.9020  -19.8740 C.3    11  PRO11       0.0282
      6  CG        14.2060    8.5020  -18.5400 C.3    11  PRO11       0.0208
      7  CD        15.4290    7.9120  -17.9040 C.3    11  PRO11       0.0893
      8  N         15.8360    7.9550  -22.6540 N.am   12  GLY12      -0.1943
      9  CA        16.2210    8.8040  -23.7800 C.3    12  GLY12       0.2014
     10  C         17.7130    8.8620  -24.0780 C.2    12  GLY12       0.2639
     11  O         18.1270    9.5210  -25.0290 O.2    12  GLY12      -0.2714
     12  N         18.5230    8.1680  -23.2790 N.am   13  VAL13      -0.1963
     13  CA        19.9750    8.2040  -23.4550 C.3    13  VAL13       0.1727
     14  C         20.4220    7.5400  -24.7610 C.2    13  VAL13       0.2617
     15  O         21.4250    7.9330  -25.3570 O.2    13  VAL13      -0.2715
     16  CB        20.7220    7.5810  -22.2520 C.3    13  VAL13       0.0290
     17  CG1       20.2860    8.2440  -20.9740 C.3    13  VAL13       0.0023
     18  CG2       20.4840    6.0810  -22.1770 C.3    13  VAL13       0.0023
     19  N         19.6640    6.5430  -25.2070 N.am   14  GLY14      -0.1940
     20  CA        19.9190    5.8940  -26.4890 C.3    14  GLY14       0.2014
     21  C         20.1340    4.4010  -26.3610 C.2    14  GLY14       0.2639
     22  O         20.7780    3.7860  -27.2100 O.2    14  GLY14      -0.2714
     23  N         19.6030    3.8180  -25.2910 N.am   15  LYS15      -0.1963
     24  CA        19.6820    2.3720  -25.0830 C.3    15  LYS15       0.1728
     25  C         19.1900    1.5870  -26.3030 C.2    15  LYS15       0.2617
     26  O         19.9590    0.8730  -26.9390 O.2    15  LYS15      -0.2715
     27  CB        18.8880    1.9590  -23.8360 C.3    15  LYS15       0.0311
     28  CG        19.6200    2.1870  -22.5170 C.3    15  LYS15       0.0038
     29  CD        18.7450    1.7840  -21.3240 C.3    15  LYS15       0.0206
     30  CE        18.0670    2.9970  -20.6950 C.3    15  LYS15       0.1093
     31  NZ        17.1630    3.7110  -21.6450 N.3    15  LYS15      -0.1314
     32  N         17.9090    1.7240  -26.6230 N.am   16  SER16      -0.1936
     33  CA        17.2790    0.8730  -27.6130 C.3    16  SER16       0.2055
     34  C         18.0020    0.9870  -28.9490 C.2    16  SER16       0.2642
     35  O         18.0900    0.0110  -29.6970 O.2    16  SER16      -0.2714
     36  CB        15.7970    1.2260  -27.7620 C.3    16  SER16       0.2130
     37  OG        15.1540    1.2710  -26.4940 O.3    16  SER16      -0.2179
     38  N         18.5690    2.1620  -29.2080 N.am   17  ALA17      -0.1977
     39  CA        19.3070    2.4310  -30.4420 C.3    17  ALA17       0.1597
     40  C         20.6170    1.6330  -30.5280 C.2    17  ALA17       0.2287
     41  O         20.8700    0.9330  -31.5160 O.2    17  ALA17      -0.2864
     42  CB        19.5770    3.9350  -30.5790 C.3    17  ALA17       0.0319
     43  N         19.6860   -2.1240  -31.0690 N.3    20  ARG20      -0.1245
     44  CA        19.1300   -2.4510  -32.3780 C.3    20  ARG20       0.1563
     45  C         20.1850   -2.3460  -33.4850 C.2    20  ARG20       0.2260
     46  O         20.1310   -3.0780  -34.4730 O.2    20  ARG20      -0.2867
     47  CB        17.9190   -1.5590  -32.6790 C.3    20  ARG20       0.0307
     48  CG        17.5500   -1.4500  -34.1550 C.3    20  ARG20       0.0489
     49  CD        16.5170   -0.3470  -34.3810 C.3    20  ARG20       0.2205
     50  NE        17.1360    0.9710  -34.5430 N.pl3  20  ARG20      -0.0865
     51  CZ        17.1120    1.9320  -33.6200 C.cat  20  ARG20       0.5346
     52  NH1       16.5100    1.7190  -32.4530 N.pl3  20  ARG20       0.1354
     53  NH2       17.7160    3.0970  -33.8510 N.pl3  20  ARG20       0.1354
     54  N         17.4960   -5.1760  -23.6270 N.3    46  ASP46      -0.1239
     55  CA        17.0040   -3.8120  -23.4790 C.3    46  ASP46       0.1674
     56  C         15.8300   -3.8090  -22.5000 C.2    46  ASP46       0.2266
     57  O         14.6710   -3.9020  -22.9100 O.2    46  ASP46      -0.2867
     58  CB        16.5720   -3.2620  -24.8440 C.3    46  ASP46       0.1410
     59  CG        16.2010   -1.7910  -24.7970 C.2    46  ASP46       0.3668
     60  OD1       16.4710   -1.1330  -23.7710 O.co2  46  ASP46      -0.2456
     61  OD2       15.6420   -1.2880  -25.7990 O.co2  46  ASP46      -0.2456
     62  N         14.2460   -1.9110  -20.1650 N.3    48  TRP48      -0.1227
     63  CA        13.1930   -0.9210  -19.9770 C.3    48  TRP48       0.1737
     64  C         12.1820   -0.9080  -21.1300 C.2    48  TRP48       0.2595
     65  O         11.4720    0.0810  -21.3280 O.2    48  TRP48      -0.2718
     66  CB        13.8000    0.4710  -19.7740 C.3    48  TRP48       0.0564
     67  CG        14.4870    0.6510  -18.4400 C.ar   48  TRP48       0.0003
     68  CD1       15.8330    0.6410  -18.1990 C.ar   48  TRP48       0.0946
     69  CD2       13.8560    0.8910  -17.1750 C.ar   48  TRP48       0.0152
     70  NE1       16.0760    0.8500  -16.8630 N.ar   48  TRP48      -0.2442
     71  CE2       14.8820    1.0130  -16.2130 C.ar   48  TRP48       0.0810
     72  CE3       12.5240    1.0070  -16.7620 C.ar   48  TRP48       0.0012
     73  CZ2       14.6180    1.2490  -14.8660 C.ar   48  TRP48       0.0191
     74  CZ3       12.2630    1.2320  -15.4220 C.ar   48  TRP48       0.0001
     75  CH2       13.3060    1.3520  -14.4900 C.ar   48  TRP48       0.0015
     76  N         12.1120   -2.0110  -21.8770 N.am   49  GLU49      -0.1979
     77  CA        11.2810   -2.0730  -23.0820 C.3    49  GLU49       0.1602
     78  C         10.2200   -3.1730  -23.0320 C.2    49  GLU49       0.2287
     79  O          9.0850   -2.9680  -23.4970 O.2    49  GLU49      -0.2864
     80  CB        12.1410   -2.2170  -24.3420 C.3    49  GLU49       0.0415
     81  CG        12.8120   -0.9260  -24.7960 C.3    49  GLU49       0.1163
     82  CD        11.8640    0.0360  -25.4990 C.2    49  GLU49       0.3649
     83  OE1       10.9970    0.6360  -24.8300 O.co2  49  GLU49      -0.2457
     84  OE2       12.0230    0.2350  -26.7190 O.co2  49  GLU49      -0.2457
     85  N         26.8090    7.8540  -24.6620 N.3    92  ASN92      -0.1225
     86  CA        26.2710    7.8620  -26.0160 C.3    92  ASN92       0.1785
     87  C         26.0190    9.2660  -26.5620 C.2    92  ASN92       0.2597
     88  O         25.9060   10.2240  -25.7980 O.2    92  ASN92      -0.2718
     89  CB        24.9770    7.0530  -26.0750 C.3    92  ASN92       0.1169
     90  CG        24.4410    6.9320  -27.4780 C.2    92  ASN92       0.2627
     91  OD1       25.1900    6.6640  -28.4160 O.2    92  ASN92      -0.2716
     92  ND2       23.1430    7.1490  -27.6390 N.am   92  ASN92      -0.0877
     93  N         25.8900    9.3670  -27.8840 N.am   93  LYS93      -0.1980
     94  CA        25.6120   10.6370  -28.5670 C.3    93  LYS93       0.1596
     95  C         26.8390   11.5380  -28.6730 C.2    93  LYS93       0.2287
     96  O         26.7300   12.7520  -28.5240 O.2    93  LYS93      -0.2864
     97  CB        24.4580   11.4020  -27.9000 C.3    93  LYS93       0.0298
     98  CG        23.2020   10.5690  -27.6250 C.3    93  LYS93       0.0038
     99  CD        21.9860   11.4480  -27.3360 C.3    93  LYS93       0.0206
    100  CE        20.7170   10.6060  -27.2310 C.3    93  LYS93       0.1093
    101  NZ        19.4910   11.4120  -27.0030 N.3    93  LYS93      -0.1314
    102  N         28.1300   12.5080  -31.1610 N.3    95  ASP95      -0.1225
    103  CA        27.9840   13.3180  -32.3760 C.3    95  ASP95       0.1805
    104  C         27.4480   14.7190  -32.0870 C.2    95  ASP95       0.2597
    105  O         27.8240   15.6840  -32.7490 O.2    95  ASP95      -0.2718
    106  CB        27.1090   12.6110  -33.4230 C.3    95  ASP95       0.1424
    107  CG        25.7640   12.1800  -32.8710 C.2    95  ASP95       0.3668
    108  OD1       25.7330   11.2190  -32.0730 O.co2  95  ASP95      -0.2456
    109  OD2       24.7340   12.7680  -33.2680 O.co2  95  ASP95      -0.2456
    110  N         26.6020   14.8290  -31.0690 N.am   96  LEU96      -0.1979
    111  CA        26.0420   16.1190  -30.6720 C.3    96  LEU96       0.1596
    112  C         27.0480   16.9590  -29.9000 C.2    96  LEU96       0.2287
    113  O         26.9060   17.1440  -28.6930 O.2    96  LEU96      -0.2864
    114  CB        24.7900   15.9130  -29.8200 C.3    96  LEU96       0.0297
    115  CG        23.6210   15.2480  -30.5440 C.3    96  LEU96       0.0022
    116  CD1       22.5480   14.8180  -29.5550 C.3    96  LEU96       0.0001
    117  CD2       23.0570   16.1810  -31.6110 C.3    96  LEU96       0.0001
    118  N         28.3240    6.7920  -30.5530 N.3   122  SER122     -0.1202
    119  CA        27.3030    7.5490  -31.2540 C.3   122  SER122      0.2020
    120  C         26.4390    6.5800  -32.0460 C.2   122  SER122      0.2619
    121  O         26.8050    6.1770  -33.1510 O.2   122  SER122     -0.2717
    122  CB        27.9460    8.5570  -32.2100 C.3   122  SER122      0.2103
    123  OG        27.0310    8.9230  -33.2310 O.3   122  SER122     -0.2182
    124  N         25.3210    6.1650  -31.4570 N.am  123  ALA123     -0.1965
    125  CA        24.3730    5.3000  -32.1500 C.3   123  ALA123      0.1728
    126  C         23.9890    5.8640  -33.5150 C.2   123  ALA123      0.2616
    127  O         23.7990    5.1110  -34.4600 O.2   123  ALA123     -0.2715
    128  CB        23.1340    5.0710  -31.2990 C.3   123  ALA123      0.0334
    129  N         23.9370    7.1930  -33.6150 N.am  124  ALA124     -0.1977
    130  CA        23.5210    7.8920  -34.8360 C.3   124  ALA124      0.1597
    131  C         24.4850    7.6560  -35.9930 C.2   124  ALA124      0.2287
    132  O         24.0860    7.6430  -37.1550 O.2   124  ALA124     -0.2864
    133  CB        23.3870    9.3910  -34.5670 C.3   124  ALA124      0.0319
@<TRIPOS>BOND
     1   132   131    2
     2   131   130    1
     3   130   133    1
     4   130   129    1
     5    50    49    1
     6    50    51    2
     7    46    45    2
     8   127   126    2
     9    49    48    1
    10    48    47    1
    11    53    51    1
    12    51    52    1
    13   129   126   am
    14   126   125    1
    15    45    44    1
    16   106   107    1
    17   106   103    1
    18   109   107   ar
    19   123   122    1
    20   121   120    2
    21   107   108   ar
    22   105   104    2
    23    47    44    1
    24    44    43    1
    25   103   104    1
    26   103   102    1
    27   122   119    1
    28   125   124    1
    29   125   128    1
    30   104   110   am
    31   120   124   am
    32   120   119    1
    33   117   115    1
    34    41    40    2
    35   119   118    1
    36   110   111    1
    37   111   112    1
    38   111   114    1
    39    42    39    1
    40   115   114    1
    41   115   116    1
    42    40    39    1
    43    39    38    1
    44   112   113    2
    45    35    34    2
    46    38    34   am
    47    34    33    1
    48    95    94    1
    49    95    96    2
    50    94    97    1
    51    94    93    1
    52    91    90    2
    53    97    98    1
    54    93    87   am
    55    36    33    1
    56    36    37    1
    57    92    90   am
    58    98    99    1
    59    33    32    1
    60    90    89    1
    61    99   100    1
    62   100   101    1
    63    22    21    2
    64    26    25    2
    65    84    82   ar
    66    32    25   am
    67    87    86    1
    68    87    88    2
    69    20    21    1
    70    20    19    1
    71    21    23   am
    72    25    24    1
    73    89    86    1
    74    86    85    1
    75    61    59   ar
    76    82    83   ar
    77    82    81    1
    78    15    14    2
    79    23    24    1
    80    19    14   am
    81    24    27    1
    82    11    10    2
    83    58    59    1
    84    58    55    1
    85    59    60   ar
    86    81    80    1
    87    14    13    1
    88    80    77    1
    89    10     9    1
    90    10    12   am
    91    27    28    1
    92     9     8    1
    93    54    55    1
    94    79    78    2
    95    55    56    1
    96    13    12    1
    97    13    16    1
    98    77    78    1
    99    77    76    1
   100    57    56    2
   101     8     3   am
   102    28    29    1
   103    16    18    1
   104    16    17    1
   105    76    64   am
   106    31    30    1
   107     3     4    2
   108     3     2    1
   109    65    64    2
   110    29    30    1
   111    64    63    1
   112     2     5    1
   113     2     1    1
   114    62    63    1
   115    63    66    1
   116     5     6    1
   117    66    67    1
   118     1     7    1
   119     6     7    1
   120    67    68   ar
   121    67    69   ar
   122    68    70   ar
   123    69    72   ar
   124    69    71   ar
   125    70    71   ar
   126    72    74   ar
   127    71    73   ar
   128    74    75   ar
   129    73    75   ar
