@<TRIPOS>MOLECULE
tmp/3q7xA00.pdb
 70 67 0 0 0
SMALL
GASTEIGER

@<TRIPOS>ATOM
      1  N         -4.3160  -24.3370  -14.6020 N.3    20  GLY20      -0.1210
      2  CA        -3.4710  -23.2290  -15.0070 C.3    20  GLY20       0.1956
      3  C         -3.8280  -21.8700  -14.4090 C.2    20  GLY20       0.2613
      4  O         -3.1000  -20.8960  -14.5820 O.2    20  GLY20      -0.2717
      5  N         -4.9430  -21.8000  -13.7000 N.am   21  THR21      -0.1938
      6  CA        -5.3150  -20.5440  -13.0610 C.3    21  THR21       0.2028
      7  C         -4.5050  -20.2980  -11.7920 C.2    21  THR21       0.2642
      8  O         -4.0700  -21.2320  -11.1070 O.2    21  THR21      -0.2714
      9  CB        -6.8010  -20.5010  -12.7330 C.3    21  THR21       0.1808
     10  OG1       -7.1380  -21.6070  -11.8890 O.3    21  THR21      -0.2208
     11  CG2       -7.6250  -20.5680  -14.0210 C.3    21  THR21       0.0379
     12  N         -4.3160  -19.0270  -11.4890 N.am   22  VAL22      -0.1963
     13  CA        -3.5830  -18.5980  -10.3090 C.3    22  VAL22       0.1727
     14  C         -4.5600  -17.8620   -9.3940 C.2    22  VAL22       0.2616
     15  O         -5.2410  -16.9240   -9.8240 O.2    22  VAL22      -0.2715
     16  CB        -2.3920  -17.6880  -10.6770 C.3    22  VAL22       0.0290
     17  CG1       -1.6850  -17.1870   -9.4200 C.3    22  VAL22       0.0023
     18  CG2       -1.4020  -18.4500  -11.5570 C.3    22  VAL22       0.0023
     19  N         -4.6470  -18.3020   -8.1420 N.am   23  ASP23      -0.1971
     20  CA        -5.5760  -17.6940   -7.1950 C.3    23  ASP23       0.1709
     21  C         -5.0740  -17.8560   -5.7700 C.2    23  ASP23       0.2293
     22  O         -3.9230  -18.2500   -5.5500 O.2    23  ASP23      -0.2864
     23  CB        -7.0100  -18.2390   -7.3830 C.3    23  ASP23       0.1436
     24  CG        -7.1550  -19.7040   -7.0050 C.2    23  ASP23       0.3671
     25  OD1       -6.1380  -20.3760   -6.7420 O.co2  23  ASP23      -0.2456
     26  OD2       -8.3140  -20.1850   -6.9650 O.co2  23  ASP23      -0.2456
     27  N         -3.4920   -9.7250  -16.2480 N.3    63  THR63      -0.1203
     28  CA        -3.8280  -11.0820  -15.8150 C.3    63  THR63       0.1994
     29  C         -2.5740  -11.8120  -15.3540 C.2    63  THR63       0.2618
     30  O         -1.4540  -11.4840  -15.7580 O.2    63  THR63      -0.2717
     31  CB        -4.5330  -11.9220  -16.8980 C.3    63  THR63       0.1784
     32  OG1       -3.6710  -12.0820  -18.0330 O.3    63  THR63      -0.2211
     33  CG2       -5.8490  -11.2690  -17.3170 C.3    63  THR63       0.0376
     34  N         -2.7800  -12.7950  -14.4900 N.am   64  VAL64      -0.1965
     35  CA        -1.6850  -13.5890  -13.9440 C.3    64  VAL64       0.1727
     36  C         -1.9650  -15.0600  -14.1800 C.2    64  VAL64       0.2616
     37  O         -3.0480  -15.5550  -13.8430 O.2    64  VAL64      -0.2715
     38  CB        -1.5190  -13.3100  -12.4440 C.3    64  VAL64       0.0290
     39  CG1       -0.4960  -14.2700  -11.8320 C.3    64  VAL64       0.0023
     40  CG2       -1.0860  -11.8730  -12.2440 C.3    64  VAL64       0.0023
     41  N         -1.0080  -15.7490  -14.7870 N.am   65  ASP65      -0.1971
     42  CA        -1.1320  -17.1860  -15.0220 C.3    65  ASP65       0.1709
     43  C          0.2520  -17.8150  -14.9710 C.2    65  ASP65       0.2293
     44  O          1.1710  -17.2220  -14.4160 O.2    65  ASP65      -0.2864
     45  CB        -1.8880  -17.4820  -16.3350 C.3    65  ASP65       0.1436
     46  CG        -1.1110  -17.1070  -17.5750 C.2    65  ASP65       0.3671
     47  OD1       -0.1830  -16.2850  -17.5040 O.co2  65  ASP65      -0.2456
     48  OD2       -1.4280  -17.6700  -18.6530 O.co2  65  ASP65      -0.2456
     49  N         -8.8860  -13.7270   -5.9690 N.3   105  THR105     -0.1203
     50  CA        -8.3650  -13.5320   -7.3180 C.3   105  THR105      0.1994
     51  C         -6.9760  -12.9150   -7.2630 C.2   105  THR105      0.2618
     52  O         -6.6290  -12.2110   -6.3130 O.2   105  THR105     -0.2717
     53  CB        -9.2860  -12.6710   -8.2160 C.3   105  THR105      0.1784
     54  OG1       -9.4210  -11.3580   -7.6560 O.3   105  THR105     -0.2211
     55  CG2      -10.6730  -13.3260   -8.3580 C.3   105  THR105      0.0376
     56  N         -6.1900  -13.1720   -8.3000 N.am  106  VAL106     -0.1965
     57  CA        -4.8190  -12.6960   -8.3690 C.3   106  VAL106      0.1727
     58  C         -4.5980  -11.9690   -9.6960 C.2   106  VAL106      0.2616
     59  O         -4.9410  -12.4790  -10.7660 O.2   106  VAL106     -0.2715
     60  CB        -3.8320  -13.8720   -8.2270 C.3   106  VAL106      0.0290
     61  CG1       -2.4020  -13.4130   -8.4740 C.3   106  VAL106      0.0023
     62  CG2       -3.9420  -14.5010   -6.8300 C.3   106  VAL106      0.0023
     63  N         -4.0130  -10.7820   -9.6310 N.am  107  ASP107     -0.1971
     64  CA        -3.7480  -10.0190  -10.8470 C.3   107  ASP107      0.1709
     65  C         -2.5860   -9.0850  -10.5870 C.2   107  ASP107      0.2293
     66  O         -1.8600   -9.2680   -9.6060 O.2   107  ASP107     -0.2864
     67  CB        -5.0110   -9.2980  -11.3700 C.3   107  ASP107      0.1436
     68  CG        -5.5380   -8.2270  -10.4230 C.2   107  ASP107      0.3671
     69  OD1       -5.1280   -8.1780   -9.2530 O.co2 107  ASP107     -0.2456
     70  OD2       -6.3790   -7.4160  -10.8780 O.co2 107  ASP107     -0.2456
@<TRIPOS>BOND
     1    48    46   ar
     2    32    31    1
     3    46    47   ar
     4    46    45    1
     5    33    31    1
     6    31    28    1
     7    45    42    1
     8    27    28    1
     9    28    29    1
    10    30    29    2
    11    29    34   am
    12    42    43    1
    13    42    41    1
    14     2     1    1
    15     2     3    1
    16    43    44    2
    17    41    36   am
    18     4     3    2
    19    34    35    1
    20     3     5   am
    21    36    35    1
    22    36    37    2
    23    11     9    1
    24    35    38    1
    25     5     6    1
    26     6     9    1
    27     6     7    1
    28     9    10    1
    29    38    40    1
    30    38    39    1
    31     7    12   am
    32     7     8    2
    33    18    16    1
    34    12    13    1
    35    67    64    1
    36    67    68    1
    37    70    68   ar
    38    64    65    1
    39    64    63    1
    40    59    58    2
    41    16    13    1
    42    16    17    1
    43    65    66    2
    44    68    69   ar
    45    13    14    1
    46    15    14    2
    47    58    63   am
    48    58    57    1
    49    14    19   am
    50    61    60    1
    51    57    56    1
    52    57    60    1
    53    55    53    1
    54    56    51   am
    55    60    62    1
    56    53    54    1
    57    53    50    1
    58    19    20    1
    59    23    20    1
    60    23    24    1
    61    50    51    1
    62    50    49    1
    63    51    52    2
    64    20    21    1
    65    24    26   ar
    66    24    25   ar
    67    21    22    2
