@<TRIPOS>MOLECULE
tmp/3q7zA00.pdb
 137 133 0 0 0
SMALL
GASTEIGER

@<TRIPOS>ATOM
      1  N         -1.7690   -0.2570   30.2870 N.3    57  ASN57      -0.1225
      2  CA        -1.6980   -1.6870   30.5890 C.3    57  ASN57       0.1785
      3  C         -1.7200   -2.4880   29.2690 C.2    57  ASN57       0.2597
      4  O         -1.0410   -2.0960   28.2770 O.2    57  ASN57      -0.2718
      5  CB        -2.8580   -2.1500   31.5090 C.3    57  ASN57       0.1169
      6  CG        -2.8380   -1.5050   32.8150 C.2    57  ASN57       0.2627
      7  OD1       -1.7790   -1.4000   33.4560 O.2    57  ASN57      -0.2716
      8  ND2       -4.0110   -1.0840   33.2730 N.am   57  ASN57      -0.0877
      9  N         -2.5440   -3.5440   29.2290 N.am   58  SER58      -0.1952
     10  CA        -2.5580   -4.4820   28.0700 C.3    58  SER58       0.1924
     11  C         -3.1040   -3.9020   26.7830 C.2    58  SER58       0.2314
     12  O         -2.9200   -4.4950   25.7240 O.2    58  SER58      -0.2863
     13  CB        -3.4410   -5.7110   28.2550 C.3    58  SER58       0.2116
     14  OG        -3.2680   -6.6280   29.3370 O.3    58  SER58      -0.2180
     15  N          0.0290  -18.5860   36.0370 N.3    89  PRO89      -0.2102
     16  CA        -1.1760  -19.0180   36.7380 C.3    89  PRO89       0.1504
     17  C         -2.3620  -19.2490   35.7990 C.2    89  PRO89       0.2575
     18  O         -3.4210  -19.6320   36.2720 O.2    89  PRO89      -0.2718
     19  CB        -1.4850  -17.8220   37.6560 C.3    89  PRO89       0.0282
     20  CG        -1.0020  -16.6880   36.9310 C.3    89  PRO89       0.0208
     21  CD         0.2730  -17.1450   36.2760 C.3    89  PRO89       0.0893
     22  N         -2.1820  -19.0300   34.5000 N.am   90  PHE90      -0.1977
     23  CA        -3.2210  -19.3480   33.5060 C.3    90  PHE90       0.1639
     24  C         -2.6730  -20.3430   32.5080 C.2    90  PHE90       0.2290
     25  O         -1.6440  -20.0880   31.8830 O.2    90  PHE90      -0.2864
     26  CB        -3.6730  -18.1030   32.7510 C.3    90  PHE90       0.0560
     27  CG        -4.1670  -16.9970   33.6350 C.ar   90  PHE90      -0.0200
     28  CD1       -3.6600  -15.7200   33.4970 C.ar   90  PHE90      -0.0042
     29  CD2       -5.1260  -17.2400   34.6180 C.ar   90  PHE90      -0.0042
     30  CE1       -4.1060  -14.6740   34.3190 C.ar   90  PHE90      -0.0003
     31  CE2       -5.5730  -16.2130   35.4420 C.ar   90  PHE90      -0.0003
     32  CZ        -5.0590  -14.9210   35.2900 C.ar   90  PHE90      -0.0000
     33  N         -1.4400  -19.3990   29.0200 N.3    93  TRP93      -0.1241
     34  CA        -0.1420  -18.7450   28.9000 C.3    93  TRP93       0.1605
     35  C          1.0000  -19.7640   28.8740 C.2    93  TRP93       0.2264
     36  O          2.1120  -19.4280   28.4730 O.2    93  TRP93      -0.2867
     37  CB         0.0850  -17.7890   30.0760 C.3    93  TRP93       0.0550
     38  CG        -0.7810  -16.5470   30.0940 C.ar   93  TRP93       0.0003
     39  CD1       -1.8570  -16.2720   29.2970 C.ar   93  TRP93       0.0946
     40  CD2       -0.6610  -15.4370   30.9960 C.ar   93  TRP93       0.0152
     41  NE1       -2.3850  -15.0470   29.6150 N.ar   93  TRP93      -0.2442
     42  CE2       -1.6820  -14.5120   30.6600 C.ar   93  TRP93       0.0810
     43  CE3        0.2060  -15.1350   32.0580 C.ar   93  TRP93       0.0012
     44  CZ2       -1.8640  -13.2980   31.3460 C.ar   93  TRP93       0.0191
     45  CZ3        0.0210  -13.9150   32.7520 C.ar   93  TRP93       0.0001
     46  CH2       -1.0070  -13.0210   32.3830 C.ar   93  TRP93       0.0015
     47  N         -5.7580  -14.0300   24.4880 N.3   105  ASN105     -0.1225
     48  CA        -5.5680  -14.4120   25.8660 C.3   105  ASN105      0.1785
     49  C         -4.7240  -13.4580   26.6920 C.2   105  ASN105      0.2597
     50  O         -4.4530  -13.7610   27.8510 O.2   105  ASN105     -0.2718
     51  CB        -5.0720  -15.8680   25.9490 C.3   105  ASN105      0.1169
     52  CG        -6.1120  -16.8350   25.4390 C.2   105  ASN105      0.2627
     53  OD1       -7.2830  -16.7010   25.7680 O.2   105  ASN105     -0.2716
     54  ND2       -5.7140  -17.7730   24.6050 N.am  105  ASN105     -0.0877
     55  N         -4.3260  -12.3300   26.0770 N.am  106  SER106     -0.1952
     56  CA        -3.4890  -11.2770   26.7020 C.3   106  SER106      0.1924
     57  C         -2.2170  -11.8630   27.3580 C.2   106  SER106      0.2314
     58  O         -1.9520  -11.6670   28.5710 O.2   106  SER106     -0.2863
     59  CB        -4.2830  -10.4370   27.7310 C.3   106  SER106      0.2116
     60  OG        -3.8140   -9.0870   27.6910 O.3   106  SER106     -0.2180
     61  N          1.1230  -11.8030   28.3630 N.3   108  ASN108     -0.1240
     62  CA         2.1470  -10.7690   28.5440 C.3   108  ASN108      0.1653
     63  C          3.5300  -11.1430   28.0100 C.2   108  ASN108      0.2266
     64  O          4.1840  -10.2990   27.3970 O.2   108  ASN108     -0.2867
     65  CB         2.3300  -10.4060   30.0220 C.3   108  ASN108      0.1155
     66  CG         1.0770   -9.8070   30.6200 C.2   108  ASN108      0.2627
     67  OD1        0.4350   -8.9550   30.0140 O.2   108  ASN108     -0.2716
     68  ND2        0.7260  -10.2540   31.8150 N.am  108  ASN108     -0.0877
     69  N          3.0080   -1.0030   31.6720 N.3   145  MET145     -0.1230
     70  CA         2.2540   -1.7190   32.7130 C.3   145  MET145      0.1702
     71  C          2.3860   -1.0300   34.0430 C.2   145  MET145      0.2592
     72  O          3.3990   -1.2030   34.7250 O.2   145  MET145     -0.2718
     73  CB         2.6960   -3.1760   32.8440 C.3   145  MET145      0.0401
     74  CG         2.4500   -3.9400   31.5930 C.3   145  MET145      0.0596
     75  SD         0.7060   -4.3820   31.3520 S.3   145  MET145     -0.1393
     76  CE         0.8280   -6.0430   32.0190 C.3   145  MET145      0.0692
     77  N          1.3830   -0.2130   34.3720 N.am  146  GLU146     -0.1979
     78  CA         1.3670    0.5770   35.6320 C.3   146  GLU146      0.1602
     79  C          2.6950    1.2880   35.8890 C.2   146  GLU146      0.2287
     80  O          3.2850    1.1810   36.9660 O.2   146  GLU146     -0.2864
     81  CB         0.9200   -0.2830   36.8380 C.3   146  GLU146      0.0415
     82  CG        -0.4940   -0.9030   36.6710 C.3   146  GLU146      0.1163
     83  CD        -1.6040    0.1440   36.4400 C.2   146  GLU146      0.3649
     84  OE1       -2.4880   -0.0760   35.6090 O.co2 146  GLU146     -0.2457
     85  OE2       -1.6090    1.1860   37.0940 O.co2 146  GLU146     -0.2457
     86  N         -9.5810   -4.6770   22.5900 N.3   195  LYS195     -0.1231
     87  CA        -8.5890   -5.2180   23.5060 C.3   195  LYS195      0.1693
     88  C         -8.8460   -4.6860   24.9180 C.2   195  LYS195      0.2593
     89  O         -8.9100   -3.4700   25.1190 O.2   195  LYS195     -0.2718
     90  CB        -7.1770   -4.8150   23.0630 C.3   195  LYS195      0.0285
     91  CG        -6.0290   -5.3860   23.9570 C.3   195  LYS195      0.0035
     92  CD        -5.8560   -6.9170   23.8180 C.3   195  LYS195      0.0206
     93  CE        -4.8740   -7.4340   24.8850 C.3   195  LYS195      0.1093
     94  NZ        -5.6150   -7.7160   26.1850 N.3   195  LYS195     -0.1314
     95  N         -8.8970   -5.6080   25.8820 N.am  196  THR196     -0.1939
     96  CA        -8.9640   -5.2860   27.3140 C.3   196  THR196      0.2028
     97  C         -7.6210   -4.9320   27.9460 C.2   196  THR196      0.2643
     98  O         -6.5470   -5.3420   27.4630 O.2   196  THR196     -0.2714
     99  CB        -9.5680   -6.4700   28.1440 C.3   196  THR196      0.1808
    100  OG1       -8.9300   -7.7130   27.7880 O.3   196  THR196     -0.2208
    101  CG2      -11.0370   -6.6120   27.8480 C.3   196  THR196      0.0379
    102  N         -7.6850   -4.2060   29.0560 N.am  197  GLY197     -0.1939
    103  CA        -6.5130   -4.0220   29.8910 C.3   197  GLY197      0.2014
    104  C         -7.0060   -3.9830   31.3230 C.2   197  GLY197      0.2640
    105  O         -8.0780   -3.4500   31.5810 O.2   197  GLY197     -0.2714
    106  N         -6.2340   -4.5540   32.2280 N.am  198  THR198     -0.1936
    107  CA        -6.5510   -4.5770   33.6680 C.3   198  THR198      0.2028
    108  C         -5.2690   -4.3240   34.4220 C.2   198  THR198      0.2643
    109  O         -4.2700   -5.0410   34.2200 O.2   198  THR198     -0.2714
    110  CB        -7.0770   -5.9730   34.1020 C.3   198  THR198      0.1808
    111  OG1       -8.2150   -6.3250   33.3180 O.3   198  THR198     -0.2208
    112  CG2       -7.4700   -5.9850   35.5420 C.3   198  THR198      0.0379
    113  N         -5.2830   -3.3110   35.2870 N.am  199  GLY199     -0.1939
    114  CA        -4.1750   -3.0630   36.1780 C.3   199  GLY199      0.2014
    115  C         -4.5660   -3.5890   37.5350 C.2   199  GLY199      0.2638
    116  O         -5.7330   -3.4640   37.9360 O.2   199  GLY199     -0.2714
    117  N         -3.6050   -4.1910   38.2240 N.am  200  ILE200     -0.1977
    118  CA        -3.7500   -4.6120   39.6260 C.3   200  ILE200      0.1596
    119  C         -2.6530   -3.9450   40.4490 C.2   200  ILE200      0.2287
    120  O         -1.4740   -4.0780   40.1360 O.2   200  ILE200     -0.2864
    121  CB        -3.7280   -6.1510   39.7850 C.3   200  ILE200      0.0276
    122  CG1       -4.8660   -6.7870   38.9620 C.3   200  ILE200      0.0022
    123  CG2       -3.8050   -6.5750   41.2810 C.3   200  ILE200      0.0022
    124  CD1       -4.6540   -8.2650   38.5990 C.3   200  ILE200      0.0001
    125  N        -10.6870   -4.7920   32.9770 N.3   234  GLY234     -0.1210
    126  CA       -10.9130   -4.8800   31.5220 C.3   234  GLY234      0.1956
    127  C        -12.2380   -5.5520   31.2310 C.2   234  GLY234      0.2611
    128  O        -12.9970   -5.0880   30.3760 O.2   234  GLY234     -0.2717
    129  N        -12.5150   -6.6380   31.9580 N.am  235  LYS235     -0.1979
    130  CA       -13.7590   -7.3920   31.7850 C.3   235  LYS235      0.1596
    131  C        -14.9930   -6.4930   31.9510 C.2   235  LYS235      0.2287
    132  O        -15.8900   -6.4980   31.0990 O.2   235  LYS235     -0.2864
    133  CB       -13.8020   -8.6020   32.7400 C.3   235  LYS235      0.0298
    134  CG       -15.0690   -9.4330   32.6230 C.3   235  LYS235      0.0038
    135  CD       -14.9800  -10.7770   33.3720 C.3   235  LYS235      0.0206
    136  CE       -16.2750  -11.5590   33.2060 C.3   235  LYS235      0.1093
    137  NZ       -17.4690  -10.8080   33.6980 N.3   235  LYS235     -0.1314
@<TRIPOS>BOND
     1    86    87    1
     2    90    87    1
     3    90    91    1
     4    87    88    1
     5    92    91    1
     6    92    93    1
     7    47    48    1
     8    54    52   am
     9    93    94    1
    10    88    89    2
    11    88    95   am
    12    52    53    2
    13    52    51    1
    14    12    11    2
    15    48    51    1
    16    48    49    1
    17    95    96    1
    18    55    49   am
    19    55    56    1
    20    49    50    2
    21    56    57    1
    22    56    59    1
    23    11    10    1
    24    96    97    1
    25    96    99    1
    26    57    58    2
    27    64    63    2
    28    98    97    2
    29    60    59    1
    30   100    99    1
    31   101    99    1
    32    97   102   am
    33    63    62    1
    34    10    13    1
    35    10     9    1
    36    13    14    1
    37     4     3    2
    38    61    62    1
    39    36    35    2
    40    62    65    1
    41    35    34    1
    42    34    33    1
    43    34    37    1
    44   102   103    1
    45     9     3   am
    46     3     2    1
    47    39    41   ar
    48    39    38   ar
    49    41    42   ar
    50   103   104    1
    51    67    66    2
    52    65    66    1
    53    37    38    1
    54    38    40   ar
    55     1     2    1
    56   128   127    2
    57     2     5    1
    58    66    68   am
    59    42    40   ar
    60    42    44   ar
    61    40    43   ar
    62   132   131    2
    63   127   126    1
    64   127   129   am
    65   104   105    2
    66   104   106   am
    67    44    46   ar
    68    75    74    1
    69    75    76    1
    70     5     6    1
    71   126   125    1
    72    74    73    1
    73    69    70    1
    74   130   131    1
    75   130   129    1
    76   130   133    1
    77    25    24    2
    78    43    45   ar
    79   106   107    1
    80    46    45   ar
    81    24    23    1
    82   134   133    1
    83   134   135    1
    84    70    73    1
    85    70    71    1
    86    26    23    1
    87    26    27    1
    88     6     8   am
    89     6     7    2
    90   136   135    1
    91   136   137    1
    92   111   110    1
    93    28    27   ar
    94    28    30   ar
    95    23    22    1
    96    27    29   ar
    97   107   110    1
    98   107   108    1
    99    71    77   am
   100    71    72    2
   101   110   112    1
   102   109   108    2
   103    30    32   ar
   104    77    78    1
   105   108   113   am
   106    22    17   am
   107    29    31   ar
   108   113   114    1
   109    32    31   ar
   110    84    83   ar
   111    78    79    1
   112    78    81    1
   113    17    18    2
   114    17    16    1
   115    79    80    2
   116    15    21    1
   117    15    16    1
   118   114   115    1
   119    21    20    1
   120    83    82    1
   121    83    85   ar
   122    82    81    1
   123    16    19    1
   124    20    19    1
   125   115   116    2
   126   115   117   am
   127   117   118    1
   128   124   122    1
   129   122   121    1
   130   118   121    1
   131   118   119    1
   132   121   123    1
   133   120   119    2
