@<TRIPOS>MOLECULE
tmp/3q80B00.pdb
 165 156 0 0 0
SMALL
GASTEIGER

@<TRIPOS>ATOM
      1  N        -15.4110   -1.6040   22.8170 N.3     8  PRO8       -0.2102
      2  CA       -16.4640   -2.6120   22.6670 C.3     8  PRO8        0.1504
      3  C        -16.4700   -3.4990   23.9010 C.2     8  PRO8        0.2576
      4  O        -15.4950   -4.2070   24.1620 O.2     8  PRO8       -0.2718
      5  CB       -16.0210   -3.4050   21.4270 C.3     8  PRO8        0.0282
      6  CG       -15.1100   -2.4620   20.6820 C.3     8  PRO8        0.0208
      7  CD       -14.3890   -1.7060   21.7600 C.3     8  PRO8        0.0893
      8  N        -17.5450   -3.4350   24.6720 N.am    9  ALA9       -0.1966
      9  CA       -17.6440   -4.2340   25.8820 C.3     9  ALA9        0.1728
     10  C        -19.0300   -4.8410   25.9770 C.2     9  ALA9        0.2616
     11  O        -19.5430   -5.0680   27.0780 O.2     9  ALA9       -0.2715
     12  CB       -17.3450   -3.3720   27.1250 C.3     9  ALA9        0.0334
     13  N        -19.6380   -5.1070   24.8230 N.am   10  ALA10      -0.1963
     14  CA       -21.0270   -5.5350   24.7980 C.3    10  ALA10       0.1728
     15  C        -21.2190   -7.0210   24.5080 C.2    10  ALA10       0.2616
     16  O        -22.3460   -7.4680   24.2840 O.2    10  ALA10      -0.2715
     17  CB       -21.8500   -4.6780   23.7990 C.3    10  ALA10       0.0334
     18  N        -20.1380   -7.7930   24.5170 N.am   11  GLY11      -0.1955
     19  CA       -20.2640   -9.2270   24.2820 C.3    11  GLY11       0.1869
     20  C        -20.9370   -9.9740   25.4230 C.2    11  GLY11       0.2309
     21  O        -21.2310   -9.3770   26.4640 O.2    11  GLY11      -0.2863
     22  N        -19.4670  -15.7110   26.2670 N.3    14  GLU14      -0.1245
     23  CA       -19.9370  -17.0930   26.1330 C.3    14  GLU14       0.1567
     24  C        -18.7890  -18.1100   26.0530 C.2    14  GLU14       0.2260
     25  O        -18.9630  -19.2700   26.4120 O.2    14  GLU14      -0.2867
     26  CB       -20.8850  -17.2380   24.9310 C.3    14  GLU14       0.0388
     27  CG       -20.1800  -17.1820   23.5690 C.3    14  GLU14       0.1160
     28  CD       -19.9780  -15.7760   23.0220 C.2    14  GLU14       0.3649
     29  OE1      -20.2840  -14.7670   23.7190 O.co2  14  GLU14      -0.2457
     30  OE2      -19.5270  -15.6820   21.8600 O.co2  14  GLU14      -0.2457
     31  N        -17.9920  -10.9500   29.9590 N.3    22  LYS22      -0.1231
     32  CA       -16.5820  -10.7490   30.2720 C.3    22  LYS22       0.1693
     33  C        -16.2390   -9.3610   30.8340 C.2    22  LYS22       0.2591
     34  O        -15.5320   -9.2330   31.8420 O.2    22  LYS22      -0.2718
     35  CB       -15.7950  -10.9830   28.9720 C.3    22  LYS22       0.0285
     36  CG       -14.4660  -11.6140   29.1300 C.3    22  LYS22       0.0035
     37  CD       -14.1160  -12.4410   27.9070 C.3    22  LYS22       0.0206
     38  CE       -14.1340  -11.6410   26.6300 C.3    22  LYS22       0.1093
     39  NZ       -13.2890  -12.3600   25.6550 N.3    22  LYS22      -0.1314
     40  N        -16.7140   -8.3180   30.1650 N.am   23  ALA23      -0.1980
     41  CA       -16.3320   -6.9510   30.5290 C.3    23  ALA23       0.1597
     42  C        -16.6820   -6.6660   31.9840 C.2    23  ALA23       0.2287
     43  O        -16.0820   -5.8050   32.6220 O.2    23  ALA23      -0.2864
     44  CB       -17.0240   -5.9540   29.6140 C.3    23  ALA23       0.0319
     45  N        -24.1920   -4.0090   20.3040 N.3    75  GLY75      -0.1210
     46  CA       -25.0260   -4.7830   19.3960 C.3    75  GLY75       0.1956
     47  C        -24.7730   -6.2820   19.4690 C.2    75  GLY75       0.2613
     48  O        -24.1170   -6.7580   20.3890 O.2    75  GLY75      -0.2717
     49  N        -25.2600   -7.0100   18.4700 N.am   76  SER76      -0.1938
     50  CA       -25.2280   -8.4710   18.4820 C.3    76  SER76       0.2055
     51  C        -23.8680   -9.0650   18.1210 C.2    76  SER76       0.2643
     52  O        -23.6290  -10.2470   18.3300 O.2    76  SER76      -0.2714
     53  CB       -26.3100   -9.0340   17.5540 C.3    76  SER76       0.2130
     54  OG       -27.6040   -8.6640   18.0000 O.3    76  SER76      -0.2179
     55  N        -22.9830   -8.2490   17.5640 N.am   77  ASN77      -0.1957
     56  CA       -21.6250   -8.7000   17.2800 C.3    77  ASN77       0.1819
     57  C        -20.6590   -7.5340   17.4000 C.2    77  ASN77       0.2621
     58  O        -21.0780   -6.3850   17.4750 O.2    77  ASN77      -0.2715
     59  CB       -21.5230   -9.4230   15.9200 C.3    77  ASN77       0.1195
     60  CG       -21.9240   -8.5410   14.7420 C.2    77  ASN77       0.2630
     61  OD1      -21.6130   -7.3560   14.6960 O.2    77  ASN77      -0.2716
     62  ND2      -22.6200   -9.1300   13.7830 N.am   77  ASN77      -0.0877
     63  N        -19.3650   -7.8170   17.4490 N.am   78  ARG78      -0.1977
     64  CA       -18.4200   -6.7480   17.7250 C.3    78  ARG78       0.1597
     65  C        -18.5180   -5.6500   16.6680 C.2    78  ARG78       0.2287
     66  O        -18.4670   -4.4690   16.9830 O.2    78  ARG78      -0.2864
     67  CB       -16.9990   -7.2880   17.8250 C.3    78  ARG78       0.0334
     68  CG       -15.9790   -6.2510   18.3140 C.3    78  ARG78       0.0492
     69  CD       -14.5560   -6.8480   18.3350 C.3    78  ARG78       0.2205
     70  NE       -13.5800   -5.8890   18.8650 N.pl3  78  ARG78      -0.0865
     71  CZ       -13.0670   -4.8800   18.1630 C.cat  78  ARG78       0.5346
     72  NH1      -13.4130   -4.6990   16.8900 N.pl3  78  ARG78       0.1354
     73  NH2      -12.2050   -4.0560   18.7300 N.pl3  78  ARG78       0.1354
     74  N        -21.5310   -3.5090   17.3200 N.3    81  THR81      -0.1218
     75  CA       -21.2390   -2.6850   18.5000 C.3    81  THR81       0.1862
     76  C        -20.4190   -1.4370   18.1640 C.2    81  THR81       0.2287
     77  O        -20.7870   -0.3120   18.5270 O.2    81  THR81      -0.2866
     78  CB       -20.4830   -3.5030   19.5570 C.3    81  THR81       0.1770
     79  OG1      -21.3580   -4.5090   20.0670 O.3    81  THR81      -0.2211
     80  CG2      -19.9830   -2.5980   20.7180 C.3    81  THR81       0.0375
     81  N        -10.5250   -3.2900   22.7260 N.3    98  ASP98      -0.1225
     82  CA       -11.2710   -4.3480   23.4080 C.3    98  ASP98       0.1805
     83  C        -11.2290   -4.1720   24.9230 C.2    98  ASP98       0.2598
     84  O        -10.1580   -4.0580   25.4940 O.2    98  ASP98      -0.2718
     85  CB       -10.6360   -5.7060   23.1260 C.3    98  ASP98       0.1424
     86  CG       -10.8700   -6.1970   21.7100 C.2    98  ASP98       0.3668
     87  OD1      -10.0880   -7.0570   21.2700 O.co2  98  ASP98      -0.2456
     88  OD2      -11.8240   -5.7490   21.0470 O.co2  98  ASP98      -0.2456
     89  N        -12.3820   -4.1950   25.5820 N.am   99  ALA99      -0.1966
     90  CA       -12.3950   -4.2090   27.0390 C.3    99  ALA99       0.1728
     91  C        -11.6720   -5.4600   27.5420 C.2    99  ALA99       0.2616
     92  O        -11.0920   -5.4500   28.6240 O.2    99  ALA99      -0.2715
     93  CB       -13.8170   -4.1790   27.5640 C.3    99  ALA99       0.0334
     94  N        -11.7010   -6.5300   26.7460 N.am  100  ALA100     -0.1963
     95  CA       -11.0820   -7.8010   27.1370 C.3   100  ALA100      0.1728
     96  C         -9.5610   -7.7430   27.1860 C.2   100  ALA100      0.2616
     97  O         -8.9110   -8.6470   27.7240 O.2   100  ALA100     -0.2715
     98  CB       -11.5370   -8.9240   26.2050 C.3   100  ALA100      0.0334
     99  N         -8.9780   -6.6940   26.6170 N.am  101  ARG101     -0.1977
    100  CA        -7.5320   -6.4930   26.7420 C.3   101  ARG101      0.1597
    101  C         -7.2420   -5.5540   27.9060 C.2   101  ARG101      0.2287
    102  O         -6.5910   -4.5150   27.7570 O.2   101  ARG101     -0.2864
    103  CB        -6.9350   -5.9840   25.4240 C.3   101  ARG101      0.0334
    104  CG        -7.1770   -6.9840   24.2700 C.3   101  ARG101      0.0492
    105  CD        -6.6080   -6.4540   22.9470 C.3   101  ARG101      0.2205
    106  NE        -6.8740   -7.3790   21.8530 N.pl3 101  ARG101     -0.0865
    107  CZ        -6.0890   -8.3960   21.5260 C.cat 101  ARG101      0.5346
    108  NH1       -4.9620   -8.6190   22.2050 N.pl3 101  ARG101      0.1354
    109  NH2       -6.4310   -9.1870   20.5110 N.pl3 101  ARG101      0.1354
    110  N         -2.7020   -9.5950   15.7100 N.3   154  VAL154     -0.1231
    111  CA        -3.0020   -8.1820   15.9120 C.3   154  VAL154      0.1692
    112  C         -3.7780   -7.9210   17.2000 C.2   154  VAL154      0.2592
    113  O         -4.6230   -8.7210   17.6190 O.2   154  VAL154     -0.2718
    114  CB        -3.5880   -7.5090   14.6090 C.3   154  VAL154      0.0266
    115  CG1       -4.4400   -8.4680   13.8430 C.3   154  VAL154      0.0020
    116  CG2       -4.3350   -6.2190   14.8970 C.3   154  VAL154      0.0020
    117  N         -3.4430   -6.8100   17.8510 N.am  155  GLN155     -0.1966
    118  CA        -4.0360   -6.4720   19.1350 C.3   155  GLN155      0.1733
    119  C         -4.9210   -5.2420   18.9890 C.2   155  GLN155      0.2617
    120  O         -5.3070   -4.8740   17.8860 O.2   155  GLN155     -0.2715
    121  CB        -2.9310   -6.2180   20.1650 C.3   155  GLN155      0.0408
    122  CG        -1.9110   -7.3520   20.2610 C.3   155  GLN155      0.0908
    123  CD        -0.8690   -7.0990   21.3350 C.2   155  GLN155      0.2608
    124  OE1       -0.1860   -6.0750   21.3220 O.2   155  GLN155     -0.2717
    125  NE2       -0.7500   -8.0260   22.2770 N.am  155  GLN155     -0.0878
    126  N         -5.2490   -4.6160   20.1110 N.am  156  THR156     -0.1951
    127  CA        -5.8890   -3.3130   20.1140 C.3   156  THR156      0.1897
    128  C         -5.1720   -2.5520   21.2240 C.2   156  THR156      0.2313
    129  O         -4.4780   -3.1630   22.0210 O.2   156  THR156     -0.2863
    130  CB        -7.4260   -3.3950   20.3830 C.3   156  THR156      0.1794
    131  OG1       -7.6770   -3.7120   21.7610 O.3   156  THR156     -0.2208
    132  CG2       -8.1050   -4.4480   19.4810 C.3   156  THR156      0.0378
    133  N         -6.6580   -0.2980   18.1080 N.3   158  GLN158     -0.1245
    134  CA        -6.4120    0.0380   16.7140 C.3   158  GLN158      0.1566
    135  C         -6.7670    1.5120   16.5540 C.2   158  GLN158      0.2260
    136  O         -7.7830    1.9630   17.0830 O.2   158  GLN158     -0.2867
    137  CB        -7.2640   -0.8570   15.8140 C.3   158  GLN158      0.0367
    138  CG        -7.0040   -2.3480   16.0720 C.3   158  GLN158      0.0905
    139  CD        -7.5920   -3.2430   14.9920 C.2   158  GLN158      0.2608
    140  OE1       -8.3950   -2.7980   14.1730 O.2   158  GLN158     -0.2717
    141  NE2       -7.1900   -4.5150   14.9890 N.am  158  GLN158     -0.0878
    142  N        -13.4860   -9.4870   11.8450 N.3   178  THR178     -0.1203
    143  CA       -13.1270   -9.7480   13.2390 C.3   178  THR178      0.1994
    144  C        -12.4260   -8.5640   13.9040 C.2   178  THR178      0.2617
    145  O        -12.2250   -8.5680   15.1120 O.2   178  THR178     -0.2717
    146  CB       -12.2500  -10.9960   13.3790 C.3   178  THR178      0.1784
    147  OG1      -11.1240  -10.8720   12.5170 O.3   178  THR178     -0.2211
    148  CG2      -13.0260  -12.2470   12.9840 C.3   178  THR178      0.0376
    149  N        -12.0440   -7.5570   13.1240 N.am  179  ASP179     -0.1973
    150  CA       -11.5360   -6.3200   13.7230 C.3   179  ASP179      0.1709
    151  C        -11.9430   -5.1000   12.9160 C.2   179  ASP179      0.2293
    152  O        -12.6960   -5.2030   11.9450 O.2   179  ASP179     -0.2864
    153  CB       -10.0080   -6.3560   13.9430 C.3   179  ASP179      0.1436
    154  CG        -9.2090   -6.2080   12.6480 C.2   179  ASP179      0.3671
    155  OD1       -7.9610   -6.1750   12.7250 O.co2 179  ASP179     -0.2456
    156  OD2       -9.8110   -6.1230   11.5560 O.co2 179  ASP179     -0.2456
    157  N         -5.5560  -10.6290   24.8860 N.3   202  LYS202     -0.1245
    158  CA        -6.9970  -10.6620   25.0760 C.3   202  LYS202      0.1561
    159  C         -7.3680  -11.7510   26.0790 C.2   202  LYS202      0.2260
    160  O         -6.9390  -12.8970   25.9610 O.2   202  LYS202     -0.2867
    161  CB        -7.7120  -10.8820   23.7260 C.3   202  LYS202      0.0271
    162  CG        -9.2190  -10.6120   23.7650 C.3   202  LYS202      0.0035
    163  CD        -9.7930  -10.3730   22.3700 C.3   202  LYS202      0.0206
    164  CE        -9.7120  -11.6310   21.5120 C.3   202  LYS202      0.1093
    165  NZ       -10.4740  -12.7620   22.1590 N.3   202  LYS202     -0.1314
@<TRIPOS>BOND
     1   156   154   ar
     2   142   143    1
     3   152   151    2
     4   147   146    1
     5   154   155   ar
     6   154   153    1
     7   151   150    1
     8   148   146    1
     9   149   150    1
    10   149   144   am
    11   143   146    1
    12   143   144    1
    13   150   153    1
    14    62    60   am
    15   115   114    1
    16   144   145    2
    17   140   139    2
    18   114   116    1
    19   114   111    1
    20    61    60    2
    21    60    59    1
    22   141   139   am
    23   139   138    1
    24   110   111    1
    25   137   138    1
    26   137   134    1
    27   111   112    1
    28    59    56    1
    29   135   134    1
    30   135   136    2
    31    65    66    2
    32    65    64    1
    33   134   133    1
    34    72    71    1
    35   112   113    2
    36   112   117   am
    37    56    57    1
    38    56    55    1
    39    74    75    1
    40    57    63   am
    41    57    58    2
    42    63    64    1
    43    53    54    1
    44    53    50    1
    45    55    51   am
    46    64    67    1
    47    67    68    1
    48   117   118    1
    49   120   119    2
    50    51    52    2
    51    51    50    1
    52    71    73    1
    53    71    70    2
    54    76    75    1
    55    76    77    2
    56    68    69    1
    57    69    70    1
    58    49    50    1
    59    49    47   am
    60    75    78    1
    61   119   118    1
    62   119   126   am
    63   118   121    1
    64    46    47    1
    65    46    45    1
    66    47    48    2
    67   132   130    1
    68    78    79    1
    69    78    80    1
    70   126   127    1
    71   127   130    1
    72   127   128    1
    73   121   122    1
    74   122   123    1
    75   130   131    1
    76   109   107    1
    77     6     5    1
    78     6     7    1
    79    88    86   ar
    80   128   129    2
    81    87    86   ar
    82   124   123    2
    83   123   125   am
    84     5     2    1
    85   164   165    1
    86   164   163    1
    87   107   106    2
    88   107   108    1
    89    86    85    1
    90     7     1    1
    91   106   105    1
    92    30    28   ar
    93   163   162    1
    94     2     1    1
    95     2     3    1
    96    81    82    1
    97   105   104    1
    98    28    27    1
    99    28    29   ar
   100    85    82    1
   101    82    83    1
   102    27    26    1
   103   161   162    1
   104   161   158    1
   105    17    14    1
   106     3     4    2
   107     3     8   am
   108   104   103    1
   109    19    18    1
   110    19    20    1
   111    16    15    2
   112    15    18   am
   113    15    14    1
   114     8     9    1
   115    14    13    1
   116    13    10   am
   117   157   158    1
   118    83    84    2
   119    83    89   am
   120    26    23    1
   121   158   159    1
   122    20    21    2
   123   103   100    1
   124    89    90    1
   125    39    38    1
   126     9    10    1
   127     9    12    1
   128   160   159    2
   129    10    11    2
   130    24    23    1
   131    24    25    2
   132    23    22    1
   133    98    95    1
   134    99   100    1
   135    99    96   am
   136    38    37    1
   137   100   101    1
   138    94    95    1
   139    94    91   am
   140    90    91    1
   141    90    93    1
   142    95    96    1
   143    96    97    2
   144    91    92    2
   145   102   101    2
   146    37    36    1
   147    35    36    1
   148    35    32    1
   149    44    41    1
   150    31    32    1
   151    40    41    1
   152    40    33   am
   153    32    33    1
   154    41    42    1
   155    33    34    2
   156    42    43    2
