@<TRIPOS>MOLECULE
tmp/3q81B00.pdb
 145 140 0 0 0
SMALL
GASTEIGER

@<TRIPOS>ATOM
      1  N        -21.0910  -25.3030   -8.4710 N.3    57  ASN57      -0.1225
      2  CA       -21.3670  -23.8860   -8.6700 C.3    57  ASN57       0.1785
      3  C        -20.4080  -22.9820   -7.8790 C.2    57  ASN57       0.2597
      4  O        -19.1990  -23.1740   -7.9700 O.2    57  ASN57      -0.2718
      5  CB       -22.8410  -23.6120   -8.4640 C.3    57  ASN57       0.1169
      6  CG       -23.6770  -24.2620   -9.5620 C.2    57  ASN57       0.2627
      7  OD1      -23.4450  -24.0120  -10.7420 O.2    57  ASN57      -0.2716
      8  ND2      -24.6260  -25.1100   -9.1810 N.am   57  ASN57      -0.0877
      9  N        -20.9360  -22.0850   -7.0550 N.am   58  SER58      -0.1952
     10  CA       -20.1010  -21.0540   -6.3940 C.3    58  SER58       0.1924
     11  C        -19.3200  -21.5960   -5.2330 C.2    58  SER58       0.2314
     12  O        -18.4580  -20.8780   -4.7060 O.2    58  SER58      -0.2863
     13  CB       -20.9560  -19.8880   -5.9010 C.3    58  SER58       0.2116
     14  OG       -21.5200  -19.2490   -7.0530 O.3    58  SER58      -0.2180
     15  N        -15.5150  -21.5150   -5.9520 N.3    61  LYS61      -0.1245
     16  CA       -14.7470  -20.2810   -5.6570 C.3    61  LYS61       0.1561
     17  C        -13.8080  -20.3930   -4.4430 C.2    61  LYS61       0.2260
     18  O        -12.8720  -19.6320   -4.3670 O.2    61  LYS61      -0.2867
     19  CB       -15.6940  -19.0970   -5.4430 C.3    61  LYS61       0.0271
     20  CG       -16.4900  -18.7350   -6.6990 C.3    61  LYS61       0.0035
     21  CD       -17.6800  -17.9300   -6.3370 C.3    61  LYS61       0.0206
     22  CE       -18.2740  -17.2450   -7.5800 C.3    61  LYS61       0.1093
     23  NZ       -19.5070  -16.6400   -7.1290 N.3    61  LYS61      -0.1314
     24  N        -27.2100   -7.0570   -9.6700 N.3    90  PHE90      -0.1241
     25  CA       -26.9420   -6.8490   -8.2370 C.3    90  PHE90       0.1605
     26  C        -25.9070   -5.7360   -8.0420 C.2    90  PHE90       0.2264
     27  O        -24.8040   -5.8250   -8.5960 O.2    90  PHE90      -0.2867
     28  CB       -26.4050   -8.1330   -7.5890 C.3    90  PHE90       0.0534
     29  CG       -27.0780   -9.3890   -8.0560 C.ar   90  PHE90      -0.0203
     30  CD1      -26.3540  -10.3490   -8.7760 C.ar   90  PHE90      -0.0042
     31  CD2      -28.4270   -9.6200   -7.7810 C.ar   90  PHE90      -0.0042
     32  CE1      -26.9580  -11.5270   -9.2210 C.ar   90  PHE90      -0.0003
     33  CE2      -29.0560  -10.7980   -8.2200 C.ar   90  PHE90      -0.0003
     34  CZ       -28.3160  -11.7620   -8.9420 C.ar   90  PHE90      -0.0000
     35  N        -23.9710   -4.9720   -5.5680 N.3    92  ALA92      -0.1231
     36  CA       -22.7500   -5.4660   -4.9060 C.3    92  ALA92       0.1694
     37  C        -21.6910   -5.9780   -5.8830 C.2    92  ALA92       0.2592
     38  O        -20.5180   -6.0400   -5.5430 O.2    92  ALA92      -0.2718
     39  CB       -23.0900   -6.5530   -3.8840 C.3    92  ALA92       0.0304
     40  N        -22.1200   -6.3160   -7.1030 N.am   93  TRP93      -0.1976
     41  CA       -21.2330   -6.7330   -8.1790 C.3    93  TRP93       0.1640
     42  C        -20.7010   -5.5490   -9.0010 C.2    93  TRP93       0.2290
     43  O        -19.7190   -5.7050   -9.7260 O.2    93  TRP93      -0.2864
     44  CB       -21.9620   -7.6910   -9.1360 C.3    93  TRP93       0.0576
     45  CG       -22.2870   -9.1020   -8.6360 C.ar   93  TRP93       0.0006
     46  CD1      -22.5190   -9.5150   -7.3420 C.ar   93  TRP93       0.0946
     47  CD2      -22.4640  -10.2730   -9.4600 C.ar   93  TRP93       0.0152
     48  NE1      -22.8110  -10.8660   -7.3220 N.ar   93  TRP93      -0.2442
     49  CE2      -22.7920  -11.3480   -8.6080 C.ar   93  TRP93       0.0810
     50  CE3      -22.3860  -10.5070  -10.8430 C.ar   93  TRP93       0.0012
     51  CZ2      -23.0400  -12.6540   -9.0970 C.ar   93  TRP93       0.0191
     52  CZ3      -22.6320  -11.8080  -11.3240 C.ar   93  TRP93       0.0001
     53  CH2      -22.9400  -12.8550  -10.4470 C.ar   93  TRP93       0.0015
     54  N        -20.1650  -11.6790   -1.4000 N.3   105  ASN105     -0.1225
     55  CA       -21.2900  -11.4160   -2.3190 C.3   105  ASN105      0.1785
     56  C        -21.2720  -12.2650   -3.5950 C.2   105  ASN105      0.2597
     57  O        -21.9610  -11.9230   -4.5540 O.2   105  ASN105     -0.2718
     58  CB       -21.4170   -9.9200   -2.6260 C.3   105  ASN105      0.1169
     59  CG       -21.6040   -9.0840   -1.3740 C.2   105  ASN105      0.2627
     60  OD1      -22.6160   -9.2100   -0.6600 O.2   105  ASN105     -0.2716
     61  ND2      -20.6240   -8.2420   -1.0880 N.am  105  ASN105     -0.0877
     62  N        -20.4980  -13.3540   -3.5770 N.am  106  SER106     -0.1952
     63  CA       -20.3920  -14.3430   -4.6650 C.3   106  SER106      0.1924
     64  C        -20.2860  -13.6620   -6.0340 C.2   106  SER106      0.2314
     65  O        -21.1330  -13.8590   -6.9160 O.2   106  SER106     -0.2863
     66  CB       -21.5760  -15.3130   -4.6110 C.3   106  SER106      0.2116
     67  OG       -21.2170  -16.6640   -4.9210 O.3   106  SER106     -0.2180
     68  N        -19.2470  -13.4330   -9.4010 N.3   108  ASN108     -0.1240
     69  CA       -18.7560  -14.3200  -10.4460 C.3   108  ASN108      0.1653
     70  C        -17.5800  -13.8160  -11.2280 C.2   108  ASN108      0.2266
     71  O        -16.6330  -14.5530  -11.3850 O.2   108  ASN108     -0.2867
     72  CB       -19.8650  -14.6330  -11.4740 C.3   108  ASN108      0.1155
     73  CG       -20.8390  -15.6800  -10.9830 C.2   108  ASN108      0.2627
     74  OD1      -20.7430  -16.2000   -9.8710 O.2   108  ASN108     -0.2716
     75  ND2      -21.8020  -15.9870  -11.8230 N.am  108  ASN108     -0.0877
     76  N        -17.2070  -25.1020  -13.7030 N.3   144  TRP144     -0.1227
     77  CA       -17.7500  -25.2830  -12.3820 C.3   144  TRP144      0.1737
     78  C        -19.2020  -24.8310  -12.2700 C.2   144  TRP144      0.2595
     79  O        -19.8070  -25.0310  -11.2270 O.2   144  TRP144     -0.2718
     80  CB       -16.8560  -24.5930  -11.3430 C.3   144  TRP144      0.0564
     81  CG       -16.8530  -23.0690  -11.3990 C.ar  144  TRP144      0.0003
     82  CD1      -17.6410  -22.2310  -10.6820 C.ar  144  TRP144      0.0946
     83  CD2      -16.0380  -22.2460  -12.2210 C.ar  144  TRP144      0.0152
     84  NE1      -17.3780  -20.9400  -10.9980 N.ar  144  TRP144     -0.2442
     85  CE2      -16.4100  -20.9160  -11.9660 C.ar  144  TRP144      0.0810
     86  CE3      -15.0520  -22.5030  -13.1740 C.ar  144  TRP144      0.0012
     87  CZ2      -15.8100  -19.8360  -12.6080 C.ar  144  TRP144      0.0191
     88  CZ3      -14.4510  -21.4340  -13.8130 C.ar  144  TRP144      0.0001
     89  CH2      -14.8410  -20.1220  -13.5370 C.ar  144  TRP144      0.0015
     90  N        -19.7660  -24.2630  -13.3400 N.am  145  MET145     -0.1979
     91  CA       -21.1260  -23.7250  -13.3040 C.3   145  MET145      0.1605
     92  C        -22.0790  -24.5400  -14.1580 C.2   145  MET145      0.2287
     93  O        -22.1570  -24.3120  -15.3630 O.2   145  MET145     -0.2864
     94  CB       -21.1680  -22.2880  -13.8470 C.3   145  MET145      0.0413
     95  CG       -20.3100  -21.2430  -13.1230 C.3   145  MET145      0.0598
     96  SD       -20.7830  -19.5770  -13.7400 S.3   145  MET145     -0.1393
     97  CE       -19.3350  -18.6330  -13.2510 C.3   145  MET145      0.0692
     98  N        -19.4680  -21.1300    2.4700 N.3   195  LYS195     -0.1231
     99  CA       -19.7540  -20.5930    1.1560 C.3   195  LYS195      0.1693
    100  C        -20.9630  -21.2880    0.5160 C.2   195  LYS195      0.2593
    101  O        -21.0240  -22.5280    0.4560 O.2   195  LYS195     -0.2718
    102  CB       -18.5660  -20.7500    0.2160 C.3   195  LYS195      0.0285
    103  CG       -18.7970  -20.1150   -1.2460 C.3   195  LYS195      0.0035
    104  CD       -18.8300  -18.5960   -1.1720 C.3   195  LYS195      0.0206
    105  CE       -19.1900  -17.9230   -2.5060 C.3   195  LYS195      0.1093
    106  NZ       -20.6770  -18.0870   -2.7430 N.3   195  LYS195     -0.1314
    107  N        -21.9100  -20.4740    0.0460 N.am  196  THR196     -0.1939
    108  CA       -23.1090  -20.9460   -0.6520 C.3   196  THR196      0.2028
    109  C        -22.8420  -21.2440   -2.1240 C.2   196  THR196      0.2643
    110  O        -21.8750  -20.7390   -2.7190 O.2   196  THR196     -0.2714
    111  CB       -24.2780  -19.9300   -0.5540 C.3   196  THR196      0.1808
    112  OG1      -23.8040  -18.6210   -0.8980 O.3   196  THR196     -0.2208
    113  CG2      -24.8200  -19.8580    0.8640 C.3   196  THR196      0.0379
    114  N        -23.7140  -22.0690   -2.7000 N.am  197  GLY197     -0.1939
    115  CA       -23.7350  -22.3170   -4.1180 C.3   197  GLY197      0.2014
    116  C        -25.1620  -22.4920   -4.5790 C.2   197  GLY197      0.2639
    117  O        -25.9290  -23.1950   -3.9350 O.2   197  GLY197     -0.2714
    118  N        -25.5210  -21.8290   -5.6790 N.am  198  THR198     -0.1950
    119  CA       -26.8350  -21.9710   -6.2650 C.3   198  THR198      0.1897
    120  C        -26.7250  -22.1740   -7.7690 C.2   198  THR198      0.2313
    121  O        -26.0240  -21.4260   -8.4640 O.2   198  THR198     -0.2863
    122  CB       -27.7140  -20.7260   -5.9710 C.3   198  THR198      0.1794
    123  OG1      -27.9210  -20.6100   -4.5620 O.3   198  THR198     -0.2208
    124  CG2      -29.0720  -20.8340   -6.6410 C.3   198  THR198      0.0378
    125  N        -29.0790  -22.2640  -11.1500 N.3   200  ILE200     -0.1245
    126  CA       -30.3450  -21.9090  -11.7470 C.3   200  ILE200      0.1561
    127  C        -30.3770  -22.5310  -13.1480 C.2   200  ILE200      0.2260
    128  O        -29.4140  -22.4270  -13.9080 O.2   200  ILE200     -0.2867
    129  CB       -30.5590  -20.3610  -11.8040 C.3   200  ILE200      0.0252
    130  CG1      -30.3750  -19.7190  -10.4190 C.3   200  ILE200      0.0019
    131  CG2      -31.9510  -20.0110  -12.2830 C.3   200  ILE200      0.0019
    132  CD1      -30.2580  -18.1930  -10.4730 C.3   200  ILE200      0.0001
    133  N        -28.8310  -22.0680   -2.3840 N.3   234  GLY234     -0.1210
    134  CA       -27.7450  -21.9070   -1.3930 C.3   234  GLY234      0.1956
    135  C        -28.1830  -21.2570   -0.0970 C.2   234  GLY234      0.2611
    136  O        -27.6760  -21.6020    0.9650 O.2   234  GLY234     -0.2717
    137  N        -29.1420  -20.3370   -0.1770 N.am  235  LYS235     -0.1979
    138  CA       -29.6660  -19.6240    1.0010 C.3   235  LYS235      0.1596
    139  C        -30.4200  -20.6200    1.8870 C.2   235  LYS235      0.2287
    140  O        -30.2450  -20.6530    3.1180 O.2   235  LYS235     -0.2864
    141  CB       -30.5880  -18.4850    0.5470 C.3   235  LYS235      0.0298
    142  CG       -31.2670  -17.7080    1.6640 C.3   235  LYS235      0.0038
    143  CD       -32.0480  -16.5300    1.0970 C.3   235  LYS235      0.0206
    144  CE       -33.1810  -16.0980    2.0380 C.3   235  LYS235      0.1093
    145  NZ       -34.0620  -15.0620    1.3930 N.3   235  LYS235     -0.1314
@<TRIPOS>BOND
     1    93    92    2
     2    92    91    1
     3   128   127    2
     4    94    91    1
     5    94    95    1
     6    88    89   ar
     7    88    86   ar
     8    96    97    1
     9    96    95    1
    10    76    77    1
    11    89    87   ar
    12    90    91    1
    13    90    78   am
    14    86    83   ar
    15   127   126    1
    16    87    85   ar
    17    77    78    1
    18    77    80    1
    19   131   129    1
    20    78    79    2
    21    83    85   ar
    22    83    81   ar
    23    85    84   ar
    24    75    73   am
    25   129   126    1
    26   129   130    1
    27   126   125    1
    28    72    73    1
    29    72    69    1
    30    81    80    1
    31    81    82   ar
    32    71    70    2
    33    52    50   ar
    34    52    53   ar
    35    70    69    1
    36    84    82   ar
    37    73    74    2
    38    50    47   ar
    39     7     6    2
    40   132   130    1
    41    53    51   ar
    42    69    68    1
    43    43    42    2
    44    24    25    1
    45     6     8   am
    46     6     5    1
    47    47    45   ar
    48    47    49   ar
    49    32    34   ar
    50    32    30   ar
    51    44    45    1
    52    44    41    1
    53    51    49   ar
    54    42    41    1
    55    34    33   ar
    56    30    29   ar
    57     2     1    1
    58     2     5    1
    59     2     3    1
    60    45    46   ar
    61    49    48   ar
    62    27    26    2
    63   121   120    2
    64    25    26    1
    65    25    28    1
    66    33    31   ar
    67    41    40    1
    68    29    31   ar
    69    29    28    1
    70     4     3    2
    71     3     9   am
    72   120   119    1
    73    22    23    1
    74    22    21    1
    75    46    48   ar
    76    40    37   am
    77     9    10    1
    78    14    13    1
    79    65    64    2
    80    20    21    1
    81    20    19    1
    82   124   122    1
    83    10    13    1
    84    10    11    1
    85   119   122    1
    86   119   118    1
    87    64    63    1
    88   122   123    1
    89    15    16    1
    90    37    38    2
    91    37    36    1
    92   118   116   am
    93    16    19    1
    94    16    17    1
    95    35    36    1
    96    11    12    2
    97    67    66    1
    98    36    39    1
    99    63    66    1
   100    63    62    1
   101   116   115    1
   102   116   117    2
   103    57    56    2
   104    17    18    2
   105   115   114    1
   106    56    62   am
   107    56    55    1
   108   106   105    1
   109   110   109    2
   110   114   109   am
   111    58    55    1
   112    58    59    1
   113   105   104    1
   114   133   134    1
   115    55    54    1
   116   109   108    1
   117   134   135    1
   118    59    61   am
   119    59    60    2
   120   103   104    1
   121   103   102    1
   122   112   111    1
   123   108   111    1
   124   108   107    1
   125   111   113    1
   126   137   135   am
   127   137   138    1
   128   135   136    2
   129   107   100   am
   130   102    99    1
   131   101   100    2
   132   100    99    1
   133   141   138    1
   134   141   142    1
   135   138   139    1
   136   143   142    1
   137   143   144    1
   138    99    98    1
   139   145   144    1
   140   139   140    2
