@<TRIPOS>MOLECULE
tmp/3q82B00.pdb
 152 147 0 0 0
SMALL
GASTEIGER

@<TRIPOS>ATOM
      1  N        -21.0950  -25.5340   -8.4800 N.3    57  ASN57      -0.1225
      2  CA       -21.4330  -24.1280   -8.6840 C.3    57  ASN57       0.1785
      3  C        -20.4650  -23.2190   -7.9150 C.2    57  ASN57       0.2597
      4  O        -19.2390  -23.4140   -7.9870 O.2    57  ASN57      -0.2718
      5  CB       -22.9140  -23.8930   -8.3820 C.3    57  ASN57       0.1169
      6  CG       -23.8130  -24.6450   -9.3590 C.2    57  ASN57       0.2627
      7  OD1      -23.7130  -24.4630  -10.5700 O.2    57  ASN57      -0.2716
      8  ND2      -24.6710  -25.5140   -8.8320 N.am   57  ASN57      -0.0877
      9  N        -20.9990  -22.2910   -7.1310 N.am   58  SER58      -0.1952
     10  CA       -20.1550  -21.3170   -6.4270 C.3    58  SER58       0.1924
     11  C        -19.3260  -21.8560   -5.2950 C.2    58  SER58       0.2314
     12  O        -18.4300  -21.1520   -4.8610 O.2    58  SER58      -0.2863
     13  CB       -20.9860  -20.1410   -5.8910 C.3    58  SER58       0.2116
     14  OG       -21.5140  -19.4110   -7.0050 O.3    58  SER58      -0.2180
     15  N        -15.5230  -21.7980   -5.8540 N.3    61  LYS61      -0.1245
     16  CA       -14.7550  -20.5570   -5.5980 C.3    61  LYS61       0.1561
     17  C        -13.7730  -20.6820   -4.4340 C.2    61  LYS61       0.2260
     18  O        -12.7520  -20.0220   -4.4510 O.2    61  LYS61      -0.2867
     19  CB       -15.6670  -19.3580   -5.3830 C.3    61  LYS61       0.0271
     20  CG       -16.4410  -19.0020   -6.6140 C.3    61  LYS61       0.0035
     21  CD       -17.6710  -18.2030   -6.3290 C.3    61  LYS61       0.0206
     22  CE       -18.1270  -17.4670   -7.5920 C.3    61  LYS61       0.1093
     23  NZ       -19.4930  -16.9550   -7.3970 N.3    61  LYS61      -0.1314
     24  N        -27.1270   -7.3570   -9.8610 N.3    90  PHE90      -0.1241
     25  CA       -26.8960   -7.1960   -8.4230 C.3    90  PHE90       0.1605
     26  C        -25.8410   -6.1010   -8.2060 C.2    90  PHE90       0.2264
     27  O        -24.7460   -6.1570   -8.7840 O.2    90  PHE90      -0.2867
     28  CB       -26.4680   -8.5320   -7.7800 C.3    90  PHE90       0.0534
     29  CG       -27.2660   -9.7430   -8.2550 C.ar   90  PHE90      -0.0203
     30  CD1      -26.6240  -10.8110   -8.9050 C.ar   90  PHE90      -0.0042
     31  CD2      -28.6610   -9.8180   -8.0580 C.ar   90  PHE90      -0.0042
     32  CE1      -27.3490  -11.9470   -9.3490 C.ar   90  PHE90      -0.0003
     33  CE2      -29.4090  -10.9530   -8.5030 C.ar   90  PHE90      -0.0003
     34  CZ       -28.7450  -12.0190   -9.1470 C.ar   90  PHE90      -0.0000
     35  N        -22.0480   -6.6030   -7.2080 N.3    93  TRP93      -0.1241
     36  CA       -21.1580   -7.0160   -8.2990 C.3    93  TRP93       0.1605
     37  C        -20.6100   -5.8590   -9.1340 C.2    93  TRP93       0.2264
     38  O        -19.6130   -6.0270   -9.8270 O.2    93  TRP93      -0.2867
     39  CB       -21.8780   -7.9700   -9.2560 C.3    93  TRP93       0.0550
     40  CG       -22.1790   -9.3620   -8.7460 C.ar   93  TRP93       0.0003
     41  CD1      -22.3920   -9.7680   -7.4430 C.ar   93  TRP93       0.0946
     42  CD2      -22.3570  -10.5350   -9.5590 C.ar   93  TRP93       0.0152
     43  NE1      -22.6810  -11.1250   -7.4090 N.ar   93  TRP93      -0.2442
     44  CE2      -22.6830  -11.6060   -8.6970 C.ar   93  TRP93       0.0810
     45  CE3      -22.2850  -10.7790  -10.9440 C.ar   93  TRP93       0.0012
     46  CZ2      -22.9140  -12.9020   -9.1750 C.ar   93  TRP93       0.0191
     47  CZ3      -22.5190  -12.0730  -11.4120 C.ar   93  TRP93       0.0001
     48  CH2      -22.8360  -13.1040  -10.5350 C.ar   93  TRP93       0.0015
     49  N        -20.0640  -11.8930   -1.4790 N.3   105  ASN105     -0.1225
     50  CA       -21.1870  -11.6310   -2.3870 C.3   105  ASN105      0.1785
     51  C        -21.2170  -12.5380   -3.6140 C.2   105  ASN105      0.2597
     52  O        -21.9750  -12.2630   -4.5520 O.2   105  ASN105     -0.2718
     53  CB       -21.2350  -10.1550   -2.7790 C.3   105  ASN105      0.1169
     54  CG       -21.3980   -9.2580   -1.5760 C.2   105  ASN105      0.2627
     55  OD1      -22.3560   -9.4050   -0.8190 O.2   105  ASN105     -0.2716
     56  ND2      -20.4550   -8.3340   -1.3810 N.am  105  ASN105     -0.0877
     57  N        -20.4070  -13.5950   -3.5780 N.am  106  SER106     -0.1952
     58  CA       -20.3070  -14.5820   -4.6550 C.3   106  SER106      0.1924
     59  C        -20.1970  -13.9020   -6.0340 C.2   106  SER106      0.2314
     60  O        -21.0490  -14.1060   -6.8830 O.2   106  SER106     -0.2863
     61  CB       -21.5060  -15.5390   -4.6050 C.3   106  SER106      0.2116
     62  OG       -21.1340  -16.8100   -5.1070 O.3   106  SER106     -0.2180
     63  N        -19.1300  -13.5120   -9.4760 N.3   108  ASN108     -0.1240
     64  CA       -18.6520  -14.4850  -10.4690 C.3   108  ASN108      0.1653
     65  C        -17.4720  -14.0400  -11.2790 C.2   108  ASN108      0.2266
     66  O        -16.5090  -14.7670  -11.4020 O.2   108  ASN108     -0.2867
     67  CB       -19.7510  -14.7730  -11.4590 C.3   108  ASN108      0.1155
     68  CG       -20.4580  -16.0370  -11.1670 C.2   108  ASN108      0.2627
     69  OD1      -20.5430  -16.4690  -10.0130 O.2   108  ASN108     -0.2716
     70  ND2      -20.9950  -16.6590  -12.2120 N.am  108  ASN108     -0.0877
     71  N        -17.1450  -25.2700  -13.7020 N.3   144  TRP144     -0.1227
     72  CA       -17.7570  -25.4470  -12.4060 C.3   144  TRP144      0.1737
     73  C        -19.2190  -25.0080  -12.3080 C.2   144  TRP144      0.2595
     74  O        -19.8380  -25.2330  -11.2890 O.2   144  TRP144     -0.2718
     75  CB       -16.9310  -24.7250  -11.3380 C.3   144  TRP144      0.0564
     76  CG       -16.9210  -23.1840  -11.4020 C.ar  144  TRP144      0.0003
     77  CD1      -17.7320  -22.3320  -10.7000 C.ar  144  TRP144      0.0946
     78  CD2      -16.0680  -22.3580  -12.1950 C.ar  144  TRP144      0.0152
     79  NE1      -17.4510  -21.0300  -11.0140 N.ar  144  TRP144     -0.2442
     80  CE2      -16.4340  -21.0100  -11.9330 C.ar  144  TRP144      0.0810
     81  CE3      -15.0450  -22.6150  -13.1140 C.ar  144  TRP144      0.0012
     82  CZ2      -15.8010  -19.9290  -12.5460 C.ar  144  TRP144      0.0191
     83  CZ3      -14.4170  -21.5330  -13.7380 C.ar  144  TRP144      0.0001
     84  CH2      -14.7990  -20.2100  -13.4490 C.ar  144  TRP144      0.0015
     85  N        -19.7710  -24.4000  -13.3530 N.am  145  MET145     -0.1979
     86  CA       -21.1590  -23.9370  -13.3270 C.3   145  MET145      0.1605
     87  C        -22.0430  -24.8070  -14.2010 C.2   145  MET145      0.2287
     88  O        -22.0120  -24.6660  -15.4120 O.2   145  MET145     -0.2864
     89  CB       -21.2560  -22.5010  -13.8590 C.3   145  MET145      0.0413
     90  CG       -20.7170  -21.4200  -12.9080 C.3   145  MET145      0.0598
     91  SD       -20.7050  -19.7930  -13.7450 S.3   145  MET145     -0.1393
     92  CE       -22.4630  -19.4330  -13.9270 C.3   145  MET145      0.0692
     93  N        -19.4890  -21.4210    2.4050 N.3   195  LYS195     -0.1231
     94  CA       -19.7760  -20.8990    1.0870 C.3   195  LYS195      0.1693
     95  C        -21.0160  -21.5680    0.5170 C.2   195  LYS195      0.2593
     96  O        -21.1090  -22.8200    0.4520 O.2   195  LYS195     -0.2718
     97  CB       -18.5980  -21.1060    0.1490 C.3   195  LYS195      0.0285
     98  CG       -18.7830  -20.4850   -1.2510 C.3   195  LYS195      0.0035
     99  CD       -18.8740  -18.9510   -1.1690 C.3   195  LYS195      0.0206
    100  CE       -19.2010  -18.3190   -2.5420 C.3   195  LYS195      0.1093
    101  NZ       -20.6640  -18.1010   -2.6320 N.3   195  LYS195     -0.1314
    102  N        -21.9520  -20.7130    0.1120 N.am  196  THR196     -0.1939
    103  CA       -23.1750  -21.1040   -0.5600 C.3   196  THR196      0.2028
    104  C        -22.9490  -21.3370   -2.0540 C.2   196  THR196      0.2643
    105  O        -22.0240  -20.7820   -2.6570 O.2   196  THR196     -0.2714
    106  CB       -24.3010  -20.0270   -0.4160 C.3   196  THR196      0.1808
    107  OG1      -23.7930  -18.7570   -0.8120 O.3   196  THR196     -0.2208
    108  CG2      -24.8000  -19.9390    1.0010 C.3   196  THR196      0.0379
    109  N        -23.8140  -22.1680   -2.6370 N.am  197  GLY197     -0.1939
    110  CA       -23.7830  -22.4790   -4.0540 C.3   197  GLY197      0.2014
    111  C        -25.2140  -22.6620   -4.5340 C.2   197  GLY197      0.2639
    112  O        -26.0090  -23.3040   -3.8570 O.2   197  GLY197     -0.2714
    113  N        -25.5540  -22.0820   -5.6850 N.am  198  THR198     -0.1950
    114  CA       -26.8840  -22.2380   -6.2420 C.3   198  THR198      0.1897
    115  C        -26.7800  -22.4400   -7.7430 C.2   198  THR198      0.2313
    116  O        -26.1840  -21.6190   -8.4450 O.2   198  THR198     -0.2863
    117  CB       -27.7610  -20.9850   -5.9760 C.3   198  THR198      0.1794
    118  OG1      -27.8190  -20.7070   -4.5770 O.3   198  THR198     -0.2208
    119  CG2      -29.1630  -21.2090   -6.4570 C.3   198  THR198      0.0378
    120  N        -28.9800  -22.4360  -11.0490 N.3   200  ILE200     -0.1245
    121  CA       -30.2200  -22.0070  -11.6780 C.3   200  ILE200      0.1561
    122  C        -30.2760  -22.5600  -13.1070 C.2   200  ILE200      0.2260
    123  O        -29.3860  -22.3170  -13.9050 O.2   200  ILE200     -0.2867
    124  CB       -30.3640  -20.4450  -11.7010 C.3   200  ILE200      0.0252
    125  CG1      -30.2730  -19.8560  -10.2970 C.3   200  ILE200      0.0019
    126  CG2      -31.7080  -20.0270  -12.2910 C.3   200  ILE200      0.0019
    127  CD1      -29.9530  -18.3570  -10.2870 C.3   200  ILE200      0.0001
    128  N        -34.3580  -22.8190   -9.3260 N.3   205  TYR205     -0.1241
    129  CA       -33.4190  -23.4600   -8.4280 C.3   205  TYR205      0.1605
    130  C        -33.3920  -24.9410   -8.6970 C.2   205  TYR205      0.2264
    131  O        -34.4350  -25.5840   -8.7730 O.2   205  TYR205     -0.2867
    132  CB       -33.8060  -23.2230   -6.9740 C.3   205  TYR205      0.0534
    133  CG       -33.7470  -21.7930   -6.5320 C.ar  205  TYR205     -0.0201
    134  CD1      -34.7890  -21.2260   -5.8090 C.ar  205  TYR205     -0.0009
    135  CD2      -32.6490  -21.0110   -6.8320 C.ar  205  TYR205     -0.0009
    136  CE1      -34.7230  -19.9010   -5.3830 C.ar  205  TYR205      0.0417
    137  CE2      -32.5640  -19.6920   -6.4140 C.ar  205  TYR205      0.0417
    138  CZ       -33.6000  -19.1480   -5.6870 C.ar  205  TYR205      0.1957
    139  OH       -33.5170  -17.8390   -5.2890 O.3   205  TYR205     -0.2866
    140  N        -28.8660  -22.2510   -2.3930 N.3   234  GLY234     -0.1210
    141  CA       -27.7780  -22.0230   -1.4020 C.3   234  GLY234      0.1956
    142  C        -28.2400  -21.4110   -0.0860 C.2   234  GLY234      0.2611
    143  O        -27.8890  -21.9150    0.9830 O.2   234  GLY234     -0.2717
    144  N        -29.0600  -20.3590   -0.1690 N.am  235  LYS235     -0.1979
    145  CA       -29.6910  -19.7290    1.0010 C.3   235  LYS235      0.1596
    146  C        -30.4690  -20.7540    1.8390 C.2   235  LYS235      0.2287
    147  O        -30.2920  -20.8110    3.0570 O.2   235  LYS235     -0.2864
    148  CB       -30.6080  -18.5790    0.5610 C.3   235  LYS235      0.0298
    149  CG       -31.6230  -18.0760    1.6170 C.3   235  LYS235      0.0038
    150  CD       -32.6120  -17.0850    0.9830 C.3   235  LYS235      0.0206
    151  CE       -33.8920  -16.9300    1.7980 C.3   235  LYS235      0.1093
    152  NZ       -34.8550  -16.0120    1.1040 N.3   235  LYS235     -0.1314
@<TRIPOS>BOND
     1    88    87    2
     2    87    86    1
     3    92    91    1
     4   123   122    2
     5    89    86    1
     6    89    90    1
     7    91    90    1
     8    83    84   ar
     9    83    81   ar
    10    71    72    1
    11    84    82   ar
    12    85    86    1
    13    85    73   am
    14    81    78   ar
    15   122   121    1
    16    82    80   ar
    17    72    73    1
    18    72    75    1
    19    73    74    2
    20   126   124    1
    21    70    68   am
    22    78    80   ar
    23    78    76   ar
    24    80    79   ar
    25   124   121    1
    26   124   125    1
    27   121   120    1
    28    67    68    1
    29    67    64    1
    30    47    45   ar
    31    47    48   ar
    32    76    75    1
    33    76    77   ar
    34    66    65    2
    35    65    64    1
    36    68    69    2
    37    79    77   ar
    38    45    42   ar
    39     7     6    2
    40    48    46   ar
    41    64    63    1
    42   125   127    1
    43    24    25    1
    44    38    37    2
    45    42    40   ar
    46    42    44   ar
    47     6     8   am
    48     6     5    1
    49    32    34   ar
    50    32    30   ar
    51   128   129    1
    52    39    40    1
    53    39    36    1
    54    46    44   ar
    55    34    33   ar
    56    37    36    1
    57    30    29   ar
    58    27    26    2
    59   131   130    2
    60    40    41   ar
    61    44    43   ar
    62   130   129    1
    63     2     1    1
    64     2     5    1
    65     2     3    1
    66    33    31   ar
    67   116   115    2
    68   129   132    1
    69    25    26    1
    70    25    28    1
    71    36    35    1
    72    29    31   ar
    73    29    28    1
    74     4     3    2
    75     3     9   am
    76   115   114    1
    77    22    23    1
    78    22    21    1
    79    41    43   ar
    80     9    10    1
    81    14    13    1
    82   132   133    1
    83    60    59    2
    84   135   133   ar
    85   135   137   ar
    86    20    21    1
    87    20    19    1
    88   133   134   ar
    89   119   117    1
    90    10    13    1
    91    10    11    1
    92   137   138   ar
    93   114   117    1
    94   114   113    1
    95    59    58    1
    96   117   118    1
    97    15    16    1
    98   134   136   ar
    99   138   136   ar
   100   138   139    1
   101   113   111   am
   102    16    19    1
   103    16    17    1
   104    11    12    2
   105    62    61    1
   106    58    61    1
   107    58    57    1
   108    52    51    2
   109   111   110    1
   110   111   112    2
   111    18    17    2
   112   110   109    1
   113    51    57   am
   114    51    50    1
   115    53    50    1
   116    53    54    1
   117   105   104    2
   118   109   104   am
   119   101   100    1
   120   100    99    1
   121   140   141    1
   122    50    49    1
   123   104   103    1
   124    54    56   am
   125    54    55    2
   126   141   142    1
   127    98    99    1
   128    98    97    1
   129   107   106    1
   130   103   106    1
   131   103   102    1
   132   106   108    1
   133   144   142   am
   134   144   145    1
   135   142   143    2
   136   102    95   am
   137    97    94    1
   138    96    95    2
   139    95    94    1
   140   148   145    1
   141   148   149    1
   142   150   149    1
   143   150   151    1
   144   145   146    1
   145    94    93    1
   146   152   151    1
   147   146   147    2
