@<TRIPOS>MOLECULE
tmp/3q85B00.pdb
 123 118 0 0 0
SMALL
GASTEIGER

@<TRIPOS>ATOM
      1  N          5.3700   -1.4690   45.5720 N.3    11  SER11      -0.1202
      2  CA         4.8120   -0.1580   45.2750 C.3    11  SER11       0.2020
      3  C          4.8900    0.7660   46.4850 C.2    11  SER11       0.2619
      4  O          4.6710    0.3460   47.6140 O.2    11  SER11      -0.2717
      5  CB         3.3570   -0.3000   44.8210 C.3    11  SER11       0.2103
      6  OG         2.7780    0.9680   44.5630 O.3    11  SER11      -0.2182
      7  N          5.2200    2.0280   46.2350 N.am   12  GLY12      -0.1942
      8  CA         5.1580    3.0540   47.2560 C.3    12  GLY12       0.2014
      9  C          6.4200    3.1880   48.0870 C.2    12  GLY12       0.2639
     10  O          6.5300    4.1170   48.8800 O.2    12  GLY12      -0.2714
     11  N          7.3780    2.2810   47.9080 N.am   13  VAL13      -0.1963
     12  CA         8.5710    2.3000   48.7470 C.3    13  VAL13       0.1727
     13  C          9.4470    3.5020   48.4280 C.2    13  VAL13       0.2617
     14  O         10.2150    3.9450   49.2770 O.2    13  VAL13      -0.2715
     15  CB         9.4050    1.0110   48.6230 C.3    13  VAL13       0.0290
     16  CG1        8.5750   -0.2100   49.0540 C.3    13  VAL13       0.0023
     17  CG2        9.9370    0.8430   47.2050 C.3    13  VAL13       0.0023
     18  N          9.3340    4.0240   47.2090 N.am   14  GLY14      -0.1940
     19  CA        10.0550    5.2270   46.8260 C.3    14  GLY14       0.2014
     20  C         11.0320    5.0560   45.6720 C.2    14  GLY14       0.2639
     21  O         11.9430    5.8640   45.5130 O.2    14  GLY14      -0.2714
     22  N         10.8460    4.0300   44.8480 N.am   15  LYS15      -0.1963
     23  CA        11.7710    3.7840   43.7460 C.3    15  LYS15       0.1728
     24  C         11.8960    5.0020   42.8320 C.2    15  LYS15       0.2617
     25  O         13.0000    5.4290   42.5070 O.2    15  LYS15      -0.2715
     26  CB        11.3450    2.5490   42.9430 C.3    15  LYS15       0.0311
     27  CG        11.3720    1.2630   43.7620 C.3    15  LYS15       0.0038
     28  CD        11.1010    0.0200   42.9200 C.3    15  LYS15       0.0206
     29  CE         9.8060    0.1370   42.1440 C.3    15  LYS15       0.1093
     30  NZ         8.6480    0.3700   43.0340 N.3    15  LYS15      -0.1314
     31  N         10.7660    5.5630   42.4200 N.am   16  SER16      -0.1936
     32  CA        10.7770    6.7200   41.5290 C.3    16  SER16       0.2055
     33  C         11.4060    7.9520   42.1710 C.2    16  SER16       0.2643
     34  O         12.0510    8.7460   41.4900 O.2    16  SER16      -0.2714
     35  CB         9.3620    7.0420   41.0590 C.3    16  SER16       0.2130
     36  OG         8.9640    6.1110   40.0740 O.3    16  SER16      -0.2179
     37  N         11.2300    8.1180   43.4760 N.am   17  THR17      -0.1950
     38  CA        11.8280    9.2650   44.1500 C.3    17  THR17       0.1897
     39  C         13.3530    9.0850   44.1420 C.2    17  THR17       0.2313
     40  O         14.0950   10.0520   43.9570 O.2    17  THR17      -0.2863
     41  CB        11.2660    9.4620   45.5770 C.3    17  THR17       0.1794
     42  OG1        9.8330    9.4830   45.5330 O.3    17  THR17      -0.2208
     43  CG2       11.7420   10.7750   46.1680 C.3    17  THR17       0.0378
     44  N         14.0520    2.6760   36.2820 N.3    45  ASP45      -0.1239
     45  CA        12.9300    2.6990   37.2070 C.3    45  ASP45       0.1674
     46  C         11.7200    2.1330   36.4750 C.2    45  ASP45       0.2266
     47  O         10.6880    2.7920   36.3620 O.2    45  ASP45      -0.2867
     48  CB        12.6650    4.1370   37.6630 C.3    45  ASP45       0.1410
     49  CG        11.4350    4.2580   38.5390 C.2    45  ASP45       0.3668
     50  OD1       11.1210    3.2920   39.2590 O.co2  45  ASP45      -0.2456
     51  OD2       10.7790    5.3200   38.5030 O.co2  45  ASP45      -0.2456
     52  N         10.3630   -1.1320   37.0430 N.3    47  TRP47      -0.1241
     53  CA         9.8740   -2.3290   37.7250 C.3    47  TRP47       0.1605
     54  C          8.3790   -2.2350   38.0190 C.2    47  TRP47       0.2264
     55  O          7.9240   -1.2690   38.6260 O.2    47  TRP47      -0.2867
     56  CB        10.6430   -2.5280   39.0350 C.3    47  TRP47       0.0550
     57  CG        10.2810   -3.7800   39.7650 C.ar   47  TRP47       0.0003
     58  CD1        9.3960   -3.9020   40.8010 C.ar   47  TRP47       0.0946
     59  CD2       10.7980   -5.0960   39.5230 C.ar   47  TRP47       0.0152
     60  NE1        9.3340   -5.2130   41.2180 N.ar   47  TRP47      -0.2442
     61  CE2       10.1840   -5.9640   40.4470 C.ar   47  TRP47       0.0810
     62  CE3       11.7210   -5.6230   38.6140 C.ar   47  TRP47       0.0012
     63  CZ2       10.4620   -7.3260   40.4870 C.ar   47  TRP47       0.0191
     64  CZ3       11.9950   -6.9780   38.6580 C.ar   47  TRP47       0.0001
     65  CH2       11.3670   -7.8120   39.5850 C.ar   47  TRP47       0.0015
     66  N          4.6480   -4.5300   39.2450 N.3    49  GLN49      -0.1245
     67  CA         4.2530   -5.5660   40.1960 C.3    49  GLN49       0.1566
     68  C          3.6670   -6.7820   39.4810 C.2    49  GLN49       0.2260
     69  O          3.1430   -6.6540   38.3760 O.2    49  GLN49      -0.2867
     70  CB         3.2500   -4.9950   41.2000 C.3    49  GLN49       0.0367
     71  CG         3.8440   -3.8730   42.0530 C.3    49  GLN49       0.0905
     72  CD         5.2050   -4.2490   42.6110 C.2    49  GLN49       0.2608
     73  OE1        5.3940   -5.3600   43.1050 O.2    49  GLN49      -0.2717
     74  NE2        6.1680   -3.3410   42.5150 N.am   49  GLN49      -0.0878
     75  N         14.4220    2.6190   52.4570 N.3    99  ASN99      -0.1225
     76  CA        14.1330    4.0230   52.1710 C.3    99  ASN99       0.1785
     77  C         13.1580    4.6380   53.1750 C.2    99  ASN99       0.2597
     78  O         12.5470    3.9290   53.9750 O.2    99  ASN99      -0.2718
     79  CB        13.5660    4.1500   50.7480 C.3    99  ASN99       0.1169
     80  CG        13.4870    5.5930   50.2640 C.2    99  ASN99       0.2627
     81  OD1       14.4080    6.3860   50.4700 O.2    99  ASN99      -0.2716
     82  ND2       12.3890    5.9320   49.5940 N.am   99  ASN99      -0.0877
     83  N         13.0330    5.9650   53.1290 N.am  100  LYS100     -0.1980
     84  CA        12.1640    6.7250   54.0280 C.3   100  LYS100      0.1596
     85  C         12.6840    6.7500   55.4640 C.2   100  LYS100      0.2287
     86  O         11.9000    6.7530   56.4050 O.2   100  LYS100     -0.2864
     87  CB        10.7290    6.1800   53.9990 C.3   100  LYS100      0.0298
     88  CG        10.1150    6.1320   52.6110 C.3   100  LYS100      0.0038
     89  CD         8.5860    6.0550   52.6460 C.3   100  LYS100      0.0206
     90  CE         8.0260    5.8420   51.2380 C.3   100  LYS100      0.1093
     91  NZ         6.5240    5.8230   51.1930 N.3   100  LYS100     -0.1314
     92  N         13.8130    9.0730   57.0420 N.3   102  ASP102     -0.1225
     93  CA        13.5380   10.3620   57.6610 C.3   102  ASP102      0.1805
     94  C         12.2600   10.3040   58.4800 C.2   102  ASP102      0.2597
     95  O         12.0190   11.1680   59.3250 O.2   102  ASP102     -0.2718
     96  CB        13.4140   11.4470   56.5910 C.3   102  ASP102      0.1424
     97  CG        12.3020   11.1610   55.5980 C.2   102  ASP102      0.3668
     98  OD1       12.5410   10.3890   54.6470 O.co2 102  ASP102     -0.2456
     99  OD2       11.1860   11.6980   55.7730 O.co2 102  ASP102     -0.2456
    100  N         11.4420    9.2840   58.2270 N.am  103  LEU103     -0.1979
    101  CA        10.1570    9.1390   58.9120 C.3   103  LEU103      0.1596
    102  C         10.3020    8.3070   60.1850 C.2   103  LEU103      0.2287
    103  O          9.7590    7.2040   60.2870 O.2   103  LEU103     -0.2864
    104  CB         9.1280    8.4960   57.9750 C.3   103  LEU103      0.0297
    105  CG         8.7980    9.3160   56.7240 C.3   103  LEU103      0.0022
    106  CD1        7.7900    8.6080   55.8200 C.3   103  LEU103      0.0001
    107  CD2        8.2730   10.6910   57.1190 C.3   103  LEU103      0.0001
    108  N         17.0680    8.4040   52.5120 N.3   129  SER129     -0.1202
    109  CA        15.8710    9.2150   52.4080 C.3   129  SER129      0.2020
    110  C         15.9080    9.8530   51.0340 C.2   129  SER129      0.2619
    111  O         16.6030   10.8440   50.8200 O.2   129  SER129     -0.2717
    112  CB        15.8240   10.2900   53.4930 C.3   129  SER129      0.2103
    113  OG        14.6800   11.1150   53.3260 O.3   129  SER129     -0.2182
    114  N         15.1840    9.2690   50.0900 N.am  130  ALA130     -0.1965
    115  CA        15.1280    9.8220   48.7510 C.3   130  ALA130      0.1728
    116  C         14.5900   11.2460   48.8270 C.2   130  ALA130      0.2616
    117  O         14.9950   12.1060   48.0540 O.2   130  ALA130     -0.2715
    118  CB        14.2480    8.9660   47.8730 C.3   130  ALA130      0.0334
    119  N         13.6930   11.4910   49.7770 N.am  131  ALA131     -0.1977
    120  CA        13.0670   12.8060   49.9260 C.3   131  ALA131      0.1597
    121  C         14.0810   13.8890   50.2860 C.2   131  ALA131      0.2287
    122  O         13.9920   15.0160   49.7990 O.2   131  ALA131     -0.2864
    123  CB        11.9660   12.7490   50.9710 C.3   131  ALA131      0.0319
@<TRIPOS>BOND
     1    44    45    1
     2    47    46    2
     3    46    45    1
     4    52    53    1
     5    45    48    1
     6    48    49    1
     7    53    54    1
     8    53    56    1
     9    54    55    2
    10    69    68    2
    11    51    49   ar
    12    49    50   ar
    13    62    64   ar
    14    62    59   ar
    15    64    65   ar
    16    56    57    1
    17    66    67    1
    18    68    67    1
    19    59    57   ar
    20    59    61   ar
    21    65    63   ar
    22    57    58   ar
    23    36    35    1
    24    67    70    1
    25    61    63   ar
    26    61    60   ar
    27    58    60   ar
    28    35    32    1
    29    70    71    1
    30    34    33    2
    31    32    33    1
    32    32    31    1
    33    71    72    1
    34    29    28    1
    35    29    30    1
    36    33    37   am
    37    31    24   am
    38    25    24    2
    39    74    72   am
    40    72    73    2
    41    24    23    1
    42    28    27    1
    43    26    23    1
    44    26    27    1
    45    37    38    1
    46    23    22    1
    47    40    39    2
    48    39    38    1
    49    38    41    1
    50     6     5    1
    51     5     2    1
    52    22    20   am
    53     2     1    1
    54     2     3    1
    55    21    20    2
    56    42    41    1
    57    41    43    1
    58    20    19    1
    59     7     3   am
    60     7     8    1
    61     3     4    2
    62    19    18    1
    63    17    15    1
    64    18    13   am
    65     8     9    1
    66   118   115    1
    67    11     9   am
    68    11    12    1
    69   117   116    2
    70     9    10    2
    71    13    12    1
    72    13    14    2
    73    15    12    1
    74    15    16    1
    75   115   116    1
    76   115   114    1
    77   116   119   am
    78    82    80   am
    79   119   120    1
    80   122   121    2
    81   120   121    1
    82   120   123    1
    83   114   110   am
    84    80    81    2
    85    80    79    1
    86    79    76    1
    87   111   110    2
    88   110   109    1
    89    91    90    1
    90    90    89    1
    91    76    75    1
    92    76    77    1
    93   109   108    1
    94   109   112    1
    95    88    89    1
    96    88    87    1
    97    83    77   am
    98    83    84    1
    99    77    78    2
   100   113   112    1
   101    87    84    1
   102    84    85    1
   103    98    97   ar
   104    85    86    2
   105    97    99   ar
   106    97    96    1
   107   106   105    1
   108    96    93    1
   109   105   107    1
   110   105   104    1
   111    92    93    1
   112    93    94    1
   113   104   101    1
   114   100    94   am
   115   100   101    1
   116    94    95    2
   117   101   102    1
   118   102   103    2
