@<TRIPOS>MOLECULE
tmp/3q86B00.pdb
 127 119 0 0 0
SMALL
GASTEIGER

@<TRIPOS>ATOM
      1  N         20.7160  -12.6920    3.2220 N.3     9  LYS9       -0.1245
      2  CA        20.2340  -11.3250    3.3950 C.3     9  LYS9        0.1561
      3  C         20.5910  -10.4180    2.2000 C.2     9  LYS9        0.2260
      4  O         21.3870  -10.8270    1.3520 O.2     9  LYS9       -0.2867
      5  CB        20.7060  -10.7510    4.7320 C.3     9  LYS9        0.0271
      6  CG        20.1450  -11.5180    5.9520 C.3     9  LYS9        0.0035
      7  CD        20.8620  -11.0390    7.2060 C.3     9  LYS9        0.0206
      8  CE        20.4380  -11.8450    8.4120 C.3     9  LYS9        0.1093
      9  NZ        21.0680  -11.3250    9.6720 N.3     9  LYS9       -0.1314
     10  N         11.1020  -10.8720   12.3830 N.3    49  TYR49      -0.1241
     11  CA        11.9370  -10.3800   13.4710 C.3    49  TYR49       0.1605
     12  C         11.1900   -9.8130   14.6900 C.2    49  TYR49       0.2264
     13  O         11.7820   -8.9900   15.4160 O.2    49  TYR49      -0.2867
     14  CB        12.9100   -9.3300   12.9420 C.3    49  TYR49       0.0534
     15  CG        14.0430   -9.9230   12.1770 C.ar   49  TYR49      -0.0201
     16  CD1       14.8780  -10.8600   12.7700 C.ar   49  TYR49      -0.0009
     17  CD2       14.2950   -9.5560   10.8450 C.ar   49  TYR49      -0.0009
     18  CE1       15.9580  -11.4110   12.0810 C.ar   49  TYR49       0.0417
     19  CE2       15.3930  -10.1050   10.1310 C.ar   49  TYR49       0.0417
     20  CZ        16.2190  -11.0310   10.7710 C.ar   49  TYR49       0.1957
     21  OH        17.2920  -11.6400   10.1450 O.3    49  TYR49      -0.2866
     22  N         10.5530  -10.6840   17.7350 N.3    51  GLU51      -0.1231
     23  CA        11.1520  -10.7730   19.0550 C.3    51  GLU51       0.1699
     24  C         12.1300   -9.6250   19.2880 C.2    51  GLU51       0.2592
     25  O         12.5950   -9.4120   20.4230 O.2    51  GLU51      -0.2718
     26  CB        11.9100  -12.1010   19.1790 C.3    51  GLU51       0.0402
     27  CG        13.3080  -12.0420   18.4650 C.3    51  GLU51       0.1161
     28  CD        13.7050  -13.3380   17.7560 C.2    51  GLU51       0.3649
     29  OE1       14.4340  -14.1450   18.3850 O.co2  51  GLU51      -0.2457
     30  OE2       13.2880  -13.5440   16.5890 O.co2  51  GLU51      -0.2457
     31  N         12.4860   -8.9250   18.2100 N.am   52  HIS52      -0.1976
     32  CA        13.4450   -7.8260   18.3080 C.3    52  HIS52       0.1656
     33  C         12.7860   -6.4630   18.3970 C.2    52  HIS52       0.2291
     34  O         13.4990   -5.4340   18.4220 O.2    52  HIS52      -0.2864
     35  CB        14.4630   -7.8290   17.1540 C.3    52  HIS52       0.0771
     36  CG        15.3050   -9.0580   17.1020 C.ar   52  HIS52       0.0820
     37  ND1       15.9260   -9.5900   18.2170 N.ar   52  HIS52      -0.2267
     38  CD2       15.6230   -9.8730   16.0670 C.ar   52  HIS52       0.1154
     39  CE1       16.5710  -10.6890   17.8720 C.ar   52  HIS52       0.1986
     40  NE2       16.4040  -10.8800   16.5700 N.ar   52  HIS52      -0.2212
     41  N         14.3140   -3.4410   20.4950 N.3    55  LYS55      -0.1245
     42  CA        15.7420   -3.2870   20.5840 C.3    55  LYS55       0.1561
     43  C         16.2740   -2.0780   19.7800 C.2    55  LYS55       0.2260
     44  O         15.6590   -1.6570   18.7840 O.2    55  LYS55      -0.2867
     45  CB        16.4020   -4.6230   20.2290 C.3    55  LYS55       0.0271
     46  CG        15.9220   -5.7560   21.1510 C.3    55  LYS55       0.0035
     47  CD        16.2750   -7.0930   20.6120 C.3    55  LYS55       0.0206
     48  CE        15.7450   -8.1590   21.4840 C.3    55  LYS55       0.1093
     49  NZ        16.4540   -9.4130   21.1830 N.3    55  LYS55      -0.1314
     50  N         18.5600   -1.8780   17.5450 N.3    57  PHE57      -0.1241
     51  CA        18.8860   -2.1910   16.1350 C.3    57  PHE57       0.1605
     52  C         17.6690   -2.4520   15.2790 C.2    57  PHE57       0.2264
     53  O         17.8020   -2.6220   14.0630 O.2    57  PHE57      -0.2867
     54  CB        19.8670   -3.3820   16.0060 C.3    57  PHE57       0.0534
     55  CG        19.4140   -4.6540   16.7430 C.ar   57  PHE57      -0.0203
     56  CD1       18.6110   -5.5920   16.1100 C.ar   57  PHE57      -0.0042
     57  CD2       19.8010   -4.8940   18.0910 C.ar   57  PHE57      -0.0042
     58  CE1       18.2180   -6.7350   16.7640 C.ar   57  PHE57      -0.0003
     59  CE2       19.4190   -6.0550   18.7560 C.ar   57  PHE57      -0.0003
     60  CZ        18.6410   -6.9890   18.0890 C.ar   57  PHE57      -0.0000
     61  N         17.2770   -3.0510   11.2540 N.3    61  LEU61      -0.1245
     62  CA        17.0460   -4.4350   10.8260 C.3    61  LEU61       0.1561
     63  C         15.9220   -4.4790    9.7770 C.2    61  LEU61       0.2260
     64  O         16.1440   -4.9230    8.6580 O.2    61  LEU61      -0.2867
     65  CB        16.6180   -5.2950   12.0120 C.3    61  LEU61       0.0270
     66  CG        17.0940   -6.7070   12.2200 C.3    61  LEU61       0.0019
     67  CD1       16.0420   -7.3690   13.0020 C.3    61  LEU61       0.0001
     68  CD2       17.3790   -7.4470   10.9540 C.3    61  LEU61       0.0001
     69  N         26.9420  -14.2470   15.5940 N.3    91  THR91      -0.1218
     70  CA        26.2420  -13.0950   15.0400 C.3    91  THR91       0.1862
     71  C         27.1500  -11.9710   14.5310 C.2    91  THR91       0.2287
     72  O         26.9360  -11.4050   13.4540 O.2    91  THR91      -0.2866
     73  CB        25.2500  -12.5320   16.1010 C.3    91  THR91       0.1770
     74  OG1       24.4980  -13.6200   16.6630 O.3    91  THR91      -0.2211
     75  CG2       24.3060  -11.5250   15.4830 C.3    91  THR91       0.0375
     76  N         29.8380  -16.0340    8.1590 N.3   102  ARG102     -0.1245
     77  CA        29.9360  -14.6530    8.6900 C.3   102  ARG102      0.1563
     78  C         31.4060  -14.3040    8.9410 C.2   102  ARG102      0.2260
     79  O         31.7960  -13.1890    8.6600 O.2   102  ARG102     -0.2867
     80  CB        29.0190  -14.3970    9.9330 C.3   102  ARG102      0.0307
     81  CG        27.5980  -15.0160    9.8020 C.3   102  ARG102      0.0489
     82  CD        26.2990  -14.2520   10.1790 C.3   102  ARG102      0.2205
     83  NE        25.8160  -14.6740   11.4610 N.pl3 102  ARG102     -0.0865
     84  CZ        24.5650  -14.8720   11.9060 C.cat 102  ARG102      0.5346
     85  NH1       24.4590  -15.2950   13.1580 N.pl3 102  ARG102      0.1354
     86  NH2       23.4530  -14.7200   11.1880 N.pl3 102  ARG102      0.1354
     87  N         28.1100   -6.5490   12.6430 N.3   109  VAL109     -0.1231
     88  CA        27.0010   -7.2820   13.2790 C.3   109  VAL109      0.1692
     89  C         25.6650   -7.0700   12.5680 C.2   109  VAL109      0.2592
     90  O         24.9450   -8.0180   12.3630 O.2   109  VAL109     -0.2718
     91  CB        26.9670   -6.9790   14.8090 C.3   109  VAL109      0.0266
     92  CG1       26.8290   -5.4290   15.0990 C.3   109  VAL109      0.0020
     93  CG2       25.9640   -7.8400   15.5740 C.3   109  VAL109      0.0020
     94  N         25.3680   -5.8510   12.1240 N.am  110  GLY110     -0.1957
     95  CA        24.0920   -5.5800   11.4250 C.3   110  GLY110      0.1869
     96  C         24.0330   -6.0320    9.9610 C.2   110  GLY110      0.2309
     97  O         22.9460   -6.1120    9.3740 O.2   110  GLY110     -0.2863
     98  N         25.3890   -9.1460    8.2150 N.3   112  ASN112     -0.1240
     99  CA        26.0990  -10.3880    8.4810 C.3   112  ASN112      0.1653
    100  C         25.5730  -11.5270    7.5960 C.2   112  ASN112      0.2266
    101  O         25.4730  -12.6740    8.0400 O.2   112  ASN112     -0.2867
    102  CB        26.0490  -10.7000    9.9900 C.3   112  ASN112      0.1155
    103  CG        24.6580  -10.9770   10.4710 C.2   112  ASN112      0.2627
    104  OD1       23.7120  -10.8160    9.6930 O.2   112  ASN112     -0.2716
    105  ND2       24.5040  -11.3920   11.7470 N.am  112  ASN112     -0.0877
    106  N         20.7580  -15.4170    7.6470 N.3   115  HIS115     -0.1226
    107  CA        20.0590  -15.7920    8.8650 C.3   115  HIS115      0.1752
    108  C         19.8220  -17.2900    8.9050 C.2   115  HIS115      0.2596
    109  O         19.5080  -17.8900    7.8720 O.2   115  HIS115     -0.2718
    110  CB        18.7110  -15.0510    8.9500 C.3   115  HIS115      0.0759
    111  CG        17.6650  -15.7740    9.7470 C.ar  115  HIS115      0.0818
    112  ND1       17.4500  -15.5310   11.0900 N.ar  115  HIS115     -0.2268
    113  CD2       16.8130  -16.7640    9.4000 C.ar  115  HIS115      0.1154
    114  CE1       16.5050  -16.3370   11.5330 C.ar  115  HIS115      0.1986
    115  NE2       16.1000  -17.0940   10.5260 N.ar  115  HIS115     -0.2212
    116  N         19.9290  -17.8840   10.0960 N.am  116  GLY116     -0.1957
    117  CA        19.4980  -19.2590   10.3360 C.3   116  GLY116      0.1869
    118  C         18.5860  -19.3230   11.5610 C.2   116  GLY116      0.2309
    119  O         18.7850  -18.5710   12.5270 O.2   116  GLY116     -0.2863
    120  N         17.3310  -20.3720   15.0670 N.3   118  ASP118     -0.1239
    121  CA        18.1650  -20.6570   16.2260 C.3   118  ASP118      0.1674
    122  C         17.7200  -21.8510   17.0540 C.2   118  ASP118      0.2266
    123  O         18.2850  -22.1160   18.1030 O.2   118  ASP118     -0.2867
    124  CB        18.3190  -19.4280   17.1240 C.3   118  ASP118      0.1410
    125  CG        16.9730  -18.9090   17.7070 C.2   118  ASP118      0.3668
    126  OD1       16.9830  -17.7770   18.1870 O.co2 118  ASP118     -0.2456
    127  OD2       15.9280  -19.6020   17.6620 O.co2 118  ASP118     -0.2456
@<TRIPOS>BOND
     1     4     3    2
     2     3     2    1
     3     1     2    1
     4     2     5    1
     5     5     6    1
     6     6     7    1
     7     7     8    1
     8   100   101    2
     9   100    99    1
    10   106   107    1
    11   109   108    2
    12    76    77    1
    13    98    99    1
    14     8     9    1
    15    99   102    1
    16    64    63    2
    17    79    78    2
    18    77    78    1
    19    77    80    1
    20   107   108    1
    21   107   110    1
    22   108   116   am
    23   110   111    1
    24    97    96    2
    25   113   111   ar
    26   113   115   ar
    27   104   103    2
    28   111   112   ar
    29    63    62    1
    30    81    80    1
    31    81    82    1
    32    96    95    1
    33   102   103    1
    34   116   117    1
    35    19    20   ar
    36    19    17   ar
    37    21    20    1
    38    82    83    1
    39   117   118    1
    40   103   105   am
    41   115   114   ar
    42    20    18   ar
    43    62    61    1
    44    62    65    1
    45    17    15   ar
    46    68    66    1
    47   112   114   ar
    48    86    84    1
    49    95    94    1
    50    83    84    2
    51   118   119    2
    52    84    85    1
    53    65    66    1
    54    18    16   ar
    55    94    89   am
    56    15    16   ar
    57    15    14    1
    58    66    67    1
    59    90    89    2
    60    10    11    1
    61    89    88    1
    62    87    88    1
    63    14    11    1
    64    88    91    1
    65    72    71    2
    66    11    12    1
    67    53    52    2
    68    71    70    1
    69    12    13    2
    70    91    92    1
    71    91    93    1
    72    70    69    1
    73    70    73    1
    74   120   121    1
    75    52    51    1
    76    75    73    1
    77    54    51    1
    78    54    55    1
    79    38    40   ar
    80    38    36   ar
    81    73    74    1
    82    56    55   ar
    83    56    58   ar
    84    51    50    1
    85   121   122    1
    86   121   124    1
    87    40    39   ar
    88    30    28   ar
    89    55    57   ar
    90    58    60   ar
    91   122   123    2
    92    36    35    1
    93    36    37   ar
    94   124   125    1
    95    35    32    1
    96   127   125   ar
    97   125   126   ar
    98    22    23    1
    99    28    29   ar
   100    28    27    1
   101    39    37   ar
   102    60    59   ar
   103    57    59   ar
   104    31    32    1
   105    31    24   am
   106    32    33    1
   107    33    34    2
   108    27    26    1
   109    44    43    2
   110    23    26    1
   111    23    24    1
   112    24    25    2
   113    43    42    1
   114    45    42    1
   115    45    46    1
   116    41    42    1
   117    47    46    1
   118    47    48    1
   119    49    48    1
