@<TRIPOS>MOLECULE
tmp/3q87B00.pdb
 221 218 0 0 0
SMALL
GASTEIGER

@<TRIPOS>ATOM
      1  N         41.8740   17.9940   12.7850 N.3     4  TYR4       -0.1227
      2  CA        40.9890   18.7270   11.8920 C.3     4  TYR4        0.1736
      3  C         40.5950   20.0610   12.5170 C.2     4  TYR4        0.2595
      4  O         40.1020   20.0980   13.6410 O.2     4  TYR4       -0.2718
      5  CB        39.7350   17.9020   11.5980 C.3     4  TYR4        0.0548
      6  CG        38.9450   18.4200   10.4210 C.ar    4  TYR4       -0.0200
      7  CD1       39.2640   18.0190    9.1240 C.ar    4  TYR4       -0.0009
      8  CD2       37.8930   19.3030   10.5960 C.ar    4  TYR4       -0.0009
      9  CE1       38.5590   18.4820    8.0390 C.ar    4  TYR4        0.0417
     10  CE2       37.1720   19.7800    9.5030 C.ar    4  TYR4        0.0417
     11  CZ        37.5140   19.3620    8.2230 C.ar    4  TYR4        0.1957
     12  OH        36.8110   19.8100    7.1180 O.3     4  TYR4       -0.2866
     13  N         40.8000   21.1510   11.7860 N.am    5  GLU5       -0.1966
     14  CA        40.5370   22.4800   12.3240 C.3     5  GLU5        0.1718
     15  C         39.1830   22.9850   11.8280 C.2     5  GLU5        0.2458
     16  O         38.7290   22.5680   10.7710 O.2     5  GLU5       -0.2730
     17  CB        41.6550   23.4300   11.8920 C.3     5  GLU5        0.0428
     18  CG        43.0110   23.0420   12.4320 C.3     5  GLU5        0.1163
     19  CD        44.1580   23.7470   11.7150 C.2     5  GLU5        0.3649
     20  OE1       43.9050   24.7320   10.9810 O.co2   5  GLU5       -0.2457
     21  OE2       45.3170   23.3070   11.8880 O.co2   5  GLU5       -0.2457
     22  N         38.5300   23.8750   12.5980 N.am    6  PRO6       -0.2727
     23  CA        37.2080   24.3790   12.2020 C.3     6  PRO6        0.1402
     24  C         37.2330   25.0100   10.8060 C.2     6  PRO6        0.2269
     25  O         38.1010   25.8350   10.5510 O.2     6  PRO6       -0.2865
     26  CB        36.9140   25.4470   13.2560 C.3     6  PRO6        0.0296
     27  CG        37.7280   25.0190   14.4540 C.3     6  PRO6        0.0237
     28  CD        38.9780   24.4390   13.8870 C.3     6  PRO6        0.0939
     29  N         32.3070   22.8400    9.2420 N.3    10  THR10      -0.1218
     30  CA        31.9140   22.8090   10.6480 C.3    10  THR10       0.1862
     31  C         30.9210   23.9390   10.9490 C.2    10  THR10       0.2287
     32  O         29.9280   23.7290   11.6180 O.2    10  THR10      -0.2866
     33  CB        33.1140   22.8510   11.6410 C.3    10  THR10       0.1770
     34  OG1       33.1160   24.0840   12.3660 O.3    10  THR10      -0.2211
     35  CG2       34.4370   22.6730   10.9440 C.3    10  THR10       0.0375
     36  N         29.0450   14.5660   20.9620 N.3    29  ASP29      -0.1225
     37  CA        29.7540   15.2380   19.8690 C.3    29  ASP29       0.1805
     38  C         30.8000   14.2530   19.3510 C.2    29  ASP29       0.2598
     39  O         31.8970   14.1420   19.8960 O.2    29  ASP29      -0.2718
     40  CB        30.4360   16.5210   20.3680 C.3    29  ASP29       0.1424
     41  CG        31.2820   17.2110   19.2910 C.2    29  ASP29       0.3668
     42  OD1       31.1790   16.8380   18.0920 O.co2  29  ASP29      -0.2456
     43  OD2       32.0540   18.1390   19.6450 O.co2  29  ASP29      -0.2456
     44  N         30.4360   13.5180   18.3110 N.am   30  LEU30      -0.1966
     45  CA        31.2740   12.4630   17.7650 C.3    30  LEU30       0.1728
     46  C         32.2700   13.0590   16.7690 C.2    30  LEU30       0.2617
     47  O         31.8700   13.8100   15.8890 O.2    30  LEU30      -0.2715
     48  CB        30.3650   11.4530   17.0620 C.3    30  LEU30       0.0311
     49  CG        30.9420   10.1550   16.5120 C.3    30  LEU30       0.0022
     50  CD1       31.5680    9.3590   17.6220 C.3    30  LEU30       0.0001
     51  CD2       29.8330    9.3400   15.8390 C.3    30  LEU30       0.0001
     52  N         33.5510   12.7140   16.8850 N.am   31  GLY31      -0.1940
     53  CA        34.5750   13.3500   16.0680 C.3    31  GLY31       0.2014
     54  C         34.7070   14.8170   16.4790 C.2    31  GLY31       0.2640
     55  O         34.6770   15.7310   15.6570 O.2    31  GLY31      -0.2714
     56  N         34.8690   15.0330   17.7770 N.am   32  THR32      -0.1936
     57  CA        34.8610   16.3660   18.3420 C.3    32  THR32       0.2028
     58  C         36.0630   17.1700   17.9030 C.2    32  THR32       0.2642
     59  O         36.0150   18.3960   17.9060 O.2    32  THR32      -0.2714
     60  CB        34.8450   16.3220   19.8920 C.3    32  THR32       0.1808
     61  OG1       34.8240   17.6500   20.4090 O.3    32  THR32      -0.2208
     62  CG2       36.0610   15.5940   20.4240 C.3    32  THR32       0.0379
     63  N         37.1380   16.4780   17.5330 N.am   33  SER33      -0.1949
     64  CA        38.4170   17.1410   17.2530 C.3    33  SER33       0.1924
     65  C         38.8420   18.0220   18.4440 C.2    33  SER33       0.2314
     66  O         38.9860   17.5070   19.5570 O.2    33  SER33      -0.2863
     67  CB        38.3630   17.9260   15.9500 C.3    33  SER33       0.2116
     68  OG        39.6650   18.3520   15.5660 O.3    33  SER33      -0.2180
     69  N         35.2100   22.6660   18.9220 N.3    36  VAL36      -0.1231
     70  CA        34.4760   23.8690   18.5350 C.3    36  VAL36       0.1692
     71  C         32.9590   23.6600   18.6480 C.2    36  VAL36       0.2591
     72  O         32.2420   24.5270   19.1280 O.2    36  VAL36      -0.2718
     73  CB        34.8950   24.3870   17.1190 C.3    36  VAL36       0.0266
     74  CG1       34.3210   23.4930   15.9960 C.3    36  VAL36       0.0020
     75  CG2       34.5090   25.8340   16.9390 C.3    36  VAL36       0.0020
     76  N         32.4650   22.4990   18.2360 N.am   37  ILE37      -0.1980
     77  CA        31.0300   22.2430   18.3500 C.3    37  ILE37       0.1595
     78  C         30.5950   21.9540   19.8030 C.2    37  ILE37       0.2287
     79  O         29.5350   22.4200   20.2590 O.2    37  ILE37      -0.2864
     80  CB        30.5890   21.1210   17.3960 C.3    37  ILE37       0.0276
     81  CG1       30.8750   21.5270   15.9480 C.3    37  ILE37       0.0022
     82  CG2       29.1100   20.8340   17.5680 C.3    37  ILE37       0.0022
     83  CD1       30.5050   20.4380   14.9260 C.3    37  ILE37       0.0001
     84  N         33.9380   12.8280   21.8010 N.3    50  THR50      -0.1203
     85  CA        34.8020   11.6940   21.4750 C.3    50  THR50       0.1994
     86  C         35.5370   11.8970   20.1650 C.2    50  THR50       0.2618
     87  O         35.0510   12.5910   19.2830 O.2    50  THR50      -0.2717
     88  CB        34.0200   10.3550   21.3740 C.3    50  THR50       0.1784
     89  OG1       33.3120   10.3100   20.1310 O.3    50  THR50      -0.2211
     90  CG2       33.0350   10.1960   22.5350 C.3    50  THR50       0.0376
     91  N         36.7190   11.2950   20.0520 N.am   51  ASP51      -0.1959
     92  CA        37.4840   11.3290   18.8090 C.3    51  ASP51       0.1840
     93  C         38.4650   10.1640   18.7990 C.2    51  ASP51       0.2622
     94  O         38.8580    9.6520   19.8490 O.2    51  ASP51      -0.2715
     95  CB        38.2500   12.6590   18.6560 C.3    51  ASP51       0.1450
     96  CG        38.4860   13.0300   17.1980 C.2    51  ASP51       0.3671
     97  OD1       37.8810   14.0070   16.7250 O.co2  51  ASP51      -0.2456
     98  OD2       39.2500   12.3220   16.5150 O.co2  51  ASP51      -0.2456
     99  N         38.8200    9.7170   17.6040 N.am   52  LEU52      -0.1963
    100  CA        39.8440    8.7000   17.4340 C.3    52  LEU52       0.1728
    101  C         41.2280    9.3320   17.5950 C.2    52  LEU52       0.2616
    102  O         42.1910    8.6610   17.9570 O.2    52  LEU52      -0.2715
    103  CB        39.7120    8.0730   16.0410 C.3    52  LEU52       0.0311
    104  CG        40.5510    6.8360   15.7430 C.3    52  LEU52       0.0022
    105  CD1       40.1550    5.7230   16.7160 C.3    52  LEU52       0.0001
    106  CD2       40.3210    6.4010   14.2960 C.3    52  LEU52       0.0001
    107  N         41.3060   10.6400   17.3390 N.am   53  ASN53      -0.1972
    108  CA        42.5660   11.3830   17.2970 C.3    53  ASN53       0.1688
    109  C         42.9980   11.9450   18.6610 C.2    53  ASN53       0.2292
    110  O         42.4480   12.9440   19.1400 O.2    53  ASN53      -0.2864
    111  CB        42.4240   12.5080   16.2600 C.3    53  ASN53       0.1181
    112  CG        43.6610   13.3530   16.1270 C.2    53  ASN53       0.2629
    113  OD1       44.6550   13.1370   16.8130 O.2    53  ASN53      -0.2716
    114  ND2       43.6030   14.3380   15.2380 N.am   53  ASN53      -0.0877
    115  N         37.6830    7.2100   21.3260 N.3    68  ALA68      -0.1231
    116  CA        36.8890    6.0420   20.9580 C.3    68  ALA68       0.1694
    117  C         36.7170    5.9400   19.4570 C.2    68  ALA68       0.2592
    118  O         36.8090    6.9400   18.7460 O.2    68  ALA68      -0.2718
    119  CB        35.5240    6.1020   21.6240 C.3    68  ALA68       0.0304
    120  N         36.4410    4.7230   18.9910 N.am   69  ASP69      -0.1960
    121  CA        36.1710    4.4570   17.5810 C.3    69  ASP69       0.1840
    122  C         34.6520    4.4490   17.4090 C.2    69  ASP69       0.2621
    123  O         33.9740    3.5240   17.8560 O.2    69  ASP69      -0.2715
    124  CB        36.8020    3.1080   17.1860 C.3    69  ASP69       0.1450
    125  CG        36.8120    2.8660   15.6770 C.2    69  ASP69       0.3671
    126  OD1       36.0440    3.5190   14.9380 O.co2  69  ASP69      -0.2456
    127  OD2       37.5990    2.0110   15.2370 O.co2  69  ASP69      -0.2456
    128  N         34.1150    5.5050   16.8030 N.am   70  LEU70      -0.1977
    129  CA        32.6720    5.6640   16.6910 C.3    70  LEU70       0.1596
    130  C         31.9930    5.4190   18.0480 C.2    70  LEU70       0.2287
    131  O         32.3530    6.0680   19.0220 O.2    70  LEU70      -0.2864
    132  CB        32.0990    4.7570   15.6030 C.3    70  LEU70       0.0297
    133  CG        32.5660    5.0100   14.1630 C.3    70  LEU70       0.0022
    134  CD1       31.8120    4.0910   13.2030 C.3    70  LEU70       0.0001
    135  CD2       32.3820    6.4590   13.7460 C.3    70  LEU70       0.0001
    136  N         27.6700   14.6360   14.3330 N.3    84  PHE84      -0.1227
    137  CA        28.8420   14.0430   13.6910 C.3    84  PHE84       0.1736
    138  C         29.2150   14.7520   12.3950 C.2    84  PHE84       0.2595
    139  O         28.5150   14.6360   11.3980 O.2    84  PHE84      -0.2718
    140  CB        28.5630   12.5670   13.3940 C.3    84  PHE84       0.0547
    141  CG        29.7800   11.7690   13.0120 C.ar   84  PHE84      -0.0202
    142  CD1       31.0540   12.2210   13.3090 C.ar   84  PHE84      -0.0042
    143  CD2       29.6400   10.5320   12.3880 C.ar   84  PHE84      -0.0042
    144  CE1       32.1650   11.4660   12.9750 C.ar   84  PHE84      -0.0003
    145  CE2       30.7480    9.7690   12.0610 C.ar   84  PHE84      -0.0003
    146  CZ        32.0050   10.2310   12.3470 C.ar   84  PHE84      -0.0000
    147  N         30.3190   15.4900   12.4130 N.am   85  ASN85      -0.1961
    148  CA        30.9660   15.8870   11.1710 C.3    85  ASN85       0.1804
    149  C         32.0190   14.8230   10.8930 C.2    85  ASN85       0.2463
    150  O         33.0590   14.8020   11.5340 O.2    85  ASN85      -0.2730
    151  CB        31.5800   17.2790   11.2930 C.3    85  ASN85       0.1195
    152  CG        32.1870   17.7740    9.9830 C.2    85  ASN85       0.2630
    153  OD1       32.0770   17.1200    8.9480 O.2    85  ASN85      -0.2716
    154  ND2       32.8370   18.9240   10.0310 N.am   85  ASN85      -0.0877
    155  N         31.7290   13.8980    9.9600 N.am   86  PRO86      -0.2716
    156  CA        32.5540   12.6950    9.8070 C.3    86  PRO86       0.1521
    157  C         33.7230   12.8870    8.8420 C.2    86  PRO86       0.2440
    158  O         33.7330   13.8770    8.1050 O.2    86  PRO86      -0.2731
    159  CB        31.5630   11.6900    9.2210 C.3    86  PRO86       0.0310
    160  CG        30.6660   12.5370    8.3580 C.3    86  PRO86       0.0237
    161  CD        30.6050   13.9160    9.0070 C.3    86  PRO86       0.0939
    162  N         34.7040   11.9640    8.8560 N.am   87  PRO87      -0.2716
    163  CA        35.7360   11.9460    7.8040 C.3    87  PRO87       0.1536
    164  C         35.0330   11.6050    6.5040 C.2    87  PRO87       0.2598
    165  O         34.5430   10.4940    6.3710 O.2    87  PRO87      -0.2715
    166  CB        36.6260   10.7560    8.1700 C.3    87  PRO87       0.0310
    167  CG        36.1000   10.2020    9.4500 C.3    87  PRO87       0.0237
    168  CD        34.7890   10.8100    9.7690 C.3    87  PRO87       0.0939
    169  N         34.9700   12.5340    5.5660 N.am   88  TYR88      -0.1974
    170  CA        34.1050   12.3520    4.4220 C.3    88  TYR88       0.1639
    171  C         34.8480   12.4280    3.0780 C.2    88  TYR88       0.2290
    172  O         34.2240   12.3980    2.0220 O.2    88  TYR88      -0.2864
    173  CB        32.9650   13.3790    4.4740 C.3    88  TYR88       0.0560
    174  CG        33.4120   14.8340    4.4830 C.ar   88  TYR88      -0.0198
    175  CD1       34.1140   15.3710    3.4090 C.ar   88  TYR88      -0.0009
    176  CD2       33.0950   15.6800    5.5500 C.ar   88  TYR88      -0.0009
    177  CE1       34.5140   16.6980    3.4010 C.ar   88  TYR88       0.0417
    178  CE2       33.4890   17.0140    5.5580 C.ar   88  TYR88       0.0417
    179  CZ        34.2020   17.5140    4.4790 C.ar   88  TYR88       0.1957
    180  OH        34.6000   18.8280    4.4660 O.3    88  TYR88      -0.2866
    181  N         43.4640    8.8980    8.5420 N.3    95  PRO95      -0.2102
    182  CA        42.6900    8.5840    9.7460 C.3    95  PRO95       0.1504
    183  C         41.8270    9.7530   10.2100 C.2    95  PRO95       0.2576
    184  O         40.8730    9.5400   10.9470 O.2    95  PRO95      -0.2718
    185  CB        43.7750    8.2720   10.7880 C.3    95  PRO95       0.0282
    186  CG        44.9640    7.8980    9.9850 C.3    95  PRO95       0.0208
    187  CD        44.9110    8.7860    8.7770 C.3    95  PRO95       0.0893
    188  N         42.1560   10.9670    9.7810 N.am   96  ILE96      -0.1966
    189  CA        41.4030   12.1460   10.1990 C.3    96  ILE96       0.1727
    190  C         40.2810   12.5200    9.2290 C.2    96  ILE96       0.2616
    191  O         39.1600   12.7760    9.6510 O.2    96  ILE96      -0.2715
    192  CB        42.3370   13.3650   10.4360 C.3    96  ILE96       0.0290
    193  CG1       43.3530   13.0490   11.5280 C.3    96  ILE96       0.0022
    194  CG2       41.5460   14.6110   10.8410 C.3    96  ILE96       0.0023
    195  CD1       44.4870   14.0570   11.5740 C.3    96  ILE96       0.0001
    196  N         40.5770   12.5450    7.9330 N.am   97  ILE97      -0.1977
    197  CA        39.6130   13.0500    6.9570 C.3    97  ILE97       0.1596
    198  C         39.1330   11.9870    5.9930 C.2    97  ILE97       0.2287
    199  O         38.1800   12.2150    5.2600 O.2    97  ILE97      -0.2864
    200  CB        40.2190   14.1710    6.0810 C.3    97  ILE97       0.0276
    201  CG1       41.4500   13.6450    5.3290 C.3    97  ILE97       0.0022
    202  CG2       40.5560   15.3910    6.9240 C.3    97  ILE97       0.0022
    203  CD1       42.1380   14.7030    4.4740 C.3    97  ILE97       0.0001
    204  N         33.3570    5.5400    6.6950 N.3   106  VAL106     -0.1245
    205  CA        33.0920    5.8010    8.1120 C.3   106  VAL106      0.1561
    206  C         31.6200    6.1520    8.2980 C.2   106  VAL106      0.2260
    207  O         30.9680    5.6820    9.2330 O.2   106  VAL106     -0.2867
    208  CB        34.0120    6.9040    8.7050 C.3   106  VAL106      0.0252
    209  CG1       33.7780    7.0400   10.2170 C.3   106  VAL106      0.0019
    210  CG2       35.4660    6.5730    8.4510 C.3   106  VAL106      0.0019
    211  N         29.6770    3.0080    8.3330 N.3   109  ARG109     -0.1245
    212  CA        29.8660    2.3160    9.6020 C.3   109  ARG109      0.1563
    213  C         29.0440    2.9620   10.7090 C.2   109  ARG109      0.2260
    214  O         28.4470    2.2730   11.5470 O.2   109  ARG109     -0.2867
    215  CB        31.3470    2.2700    9.9900 C.3   109  ARG109      0.0307
    216  CG        32.1030    1.1680    9.2860 C.3   109  ARG109      0.0489
    217  CD        33.5910    1.1570    9.6030 C.3   109  ARG109      0.2205
    218  NE        33.8830    1.1720   11.0360 N.pl3 109  ARG109     -0.0865
    219  CZ        34.7280    2.0290   11.6060 C.cat 109  ARG109      0.5346
    220  NH1       35.3700    2.9180   10.8550 N.pl3 109  ARG109      0.1354
    221  NH2       34.9570    1.9860   12.9130 N.pl3 109  ARG109      0.1354
@<TRIPOS>BOND
     1   172   171    2
     2   171   170    1
     3   177   175   ar
     4   177   179   ar
     5   175   174   ar
     6   170   173    1
     7   170   169    1
     8   180   179    1
     9   173   174    1
    10   203   201    1
    11   179   178   ar
    12   174   176   ar
    13   199   198    2
    14   201   200    1
    15   176   178   ar
    16   169   164   am
    17   198   197    1
    18   200   202    1
    19   200   197    1
    20   165   164    2
    21   164   163    1
    22   204   205    1
    23   197   196    1
    24    12    11    1
    25   163   166    1
    26   163   162    1
    27   196   190   am
    28     9    11   ar
    29     9     7   ar
    30   158   157    2
    31   205   206    1
    32   205   208    1
    33   166   167    1
    34    11    10   ar
    35   206   207    2
    36   211   212    1
    37   160   161    1
    38   160   159    1
    39   210   208    1
    40   181   187    1
    41   181   182    1
    42   208   209    1
    43   187   186    1
    44   157   162   am
    45   157   156    1
    46   162   168    1
    47   153   152    2
    48   161   155    1
    49     7     6   ar
    50   159   156    1
    51   190   191    2
    52   190   189    1
    53    29    30    1
    54   216   217    1
    55   216   215    1
    56   167   168    1
    57    10     8   ar
    58   212   215    1
    59   212   213    1
    60   217   218    1
    61   182   183    1
    62   182   185    1
    63   188   189    1
    64   188   183   am
    65   156   155    1
    66   155   149   am
    67   152   154   am
    68   152   151    1
    69   186   185    1
    70   189   192    1
    71   183   184    2
    72     6     8   ar
    73     6     5    1
    74   192   194    1
    75   192   193    1
    76    25    24    2
    77    30    31    1
    78    30    33    1
    79   213   214    2
    80    16    15    2
    81    24    23    1
    82   220   219    1
    83   149   148    1
    84   149   150    2
    85    35    33    1
    86    31    32    2
    87    20    19   ar
    88   218   219    2
    89   148   151    1
    90   148   147    1
    91   139   138    2
    92   193   195    1
    93     5     2    1
    94   219   221    1
    95    33    34    1
    96    19    21   ar
    97    19    18    1
    98    13    14    1
    99    13     3   am
   100    15    14    1
   101    15    22   am
   102     2     3    1
   103     2     1    1
   104    17    14    1
   105    17    18    1
   106   145   146   ar
   107   145   143   ar
   108    23    22    1
   109    23    26    1
   110   146   144   ar
   111   143   141   ar
   112   138   147   am
   113   138   137    1
   114     3     4    2
   115    22    28    1
   116   144   142   ar
   117   141   142   ar
   118   141   140    1
   119   134   133    1
   120    26    27    1
   121   140   137    1
   122   137   136    1
   123   135   133    1
   124    28    27    1
   125   133   132    1
   126   106   104    1
   127    83    81    1
   128   126   125   ar
   129   127   125   ar
   130   114   112   am
   131    68    67    1
   132   132   129    1
   133    55    54    2
   134   125   124    1
   135   104   103    1
   136   104   105    1
   137    51    49    1
   138    47    46    2
   139    81    80    1
   140    67    64    1
   141    74    73    1
   142   103   100    1
   143    53    54    1
   144    53    52    1
   145   112   111    1
   146   112   113    2
   147   111   108    1
   148    54    56   am
   149    49    48    1
   150    49    50    1
   151    98    96   ar
   152   129   128    1
   153   129   130    1
   154    97    96   ar
   155    46    52   am
   156    46    45    1
   157   128   122   am
   158    75    73    1
   159    48    45    1
   160    73    70    1
   161   124   121    1
   162    96    95    1
   163    64    63    1
   164    64    65    1
   165   108   107    1
   166   108   109    1
   167   107   101   am
   168    80    82    1
   169    80    77    1
   170   122   121    1
   171   122   123    2
   172   100   101    1
   173   100    99    1
   174    63    58   am
   175   121   120    1
   176   101   102    2
   177    99    93   am
   178    45    44    1
   179    56    57    1
   180    58    59    2
   181    58    57    1
   182   130   131    2
   183    42    41   ar
   184    76    77    1
   185    76    71   am
   186    44    38   am
   187    57    60    1
   188    77    78    1
   189    65    66    2
   190    70    71    1
   191    70    69    1
   192    71    72    2
   193    95    92    1
   194   109   110    2
   195   118   117    2
   196    93    92    1
   197    93    94    2
   198    92    91    1
   199   120   117   am
   200    87    86    2
   201    41    43   ar
   202    41    40    1
   203    38    37    1
   204    38    39    2
   205   117   116    1
   206    78    79    2
   207    37    40    1
   208    37    36    1
   209    60    61    1
   210    60    62    1
   211    91    86   am
   212    89    88    1
   213    86    85    1
   214   116   115    1
   215   116   119    1
   216    88    85    1
   217    88    90    1
   218    85    84    1
