@<TRIPOS>MOLECULE
tmp/3q88A00.pdb
 120 110 0 0 0
SMALL
GASTEIGER

@<TRIPOS>ATOM
      1  N         39.1320   52.4360   14.5370 N.3   147  ILE147     -0.1231
      2  CA        38.9430   53.7460   13.8790 C.3   147  ILE147      0.1692
      3  C         40.2890   54.3160   13.4880 C.2   147  ILE147      0.2593
      4  O         41.3240   53.9250   14.0470 O.2   147  ILE147     -0.2718
      5  CB        38.1360   54.6840   14.7970 C.3   147  ILE147      0.0266
      6  CG1       37.5290   55.9000   14.1060 C.3   147  ILE147      0.0019
      7  CG2       38.9660   55.0510   16.0290 C.3   147  ILE147      0.0020
      8  CD1       36.4010   56.5560   14.9760 C.3   147  ILE147      0.0001
      9  N         40.2410   55.2270   12.5270 N.am  148  GLY148     -0.1942
     10  CA        41.4280   55.8670   11.9910 C.3   148  GLY148      0.2014
     11  C         42.3490   54.8700   11.3510 C.2   148  GLY148      0.2639
     12  O         41.9290   54.1070   10.5200 O.2   148  GLY148     -0.2714
     13  N         43.5950   54.8310   11.7930 N.am  149  GLY149     -0.1939
     14  CA        44.5520   53.8950   11.2470 C.3   149  GLY149      0.2014
     15  C         44.2260   52.4150   11.4530 C.2   149  GLY149      0.2639
     16  O         44.7450   51.5390   10.7880 O.2   149  GLY149     -0.2714
     17  N         43.3690   52.1210   12.4090 N.am  150  SER150     -0.1949
     18  CA        42.8870   50.7700   12.6630 C.3   150  SER150      0.1924
     19  C         41.6320   50.4240   11.8570 C.2   150  SER150      0.2314
     20  O         41.0670   49.3520   12.0600 O.2   150  SER150     -0.2863
     21  CB        42.6200   50.6140   14.1520 C.3   150  SER150      0.2116
     22  OG        43.8890   50.7340   14.9220 O.3   150  SER150     -0.2180
     23  N         40.6560   46.0430   16.7270 N.3   199  ALA199     -0.1231
     24  CA        41.9180   46.5660   16.2110 C.3   199  ALA199      0.1694
     25  C         42.2070   47.8480   16.9840 C.2   199  ALA199      0.2593
     26  O         41.6120   48.8930   16.6990 O.2   199  ALA199     -0.2718
     27  CB        41.7850   46.8140   14.7110 C.3   199  ALA199      0.0304
     28  N         43.0910   47.7700   17.9670 N.am  200  SER200     -0.1938
     29  CA        43.3670   48.9680   18.7860 C.3   200  SER200      0.2055
     30  C         44.7480   48.8940   19.4510 C.2   200  SER200      0.2643
     31  O         44.8920   48.1760   20.4310 O.2   200  SER200     -0.2714
     32  CB        42.3050   49.1210   19.8610 C.3   200  SER200      0.2130
     33  OG        42.4640   50.3480   20.5990 O.3   200  SER200     -0.2179
     34  N         45.6640   49.6670   18.9010 N.am  201  LYS201     -0.1963
     35  CA        47.0690   49.7890   19.4460 C.3   201  LYS201      0.1728
     36  C         46.9880   50.0500   20.9200 C.2   201  LYS201      0.2616
     37  O         47.5360   49.3110   21.7590 O.2   201  LYS201     -0.2715
     38  CB        47.8280   50.8640   18.6730 C.3   201  LYS201      0.0311
     39  CG        49.3450   51.0660   19.0820 C.3   201  LYS201      0.0038
     40  CD        50.0660   52.0100   18.1220 C.3   201  LYS201      0.0206
     41  CE        51.5820   52.2330   18.4510 C.3   201  LYS201      0.1093
     42  NZ        52.2400   53.4200   17.7180 N.3   201  LYS201     -0.1314
     43  N         46.2280   51.0700   21.2810 N.am  202  SER202     -0.1950
     44  CA        46.1000   51.4780   22.7230 C.3   202  SER202      0.1924
     45  C         45.1320   50.6880   23.6110 C.2   202  SER202      0.2314
     46  O         45.2590   50.6200   24.8450 O.2   202  SER202     -0.2863
     47  CB        45.7460   52.9640   22.7510 C.3   202  SER202      0.2116
     48  OG        44.4110   53.1630   22.2670 O.3   202  SER202     -0.2180
     49  N         40.7710   53.6970   23.0040 N.3   205  THR205     -0.1218
     50  CA        40.1850   54.7130   22.1340 C.3   205  THR205      0.1862
     51  C         38.6810   54.7310   22.4190 C.2   205  THR205      0.2287
     52  O         38.0400   53.6860   22.3510 O.2   205  THR205     -0.2866
     53  CB        40.4700   54.3570   20.6630 C.3   205  THR205      0.1770
     54  OG1       41.8820   54.4190   20.4560 O.3   205  THR205     -0.2211
     55  CG2       39.7470   55.3800   19.7000 C.3   205  THR205      0.0375
     56  N         36.2330   52.8770   19.8740 N.3   208  THR208     -0.1218
     57  CA        36.4770   51.4600   19.7900 C.3   208  THR208      0.1862
     58  C         36.0790   50.7620   21.0530 C.2   208  THR208      0.2287
     59  O         35.5280   49.6630   21.0280 O.2   208  THR208     -0.2866
     60  CB        37.9100   51.1970   19.3790 C.3   208  THR208      0.1770
     61  OG1       38.1570   51.8800   18.1450 O.3   208  THR208     -0.2211
     62  CG2       38.1900   49.6730   19.2110 C.3   208  THR208      0.0375
     63  N         49.8110   54.3580   13.8580 N.3   262  GLY262     -0.1210
     64  CA        48.5060   53.9600   13.3580 C.3   262  GLY262      0.1956
     65  C         48.2470   54.2100   11.9130 C.2   262  GLY262      0.2611
     66  O         47.7540   53.3400   11.1670 O.2   262  GLY262     -0.2717
     67  N         48.6070   55.3970   11.4340 N.am  263  ARG263     -0.1979
     68  CA        48.4200   55.7080   10.0370 C.3   263  ARG263      0.1597
     69  C         49.4510   55.0530    9.0640 C.2   263  ARG263      0.2287
     70  O         49.4070   55.3150    7.8400 O.2   263  ARG263     -0.2864
     71  CB        48.3930   57.2540    9.8760 C.3   263  ARG263      0.0334
     72  CG        49.6820   57.9540   10.2980 C.3   263  ARG263      0.0492
     73  CD        49.5200   59.4870   10.2560 C.3   263  ARG263      0.2205
     74  NE        50.6670   60.2050   10.8480 N.pl3 263  ARG263     -0.0865
     75  CZ        50.8190   60.5110   12.1320 C.cat 263  ARG263      0.5346
     76  NH1       51.9080   61.1210   12.5230 N.pl3 263  ARG263      0.1354
     77  NH2       49.8430   60.2180   13.0110 N.pl3 263  ARG263      0.1354
     78  N         44.6080   60.8930    5.7690 N.3   344  GLN344     -0.1245
     79  CA        45.1150   60.5350    7.0640 C.3   344  GLN344      0.1566
     80  C         46.6490   60.4840    7.0690 C.2   344  GLN344      0.2260
     81  O         47.3240   61.1890    7.8440 O.2   344  GLN344     -0.2867
     82  CB        44.5430   59.1940    7.5830 C.3   344  GLN344      0.0367
     83  CG        45.2000   58.9820    8.8960 C.3   344  GLN344      0.0905
     84  CD        44.6630   57.9170    9.7480 C.2   344  GLN344      0.2608
     85  OE1       43.7970   57.1470    9.2730 O.2   344  GLN344     -0.2717
     86  NE2       45.1470   57.8920   11.0960 N.am  344  GLN344     -0.0878
     87  N         47.6740   64.1380    8.9010 N.3   348  GLU348     -0.1245
     88  CA        47.9810   63.9130   10.3020 C.3   348  GLU348      0.1567
     89  C         49.5180   63.8920   10.5350 C.2   348  GLU348      0.2260
     90  O         49.9760   64.2190   11.6270 O.2   348  GLU348     -0.2867
     91  CB        47.3840   62.6060   10.7930 C.3   348  GLU348      0.0388
     92  CG        47.3800   62.5210   12.2750 C.3   348  GLU348      0.1160
     93  CD        46.5400   61.3750   12.8120 C.2   348  GLU348      0.3649
     94  OE1       46.9410   60.2220   12.6290 O.co2 348  GLU348     -0.2457
     95  OE2       45.4920   61.6610   13.4260 O.co2 348  GLU348     -0.2457
     96  N         51.4170   63.1510   16.8900 N.3   500  GLN500     -0.1245
     97  CA        50.0910   63.7210   16.6330 C.3   500  GLN500      0.1566
     98  C         49.5150   64.2910   17.8940 C.2   500  GLN500      0.2260
     99  O         48.4580   63.8740   18.3780 O.2   500  GLN500     -0.2867
    100  CB        49.1340   62.6710   16.0350 C.3   500  GLN500      0.0367
    101  CG        49.0060   61.3750   16.8360 C.3   500  GLN500      0.0905
    102  CD        50.1980   60.4380   16.7260 C.2   500  GLN500      0.2608
    103  OE1       50.8010   60.2790   15.6430 O.2   500  GLN500     -0.2717
    104  NE2       50.5400   59.7750   17.8560 N.am  500  GLN500     -0.0878
    105  N         45.5790   66.1770   18.5840 N.3   503  VAL503     -0.1245
    106  CA        44.2880   65.5100   18.8140 C.3   503  VAL503      0.1561
    107  C         43.9790   65.3510   20.2800 C.2   503  VAL503      0.2260
    108  O         42.8660   65.0040   20.6340 O.2   503  VAL503     -0.2867
    109  CB        44.2270   64.1530   18.0900 C.3   503  VAL503      0.0252
    110  CG1       44.5210   64.3870   16.5240 C.3   503  VAL503      0.0019
    111  CG2       45.1810   63.1150   18.7120 C.3   503  VAL503      0.0019
    112  N         40.0400   65.1840   22.7890 N.3   507  LYS507     -0.1245
    113  CA        39.6740   63.9790   23.5660 C.3   507  LYS507      0.1561
    114  C         39.3510   64.3270   25.0380 C.2   507  LYS507      0.2260
    115  O         38.3490   63.8450   25.5650 O.2   507  LYS507     -0.2867
    116  CB        40.7660   62.9020   23.4880 C.3   507  LYS507      0.0271
    117  CG        40.9780   62.3250   22.1040 C.3   507  LYS507      0.0035
    118  CD        42.1900   61.3530   22.0320 C.3   507  LYS507      0.0206
    119  CE        42.4060   60.8620   20.6160 C.3   507  LYS507      0.1093
    120  NZ        43.6050   59.9560   20.5380 N.3   507  LYS507     -0.1314
@<TRIPOS>BOND
     1    78    79    1
     2    79    80    1
     3    79    82    1
     4    80    81    2
     5    82    83    1
     6    70    69    2
     7    83    84    1
     8    87    88    1
     9    69    68    1
    10    85    84    2
    11    84    86   am
    12    71    68    1
    13    71    72    1
    14    68    67    1
    15    73    72    1
    16    73    74    1
    17    88    89    1
    18    88    91    1
    19    12    11    2
    20    89    90    2
    21    16    15    2
    22    91    92    1
    23    74    75    2
    24    66    65    2
    25    14    15    1
    26    14    13    1
    27    11    13   am
    28    11    10    1
    29    67    65   am
    30    15    17   am
    31    19    20    2
    32    19    18    1
    33    65    64    1
    34    10     9    1
    35    75    76    1
    36    75    77    1
    37    92    93    1
    38    17    18    1
    39     9     3   am
    40    94    93   ar
    41    18    21    1
    42    93    95   ar
    43    64    63    1
    44     3     2    1
    45     3     4    2
    46     2     1    1
    47     2     5    1
    48     6     5    1
    49     6     8    1
    50    21    22    1
    51    27    24    1
    52     5     7    1
    53   103   102    2
    54   100    97    1
    55   100   101    1
    56    24    23    1
    57    24    25    1
    58   110   109    1
    59    97    96    1
    60    97    98    1
    61    26    25    2
    62   102   101    1
    63   102   104   am
    64    25    28   am
    65    42    41    1
    66    98    99    2
    67    28    29    1
    68   109   111    1
    69   109   106    1
    70    40    41    1
    71    40    39    1
    72    61    60    1
    73   105   106    1
    74    38    39    1
    75    38    35    1
    76    29    30    1
    77    29    32    1
    78   106   107    1
    79    34    35    1
    80    34    30   am
    81    62    60    1
    82    60    57    1
    83    35    36    1
    84    30    31    2
    85    55    53    1
    86    57    56    1
    87    57    58    1
    88    32    33    1
    89   107   108    2
    90    54    53    1
    91   120   119    1
    92   119   118    1
    93    53    50    1
    94    36    43   am
    95    36    37    2
    96    59    58    2
    97    43    44    1
    98   118   117    1
    99   117   116    1
   100    50    51    1
   101    50    49    1
   102    48    47    1
   103    52    51    2
   104    44    47    1
   105    44    45    1
   106   112   113    1
   107   116   113    1
   108   113   114    1
   109    45    46    2
   110   114   115    2
