@<TRIPOS>MOLECULE
tmp/3q89B00.pdb
 118 111 0 0 0
SMALL
GASTEIGER

@<TRIPOS>ATOM
      1  N         43.1430  -32.5250    6.3540 N.3     9  LYS9       -0.1245
      2  CA        44.4190  -33.1150    6.6950 C.3     9  LYS9        0.1561
      3  C         44.3680  -33.9100    8.0090 C.2     9  LYS9        0.2260
      4  O         43.4220  -33.7870    8.7890 O.2     9  LYS9       -0.2867
      5  CB        45.5020  -32.0350    6.7450 C.3     9  LYS9        0.0271
      6  CG        45.8000  -31.3620    5.4280 C.3     9  LYS9        0.0035
      7  CD        46.9720  -30.4480    5.6040 C.3     9  LYS9        0.0206
      8  CE        47.1420  -29.4890    4.4520 C.3     9  LYS9        0.1093
      9  NZ        48.4490  -28.7780    4.5590 N.3     9  LYS9       -0.1314
     10  N         52.3380  -34.0600   -3.6280 N.3    49  TYR49      -0.1241
     11  CA        53.2110  -32.9310   -3.3310 C.3    49  TYR49       0.1605
     12  C         54.5470  -32.9880   -4.1030 C.2    49  TYR49       0.2264
     13  O         55.5900  -32.5200   -3.6170 O.2    49  TYR49      -0.2867
     14  CB        53.4810  -32.8660   -1.8340 C.3    49  TYR49       0.0534
     15  CG        52.3380  -32.3730   -0.9810 C.ar   49  TYR49      -0.0201
     16  CD1       51.7220  -31.1410   -1.2320 C.ar   49  TYR49      -0.0009
     17  CD2       51.8950  -33.1260    0.1110 C.ar   49  TYR49      -0.0009
     18  CE1       50.6770  -30.6820   -0.4290 C.ar   49  TYR49       0.0417
     19  CE2       50.8520  -32.6800    0.9240 C.ar   49  TYR49       0.0417
     20  CZ        50.2460  -31.4520    0.6550 C.ar   49  TYR49       0.1957
     21  OH        49.2200  -31.0110    1.4750 O.3    49  TYR49      -0.2866
     22  N         55.7240  -31.2010   -6.2330 N.3    51  GLU51      -0.1231
     23  CA        56.3070  -29.8510   -6.3590 C.3    51  GLU51       0.1699
     24  C         57.2330  -29.3850   -5.2270 C.2    51  GLU51       0.2592
     25  O         57.9550  -28.4240   -5.3960 O.2    51  GLU51      -0.2718
     26  CB        55.2110  -28.7940   -6.6010 C.3    51  GLU51       0.0402
     27  CG        54.4190  -28.3830   -5.3460 C.3    51  GLU51       0.1161
     28  CD        53.3230  -27.3470   -5.6000 C.2    51  GLU51       0.3649
     29  OE1       53.6030  -26.3240   -6.2470 O.co2  51  GLU51      -0.2457
     30  OE2       52.1800  -27.5510   -5.1310 O.co2  51  GLU51      -0.2457
     31  N         57.2230  -30.0470   -4.0820 N.am   52  HIS52      -0.1976
     32  CA        58.0610  -29.5880   -2.9850 C.3    52  HIS52       0.1656
     33  C         59.2390  -30.5190   -2.7130 C.2    52  HIS52       0.2291
     34  O         60.0070  -30.2890   -1.7800 O.2    52  HIS52      -0.2864
     35  CB        57.2370  -29.3890   -1.7110 C.3    52  HIS52       0.0771
     36  CG        56.0320  -28.5230   -1.8960 C.ar   52  HIS52       0.0820
     37  ND1       56.1160  -27.1870   -2.2210 N.ar   52  HIS52      -0.2267
     38  CD2       54.7110  -28.8050   -1.7960 C.ar   52  HIS52       0.1154
     39  CE1       54.9000  -26.6840   -2.3160 C.ar   52  HIS52       0.1986
     40  NE2       54.0290  -27.6460   -2.0680 N.ar   52  HIS52      -0.2212
     41  N         60.7950  -28.5030    3.9710 N.3    57  PHE57      -0.1241
     42  CA        59.6530  -29.0640    4.6960 C.3    57  PHE57       0.1605
     43  C         59.0540  -30.3530    4.0840 C.2    57  PHE57       0.2264
     44  O         58.0090  -30.8210    4.5670 O.2    57  PHE57      -0.2867
     45  CB        58.5740  -27.9810    4.9220 C.3    57  PHE57       0.0534
     46  CG        58.0150  -27.3920    3.6500 C.ar   57  PHE57      -0.0203
     47  CD1       56.8040  -27.8390    3.1310 C.ar   57  PHE57      -0.0042
     48  CD2       58.6980  -26.3890    2.9600 C.ar   57  PHE57      -0.0042
     49  CE1       56.2950  -27.3010    1.9340 C.ar   57  PHE57      -0.0003
     50  CE2       58.1850  -25.8410    1.7650 C.ar   57  PHE57      -0.0003
     51  CZ        56.9950  -26.2980    1.2580 C.ar   57  PHE57      -0.0000
     52  N         56.5120  -32.8450    5.7800 N.3    61  LEU61      -0.1245
     53  CA        55.1970  -32.7590    5.1300 C.3    61  LEU61       0.1561
     54  C         54.6370  -34.1670    4.8300 C.2    61  LEU61       0.2260
     55  O         53.5930  -34.5580    5.3590 O.2    61  LEU61      -0.2867
     56  CB        55.2580  -31.9500    3.8300 C.3    61  LEU61       0.0270
     57  CG        54.0270  -31.1340    3.3960 C.3    61  LEU61       0.0019
     58  CD1       54.0320  -30.8620    1.8890 C.3    61  LEU61       0.0001
     59  CD2       52.7010  -31.7500    3.7990 C.3    61  LEU61       0.0001
     60  N         48.2460  -19.7180    3.8370 N.3    91  THR91      -0.1218
     61  CA        48.9890  -20.8830    4.2950 C.3    91  THR91       0.1862
     62  C         49.3000  -20.8230    5.7780 C.2    91  THR91       0.2287
     63  O         49.0000  -21.7700    6.4910 O.2    91  THR91      -0.2866
     64  CB        50.2990  -21.0400    3.5170 C.3    91  THR91       0.1770
     65  OG1       50.0060  -21.1780    2.1270 O.3    91  THR91      -0.2211
     66  CG2       51.0570  -22.2650    3.9730 C.3    91  THR91       0.0375
     67  N         41.6100  -21.9830    8.2350 N.3   102  ARG102     -0.1245
     68  CA        42.9260  -21.9180    8.8440 C.3   102  ARG102      0.1563
     69  C         43.0110  -20.8370    9.9150 C.2   102  ARG102      0.2260
     70  O         43.5600  -21.0860   10.9790 O.2   102  ARG102     -0.2867
     71  CB        44.0140  -21.7210    7.7930 C.3   102  ARG102      0.0307
     72  CG        43.9700  -22.7370    6.6720 C.3   102  ARG102      0.0489
     73  CD        45.3440  -23.0510    6.1730 C.3   102  ARG102      0.2205
     74  NE        45.5080  -22.8460    4.7330 N.pl3 102  ARG102     -0.0865
     75  CZ        45.8920  -23.7820    3.8700 C.cat 102  ARG102      0.5346
     76  NH1       46.0180  -23.4920    2.5930 N.pl3 102  ARG102      0.1354
     77  NH2       46.1370  -25.0050    4.2730 N.pl3 102  ARG102      0.1354
     78  N         51.9920  -23.3070   10.3150 N.3   109  VAL109     -0.1231
     79  CA        51.9770  -23.5100    8.8640 C.3   109  VAL109      0.1692
     80  C         52.0350  -25.0040    8.4580 C.2   109  VAL109      0.2592
     81  O         51.4280  -25.4040    7.4590 O.2   109  VAL109     -0.2718
     82  CB        53.0740  -22.6100    8.1590 C.3   109  VAL109      0.0266
     83  CG1       54.2910  -22.4270    9.0440 C.3   109  VAL109      0.0020
     84  CG2       53.4500  -23.1210    6.7710 C.3   109  VAL109      0.0020
     85  N         52.7420  -25.8110    9.2480 N.am  110  GLY110     -0.1957
     86  CA        52.9170  -27.2240    8.9470 C.3   110  GLY110      0.1869
     87  C         51.6850  -28.0470    9.2660 C.2   110  GLY110      0.2309
     88  O         51.4310  -29.0860    8.6330 O.2   110  GLY110     -0.2863
     89  N         48.0790  -27.1880    9.2280 N.3   112  ASN112     -0.1240
     90  CA        47.0520  -26.1970    8.8960 C.3   112  ASN112      0.1653
     91  C         45.7200  -26.7280    8.3010 C.2   112  ASN112      0.2266
     92  O         45.1790  -26.1660    7.3630 O.2   112  ASN112     -0.2867
     93  CB        47.6530  -25.0720    8.0530 C.3   112  ASN112      0.1155
     94  CG        48.0570  -25.5210    6.6580 C.2   112  ASN112      0.2627
     95  OD1       47.9700  -26.7030    6.3040 O.2   112  ASN112     -0.2716
     96  ND2       48.4890  -24.5650    5.8520 N.am  112  ASN112     -0.0877
     97  N         43.8530  -28.7760    2.8890 N.3   115  HIS115     -0.1226
     98  CA        44.4660  -28.4140    1.6200 C.3   115  HIS115      0.1752
     99  C         43.4180  -28.0780    0.5880 C.2   115  HIS115      0.2596
    100  O         42.3620  -28.6930    0.5410 O.2   115  HIS115     -0.2718
    101  CB        45.3440  -29.5350    1.0890 C.3   115  HIS115      0.0759
    102  CG        45.6820  -29.3930   -0.3570 C.ar  115  HIS115      0.0818
    103  ND1       46.8030  -28.7300   -0.7960 N.ar  115  HIS115     -0.2268
    104  CD2       45.0290  -29.8080   -1.4700 C.ar  115  HIS115      0.1154
    105  CE1       46.8280  -28.7480   -2.1190 C.ar  115  HIS115      0.1986
    106  NE2       45.7630  -29.3980   -2.5510 N.ar  115  HIS115     -0.2212
    107  N         43.7370  -27.1010   -0.2500 N.am  116  GLY116     -0.1957
    108  CA        42.9120  -26.7670   -1.3960 C.3   116  GLY116      0.1869
    109  C         43.7550  -26.6100   -2.6390 C.2   116  GLY116      0.2309
    110  O         44.8750  -26.1350   -2.5590 O.2   116  GLY116     -0.2863
    111  N         45.3620  -25.0540   -5.7610 N.3   118  ASP118     -0.1239
    112  CA        45.7680  -23.6560   -5.8610 C.3   118  ASP118      0.1674
    113  C         45.5380  -23.0080   -7.2280 C.2   118  ASP118      0.2266
    114  O         45.7690  -21.8170   -7.3990 O.2   118  ASP118     -0.2867
    115  CB        47.2030  -23.4290   -5.3330 C.3   118  ASP118      0.1410
    116  CG        48.2910  -23.8370   -6.3180 C.2   118  ASP118      0.3668
    117  OD1       49.4550  -23.4810   -6.0590 O.co2 118  ASP118     -0.2456
    118  OD2       48.0140  -24.5120   -7.3300 O.co2 118  ASP118     -0.2456
@<TRIPOS>BOND
     1   114   113    2
     2   118   116   ar
     3   113   112    1
     4    26    23    1
     5    26    27    1
     6    23    22    1
     7    23    24    1
     8   116   117   ar
     9   116   115    1
    10    29    28   ar
    11   112   111    1
    12   112   115    1
    13    28    27    1
    14    28    30   ar
    15    25    24    2
    16    24    31   am
    17    12    13    2
    18    12    11    1
    19    31    32    1
    20    10    11    1
    21    11    14    1
    22    32    33    1
    23    32    35    1
    24    33    34    2
    25   109   110    2
    26   109   108    1
    27   106   105   ar
    28   106   104   ar
    29    39    37   ar
    30    39    40   ar
    31    37    36   ar
    32   105   103   ar
    33    40    38   ar
    34    36    38   ar
    35    36    35    1
    36    14    15    1
    37   104   102   ar
    38   108   107    1
    39    16    15   ar
    40    16    18   ar
    41    15    17   ar
    42   103   102   ar
    43    18    20   ar
    44   102   101    1
    45   107    99   am
    46    17    19   ar
    47   100    99    2
    48    99    98    1
    49    20    19   ar
    50    20    21    1
    51   101    98    1
    52    51    50   ar
    53    51    49   ar
    54    98    97    1
    55    50    48   ar
    56    58    57    1
    57    49    47   ar
    58    65    64    1
    59    76    75    1
    60    48    46   ar
    61    47    46   ar
    62    57    59    1
    63    57    56    1
    64    64    66    1
    65    64    61    1
    66    46    45    1
    67    56    53    1
    68    60    61    1
    69    75    77    1
    70    75    74    2
    71    41    42    1
    72    43    44    2
    73    43    42    1
    74    61    62    1
    75     8     9    1
    76     8     7    1
    77    42    45    1
    78    74    73    1
    79    54    53    1
    80    54    55    2
    81    53    52    1
    82     6     7    1
    83     6     5    1
    84    62    63    2
    85    96    94   am
    86    73    72    1
    87    95    94    2
    88     1     2    1
    89    94    93    1
    90    72    71    1
    91     2     5    1
    92     2     3    1
    93    84    82    1
    94    92    91    2
    95    81    80    2
    96    71    68    1
    97     3     4    2
    98    93    90    1
    99    82    79    1
   100    82    83    1
   101    67    68    1
   102    91    90    1
   103    80    79    1
   104    80    85   am
   105    88    87    2
   106    68    69    1
   107    79    78    1
   108    90    89    1
   109    86    85    1
   110    86    87    1
   111    69    70    2
