@<TRIPOS>MOLECULE
tmp/3q8dB01.pdb
 152 145 0 0 0
SMALL
GASTEIGER

@<TRIPOS>ATOM
      1  N         35.5590  -25.9190   45.3700 N.3     9  LEU9       -0.1231
      2  CA        34.6230  -24.9050   45.8760 C.3     9  LEU9        0.1693
      3  C         33.6430  -25.4700   46.8960 C.2     9  LEU9        0.2592
      4  O         33.2270  -24.7790   47.8130 O.2     9  LEU9       -0.2718
      5  CB        33.8210  -24.2760   44.7410 C.3     9  LEU9        0.0284
      6  CG        34.6050  -23.4740   43.7050 C.3     9  LEU9        0.0019
      7  CD1       33.6460  -22.7920   42.7760 C.3     9  LEU9        0.0001
      8  CD2       35.5280  -22.4640   44.3920 C.3     9  LEU9        0.0001
      9  N         33.2170  -26.7060   46.6950 N.am   10  HIS10      -0.1976
     10  CA        32.1530  -27.2660   47.5030 C.3    10  HIS10       0.1656
     11  C         32.2310  -28.7650   47.3490 C.2    10  HIS10       0.2291
     12  O         32.6300  -29.2690   46.3040 O.2    10  HIS10      -0.2864
     13  CB        30.7890  -26.7350   47.0390 C.3    10  HIS10       0.0771
     14  CG        29.6360  -27.5950   47.4480 C.ar   10  HIS10       0.0820
     15  ND1       29.3450  -27.8680   48.7680 N.ar   10  HIS10      -0.2267
     16  CD2       28.7930  -28.3590   46.7160 C.ar   10  HIS10       0.1154
     17  CE1       28.2830  -28.6500   48.8300 C.ar   10  HIS10       0.1986
     18  NE2       27.9600  -29.0040   47.6000 N.ar   10  HIS10      -0.2212
     19  N         30.3500  -32.7340   48.7880 N.3    12  ARG12      -0.1245
     20  CA        29.4230  -33.4850   49.5990 C.3    12  ARG12       0.1563
     21  C         29.2140  -34.8740   49.0090 C.2    12  ARG12       0.2260
     22  O         29.8230  -35.2150   48.0040 O.2    12  ARG12      -0.2867
     23  CB        28.1080  -32.7170   49.7650 C.3    12  ARG12       0.0307
     24  CG        27.1760  -32.7350   48.5770 C.3    12  ARG12       0.0489
     25  CD        25.8360  -32.0990   48.9670 C.3    12  ARG12       0.2205
     26  NE        24.8210  -32.2500   47.9280 N.pl3  12  ARG12      -0.0865
     27  CZ        24.5090  -31.3170   47.0280 C.cat  12  ARG12       0.5346
     28  NH1       25.1190  -30.1300   47.0120 N.pl3  12  ARG12       0.1354
     29  NH2       23.5580  -31.5730   46.1430 N.pl3  12  ARG12       0.1354
     30  N         34.8930  -24.0120   35.6770 N.3    30  ARG30      -0.1245
     31  CA        34.2080  -24.7070   36.7580 C.3    30  ARG30       0.1563
     32  C         33.6330  -26.0160   36.2420 C.2    30  ARG30       0.2260
     33  O         33.0330  -26.0500   35.1710 O.2    30  ARG30      -0.2867
     34  CB        33.1090  -23.8150   37.3260 C.3    30  ARG30       0.0307
     35  CG        32.2470  -24.4360   38.4110 C.3    30  ARG30       0.0489
     36  CD        31.1200  -23.4810   38.8010 C.3    30  ARG30       0.2205
     37  NE        30.4200  -24.0270   39.9590 N.pl3  30  ARG30      -0.0865
     38  CZ        29.4150  -23.4310   40.5850 C.cat  30  ARG30       0.5346
     39  NH1       28.9310  -22.2700   40.1430 N.pl3  30  ARG30       0.1354
     40  NH2       28.8940  -24.0090   41.6550 N.pl3  30  ARG30       0.1354
     41  N         31.8130  -29.9590   37.6250 N.3    32  ARG32      -0.1245
     42  CA        31.3540  -30.8040   38.7190 C.3    32  ARG32       0.1563
     43  C         31.7920  -32.2330   38.4690 C.2    32  ARG32       0.2260
     44  O         31.6890  -32.7230   37.3430 O.2    32  ARG32      -0.2867
     45  CB        29.8320  -30.7320   38.8640 C.3    32  ARG32       0.0307
     46  CG        29.2840  -31.6110   39.9720 C.3    32  ARG32       0.0489
     47  CD        27.8440  -31.2470   40.3230 C.3    32  ARG32       0.2205
     48  NE        27.7650  -29.9980   41.0590 N.pl3  32  ARG32      -0.0865
     49  CZ        26.7370  -29.6510   41.8260 C.cat  32  ARG32       0.5346
     50  NH1       25.6820  -30.4460   41.9270 N.pl3  32  ARG32       0.1354
     51  NH2       26.7190  -28.4670   42.4110 N.pl3  32  ARG32       0.1354
     52  N         35.3710  -19.0970   52.9500 N.3    89  LEU89      -0.1245
     53  CA        34.1600  -19.8450   52.6850 C.3    89  LEU89       0.1561
     54  C         33.1070  -18.9780   52.0130 C.2    89  LEU89       0.2260
     55  O         32.4380  -19.4240   51.1000 O.2    89  LEU89      -0.2867
     56  CB        33.6150  -20.4600   53.9660 C.3    89  LEU89       0.0270
     57  CG        34.5300  -21.5580   54.5040 C.3    89  LEU89       0.0019
     58  CD1       34.0130  -22.0510   55.8350 C.3    89  LEU89       0.0001
     59  CD2       34.6210  -22.7030   53.5150 C.3    89  LEU89       0.0001
     60  N         34.1020  -18.7960   48.4060 N.3    92  ASN92      -0.1225
     61  CA        33.5980  -20.0250   47.8170 C.3    92  ASN92       0.1785
     62  C         32.1050  -20.0150   47.4840 C.2    92  ASN92       0.2597
     63  O         31.6980  -20.4740   46.4120 O.2    92  ASN92      -0.2718
     64  CB        33.9560  -21.2270   48.6840 C.3    92  ASN92       0.1169
     65  CG        35.4270  -21.5810   48.5850 C.2    92  ASN92       0.2627
     66  OD1       36.1810  -20.9160   47.8700 O.2    92  ASN92      -0.2716
     67  ND2       35.8280  -22.6710   49.2410 N.am   92  ASN92      -0.0877
     68  N         31.2910  -19.5100   48.4030 N.am   93  GLU93      -0.1979
     69  CA        29.8440  -19.4930   48.1990 C.3    93  GLU93       0.1602
     70  C         29.5260  -18.5210   47.0770 C.2    93  GLU93       0.2287
     71  O         28.6630  -18.7670   46.2430 O.2    93  GLU93      -0.2864
     72  CB        29.1070  -19.0360   49.4610 C.3    93  GLU93       0.0415
     73  CG        27.6050  -18.9320   49.2390 C.3    93  GLU93       0.1163
     74  CD        26.8350  -18.5770   50.4940 C.2    93  GLU93       0.3649
     75  OE1       27.4460  -18.0440   51.4520 O.co2  93  GLU93      -0.2457
     76  OE2       25.6000  -18.7670   50.4850 O.co2  93  GLU93      -0.2457
     77  N         30.2270  -19.9070   43.7660 N.3    96  SER96      -0.1202
     78  CA        29.3320  -21.0130   43.4930 C.3    96  SER96       0.2020
     79  C         27.9960  -20.4750   42.9830 C.2    96  SER96       0.2619
     80  O         27.3970  -21.0200   42.0550 O.2    96  SER96      -0.2717
     81  CB        29.1290  -21.8300   44.7680 C.3    96  SER96       0.2103
     82  OG        30.3330  -22.4980   45.1390 O.3    96  SER96      -0.2182
     83  N         27.6120  -19.3160   43.4860 N.am   97  ARG97      -0.1965
     84  CA        26.3200  -18.7640   43.1370 C.3    97  ARG97       0.1729
     85  C         26.3360  -18.1970   41.7150 C.2    97  ARG97       0.2616
     86  O         25.3370  -18.2750   41.0000 O.2    97  ARG97      -0.2715
     87  CB        25.8950  -17.7130   44.1620 C.3    97  ARG97       0.0348
     88  CG        24.6060  -16.9830   43.7980 C.3    97  ARG97       0.0492
     89  CD        23.3880  -17.6410   44.4390 C.3    97  ARG97       0.2205
     90  NE        23.6410  -18.0010   45.8320 N.pl3  97  ARG97      -0.0865
     91  CZ        23.1320  -17.3520   46.8750 C.cat  97  ARG97       0.5346
     92  NH1       22.3680  -16.2770   46.6940 N.pl3  97  ARG97       0.1354
     93  NH2       23.3910  -17.7780   48.1040 N.pl3  97  ARG97       0.1354
     94  N         27.5300  -17.8900   41.2220 N.am   98  VAL98      -0.1963
     95  CA        27.6770  -16.8680   40.1940 C.3    98  VAL98       0.1727
     96  C         28.6040  -17.2830   39.0360 C.2    98  VAL98       0.2616
     97  O         28.5330  -16.7360   37.9440 O.2    98  VAL98      -0.2715
     98  CB        28.0960  -15.5460   40.8670 C.3    98  VAL98       0.0290
     99  CG1       29.1800  -14.8120   40.1040 C.3    98  VAL98       0.0023
    100  CG2       26.8860  -14.6910   41.1440 C.3    98  VAL98       0.0023
    101  N         29.3660  -18.3520   39.2280 N.am   99  LEU99      -0.1963
    102  CA        30.3550  -18.7900   38.2470 C.3    99  LEU99       0.1728
    103  C         29.7660  -19.7990   37.2340 C.2    99  LEU99       0.2616
    104  O         29.3080  -20.8650   37.6280 O.2    99  LEU99      -0.2715
    105  CB        31.5680  -19.4030   38.9720 C.3    99  LEU99       0.0311
    106  CG        32.7130  -19.8690   38.0650 C.3    99  LEU99       0.0022
    107  CD1       33.3200  -18.6860   37.3260 C.3    99  LEU99       0.0001
    108  CD2       33.7910  -20.6550   38.8090 C.3    99  LEU99       0.0001
    109  N         29.7800  -19.4590   35.9400 N.am  100  GLU100     -0.1963
    110  CA        29.3380  -20.3700   34.8650 C.3   100  GLU100      0.1733
    111  C         30.1660  -21.6440   34.8350 C.2   100  GLU100      0.2616
    112  O         31.3770  -21.6000   35.0560 O.2   100  GLU100     -0.2715
    113  CB        29.4900  -19.7190   33.4890 C.3   100  GLU100      0.0429
    114  CG        28.6600  -18.4700   33.2450 C.3   100  GLU100      0.1163
    115  CD        28.9200  -17.8690   31.8580 C.2   100  GLU100      0.3649
    116  OE1       29.3500  -18.6250   30.9520 O.co2 100  GLU100     -0.2457
    117  OE2       28.6870  -16.6490   31.6740 O.co2 100  GLU100     -0.2457
    118  N         29.5770  -22.7080   34.3000 N.am  101  TYR101     -0.1974
    119  CA        30.2610  -23.9920   34.1870 C.3   101  TYR101      0.1639
    120  C         31.0200  -24.1590   32.8730 C.2   101  TYR101      0.2290
    121  O         30.5910  -23.6630   31.8400 O.2   101  TYR101     -0.2864
    122  CB        29.2730  -25.1390   34.3830 C.3   101  TYR101      0.0560
    123  CG        28.9740  -25.4330   35.8370 C.ar  101  TYR101     -0.0198
    124  CD1       29.7490  -26.3260   36.5650 C.ar  101  TYR101     -0.0009
    125  CD2       27.9310  -24.7890   36.4900 C.ar  101  TYR101     -0.0009
    126  CE1       29.4080  -26.6580   37.8840 C.ar  101  TYR101      0.0417
    127  CE2       27.6700  -25.0180   37.8300 C.ar  101  TYR101      0.0417
    128  CZ        28.3800  -25.9760   38.5090 C.ar  101  TYR101      0.1957
    129  OH        27.9940  -26.2830   39.7900 O.3   101  TYR101     -0.2866
    130  N         24.5210  -17.8380   52.8170 N.3   222  LYS222     -0.1231
    131  CA        24.5510  -18.6300   54.0390 C.3   222  LYS222      0.1693
    132  C         25.8540  -18.4520   54.8170 C.2   222  LYS222      0.2592
    133  O         25.9220  -18.7840   55.9960 O.2   222  LYS222     -0.2718
    134  CB        24.2980  -20.1140   53.7480 C.3   222  LYS222      0.0285
    135  CG        23.3700  -20.3290   52.5610 C.3   222  LYS222      0.0035
    136  CD        22.5300  -21.5950   52.6600 C.3   222  LYS222      0.0206
    137  CE        21.2020  -21.4130   51.9180 C.3   222  LYS222      0.1093
    138  NZ        20.3550  -22.6420   51.9030 N.3   222  LYS222     -0.1314
    139  N         26.9050  -17.9820   54.1560 N.am  223  SER223     -0.1952
    140  CA        28.1770  -17.8270   54.8410 C.3   223  SER223      0.1924
    141  C         28.1720  -16.6210   55.7760 C.2   223  SER223      0.2314
    142  O         28.9570  -16.5740   56.7210 O.2   223  SER223     -0.2863
    143  CB        29.3500  -17.7740   53.8610 C.3   223  SER223      0.2116
    144  OG        29.2540  -16.6430   53.0230 O.3   223  SER223     -0.2180
    145  N         27.9900  -18.0960   59.2290 N.3   226  LEU226     -0.1245
    146  CA        29.2660  -18.4730   59.8160 C.3   226  LEU226      0.1561
    147  C         29.7820  -17.3570   60.7110 C.2   226  LEU226      0.2260
    148  O         30.2600  -17.6100   61.8220 O.2   226  LEU226     -0.2867
    149  CB        30.3040  -18.7730   58.7370 C.3   226  LEU226      0.0270
    150  CG        30.0190  -19.9890   57.8650 C.3   226  LEU226      0.0019
    151  CD1       31.0770  -20.1080   56.7680 C.3   226  LEU226      0.0001
    152  CD2       29.9720  -21.2240   58.7400 C.3   226  LEU226      0.0001
@<TRIPOS>BOND
     1   116   115   ar
     2   117   115   ar
     3   121   120    2
     4   115   114    1
     5   120   119    1
     6   114   113    1
     7   113   110    1
     8   119   118    1
     9   119   122    1
    10   118   111   am
    11   122   123    1
    12   111   110    1
    13   111   112    2
    14   110   109    1
    15    33    32    2
    16    30    31    1
    17   123   125   ar
    18   123   124   ar
    19   109   103   am
    20    32    31    1
    21   125   127   ar
    22   124   126   ar
    23    31    34    1
    24   103   104    2
    25   103   102    1
    26   107   106    1
    27    34    35    1
    28    44    43    2
    29    41    42    1
    30   127   128   ar
    31   126   128   ar
    32    97    96    2
    33   106   108    1
    34   106   105    1
    35   102   105    1
    36   102   101    1
    37    35    36    1
    38    43    42    1
    39   128   129    1
    40    42    45    1
    41    36    37    1
    42    45    46    1
    43    96   101   am
    44    96    95    1
    45    37    38    2
    46    46    47    1
    47    99    98    1
    48    39    38    1
    49    95    98    1
    50    95    94    1
    51    47    48    1
    52    38    40    1
    53    98   100    1
    54    86    85    2
    55    48    49    2
    56    94    85   am
    57    85    84    1
    58    49    50    1
    59    49    51    1
    60    80    79    2
    61     7     6    1
    62    79    83   am
    63    79    78    1
    64    84    83    1
    65    84    87    1
    66    78    77    1
    67    78    81    1
    68     6     8    1
    69     6     5    1
    70    88    87    1
    71    88    89    1
    72    89    90    1
    73     5     2    1
    74    81    82    1
    75     1     2    1
    76    90    91    2
    77     2     3    1
    78    29    27    1
    79    71    70    2
    80    12    11    2
    81    63    62    2
    82    92    91    1
    83     9     3   am
    84     9    10    1
    85    16    14   ar
    86    16    18   ar
    87    91    93    1
    88     3     4    2
    89    28    27    1
    90    27    26    2
    91    13    14    1
    92    13    10    1
    93    70    69    1
    94    11    10    1
    95    14    15   ar
    96    62    61    1
    97    62    68   am
    98    18    17   ar
    99    61    60    1
   100    61    64    1
   101    66    65    2
   102    26    25    1
   103    22    21    2
   104    69    68    1
   105    69    72    1
   106    24    25    1
   107    24    23    1
   108    65    64    1
   109    65    67   am
   110    15    17   ar
   111    19    20    1
   112    21    20    1
   113    73    72    1
   114    73    74    1
   115    20    23    1
   116    76    74   ar
   117    74    75   ar
   118    55    54    2
   119   138   137    1
   120   137   136    1
   121    54    53    1
   122   135   136    1
   123   135   134    1
   124    53    52    1
   125    53    56    1
   126   130   131    1
   127   144   143    1
   128    59    57    1
   129   134   131    1
   130   143   140    1
   131    56    57    1
   132   131   132    1
   133   139   132   am
   134   139   140    1
   135    57    58    1
   136   132   133    2
   137   140   141    1
   138   141   142    2
   139   151   150    1
   140   150   149    1
   141   150   152    1
   142   149   146    1
   143   145   146    1
   144   146   147    1
   145   147   148    2
