@<TRIPOS>MOLECULE
tmp/3q8dB00.pdb
 135 126 0 0 0
SMALL
GASTEIGER

@<TRIPOS>ATOM
      1  N         38.4040  -15.7420   61.2920 N.3    83  ILE83      -0.1245
      2  CA        37.7840  -14.8020   60.3820 C.3    83  ILE83       0.1561
      3  C         38.2290  -15.0360   58.9400 C.2    83  ILE83       0.2260
      4  O         37.4660  -14.7870   58.0030 O.2    83  ILE83      -0.2867
      5  CB        38.0310  -13.3320   60.7950 C.3    83  ILE83       0.0252
      6  CG1       37.0840  -12.4000   60.0360 C.3    83  ILE83       0.0019
      7  CG2       39.4880  -12.9200   60.5510 C.3    83  ILE83       0.0019
      8  CD1       37.0730  -10.9740   60.5560 C.3    83  ILE83       0.0001
      9  N         35.9410  -15.9920   55.6910 N.3    87  SER87      -0.1217
     10  CA        36.0400  -15.1360   54.5250 C.3    87  SER87       0.1889
     11  C         36.2730  -15.9860   53.2770 C.2    87  SER87       0.2288
     12  O         35.6240  -15.7890   52.2490 O.2    87  SER87      -0.2866
     13  CB        37.1700  -14.1290   54.7110 C.3    87  SER87       0.2089
     14  OG        36.8250  -13.1710   55.6970 O.3    87  SER87      -0.2183
     15  N         33.0610  -17.7060   52.3880 N.3    90  TYR90      -0.1241
     16  CA        32.2300  -16.7250   51.7320 C.3    90  TYR90       0.1605
     17  C         32.5890  -16.5810   50.2530 C.2    90  TYR90       0.2264
     18  O         31.7060  -16.5090   49.3950 O.2    90  TYR90      -0.2867
     19  CB        32.3820  -15.3820   52.4250 C.3    90  TYR90       0.0534
     20  CG        31.9800  -14.2070   51.5750 C.ar   90  TYR90      -0.0201
     21  CD1       30.6440  -13.9160   51.3470 C.ar   90  TYR90      -0.0009
     22  CD2       32.9300  -13.3380   51.0730 C.ar   90  TYR90      -0.0009
     23  CE1       30.2700  -12.8430   50.5520 C.ar   90  TYR90       0.0417
     24  CE2       32.5720  -12.2850   50.2620 C.ar   90  TYR90       0.0417
     25  CZ        31.2420  -12.0700   49.9710 C.ar   90  TYR90       0.1957
     26  OH        30.8830  -10.9990   49.1860 O.3    90  TYR90      -0.2866
     27  N         40.7540   -8.9430   56.6490 N.3   126  PRO126     -0.2102
     28  CA        40.5710   -9.6730   55.3970 C.3   126  PRO126      0.1504
     29  C         39.8920   -8.8390   54.3080 C.2   126  PRO126      0.2575
     30  O         39.9910   -9.1730   53.1330 O.2   126  PRO126     -0.2718
     31  CB        39.6620  -10.8300   55.8050 C.3   126  PRO126      0.0282
     32  CG        38.8590  -10.2770   56.9230 C.3   126  PRO126      0.0208
     33  CD        39.8040   -9.3810   57.6840 C.3   126  PRO126      0.0893
     34  N         39.3240   -7.6970   54.6750 N.am  127  GLU127     -0.1980
     35  CA        38.3650   -7.0280   53.8020 C.3   127  GLU127      0.1602
     36  C         38.9510   -6.4860   52.4970 C.2   127  GLU127      0.2287
     37  O         38.3240   -6.5920   51.4470 O.2   127  GLU127     -0.2864
     38  CB        37.5790   -5.9630   54.5630 C.3   127  GLU127      0.0415
     39  CG        36.7470   -6.5540   55.6880 C.3   127  GLU127      0.1163
     40  CD        35.5750   -5.6790   56.0840 C.2   127  GLU127      0.3649
     41  OE1       35.7860   -4.4710   56.3340 O.co2 127  GLU127     -0.2457
     42  OE2       34.4500   -6.2120   56.1970 O.co2 127  GLU127     -0.2457
     43  N         39.0790   -9.1880   50.0830 N.3   130  LEU130     -0.1231
     44  CA        37.7160   -9.5430   49.7120 C.3   130  LEU130      0.1693
     45  C         37.1660   -8.5720   48.6780 C.2   130  LEU130      0.2591
     46  O         36.6570   -8.9900   47.6380 O.2   130  LEU130     -0.2718
     47  CB        36.8120   -9.5420   50.9430 C.3   130  LEU130      0.0284
     48  CG        37.0150  -10.6890   51.9340 C.3   130  LEU130      0.0019
     49  CD1       35.9200  -10.6890   52.9850 C.3   130  LEU130      0.0001
     50  CD2       37.0880  -12.0290   51.2210 C.3   130  LEU130      0.0001
     51  N         37.2210   -7.2820   49.0040 N.am  131  ARG131     -0.1980
     52  CA        36.8080   -6.2120   48.0990 C.3   131  ARG131      0.1597
     53  C         37.5030   -6.3320   46.7480 C.2   131  ARG131      0.2287
     54  O         36.8530   -6.3100   45.7040 O.2   131  ARG131     -0.2864
     55  CB        37.1190   -4.8490   48.7200 C.3   131  ARG131      0.0334
     56  CG        36.0130   -4.2610   49.5770 C.3   131  ARG131      0.0492
     57  CD        34.8650   -5.2400   49.8140 C.3   131  ARG131      0.2205
     58  NE        34.7780   -5.5200   51.2360 N.pl3 131  ARG131     -0.0865
     59  CZ        34.1800   -6.5760   51.7640 C.cat 131  ARG131      0.5346
     60  NH1       33.6140   -7.4720   50.9850 N.pl3 131  ARG131      0.1354
     61  NH2       34.1310   -6.7170   53.0790 N.pl3 131  ARG131      0.1354
     62  N         35.8910   -9.3110   44.9580 N.3   134  GLU134     -0.1245
     63  CA        34.5420   -9.0100   44.5050 C.3   134  GLU134      0.1567
     64  C         34.5760   -8.1510   43.2470 C.2   134  GLU134      0.2260
     65  O         33.7200   -8.2880   42.3630 O.2   134  GLU134     -0.2867
     66  CB        33.7410   -8.3110   45.6010 C.3   134  GLU134      0.0388
     67  CG        33.4450   -9.2120   46.7900 C.3   134  GLU134      0.1160
     68  CD        33.0970   -8.4280   48.0420 C.2   134  GLU134      0.3649
     69  OE1       33.4840   -7.2450   48.1190 O.co2 134  GLU134     -0.2457
     70  OE2       32.5250   -9.0160   48.9880 O.co2 134  GLU134     -0.2457
     71  N         32.6080   -1.6910   50.3840 N.3   205  LYS205     -0.1245
     72  CA        31.7250   -2.7580   50.8120 C.3   205  LYS205      0.1561
     73  C         30.2670   -2.4580   50.4610 C.2   205  LYS205      0.2260
     74  O         29.5550   -3.3470   49.9880 O.2   205  LYS205     -0.2867
     75  CB        31.9010   -3.0550   52.3070 C.3   205  LYS205      0.0271
     76  CG        30.8860   -4.0420   52.8850 C.3   205  LYS205      0.0035
     77  CD        31.4980   -4.9570   53.9340 C.3   205  LYS205      0.0206
     78  CE        31.8290   -4.2070   55.2150 C.3   205  LYS205      0.1093
     79  NZ        31.5740   -5.0340   56.4330 N.3   205  LYS205     -0.1314
     80  N         29.9940   -2.8840   46.6310 N.3   208  THR208     -0.1203
     81  CA        30.1800   -4.2580   46.2100 C.3   208  THR208      0.1994
     82  C         28.9740   -5.1270   46.5860 C.2   208  THR208      0.2617
     83  O         28.4780   -5.9060   45.7740 O.2   208  THR208     -0.2717
     84  CB        31.4590   -4.7720   46.8620 C.3   208  THR208      0.1784
     85  OG1       32.4560   -4.9890   45.8630 O.3   208  THR208     -0.2211
     86  CG2       31.2240   -5.9860   47.6770 C.3   208  THR208      0.0376
     87  N         28.4290   -4.9030   47.7770 N.am  209  ARG209     -0.1979
     88  CA        27.1530   -5.4950   48.1550 C.3   209  ARG209      0.1597
     89  C         26.0420   -5.1590   47.1600 C.2   209  ARG209      0.2287
     90  O         25.3430   -6.0530   46.6970 O.2   209  ARG209     -0.2864
     91  CB        26.7570   -5.0480   49.5580 C.3   209  ARG209      0.0334
     92  CG        25.4930   -5.7030   50.0760 C.3   209  ARG209      0.0492
     93  CD        25.2100   -5.2890   51.5140 C.3   209  ARG209      0.2205
     94  NE        26.2220   -5.8010   52.4380 N.pl3 209  ARG209     -0.0865
     95  CZ        27.0830   -5.0400   53.1090 C.cat 209  ARG209      0.5346
     96  NH1       27.0420   -3.7160   52.9920 N.pl3 209  ARG209      0.1354
     97  NH2       27.9620   -5.6020   53.9280 N.pl3 209  ARG209      0.1354
     98  N         23.2220  -15.0300   51.3170 N.3   221  LEU221     -0.1245
     99  CA        24.4540  -15.7790   51.5280 C.3   221  LEU221      0.1561
    100  C         24.4560  -16.5130   52.8610 C.2   221  LEU221      0.2260
    101  O         24.4430  -15.8880   53.9160 O.2   221  LEU221     -0.2867
    102  CB        25.6430  -14.8240   51.4750 C.3   221  LEU221      0.0270
    103  CG        25.7830  -14.0980   50.1410 C.3   221  LEU221      0.0019
    104  CD1       26.9020  -13.0830   50.2130 C.3   221  LEU221      0.0001
    105  CD2       26.0250  -15.1070   49.0220 C.3   221  LEU221      0.0001
    106  N         27.1550  -15.7690   55.6420 N.3   224  ARG224     -0.1245
    107  CA        26.8990  -14.7320   56.6450 C.3   224  ARG224      0.1563
    108  C         26.6520  -15.3260   58.0230 C.2   224  ARG224      0.2260
    109  O         27.0170  -14.7330   59.0330 O.2   224  ARG224     -0.2867
    110  CB        25.7230  -13.8420   56.2530 C.3   224  ARG224      0.0307
    111  CG        26.1070  -12.6770   55.3580 C.3   224  ARG224      0.0489
    112  CD        24.8740  -11.9740   54.8190 C.3   224  ARG224      0.2205
    113  NE        24.3870  -10.9670   55.7560 N.pl3 224  ARG224     -0.0865
    114  CZ        24.3380   -9.6650   55.4900 C.cat 224  ARG224      0.5346
    115  NH1       24.6710   -9.2160   54.2830 N.pl3 224  ARG224      0.1354
    116  NH2       23.8920   -8.8180   56.4100 N.pl3 224  ARG224      0.1354
    117  N         29.7300  -16.1270   60.2140 N.3   227  PHE227     -0.1241
    118  CA        30.2400  -15.0150   60.9880 C.3   227  PHE227      0.1605
    119  C         29.3690  -14.7650   62.2010 C.2   227  PHE227      0.2264
    120  O         29.8850  -14.5730   63.2940 O.2   227  PHE227     -0.2867
    121  CB        30.3560  -13.7500   60.1470 C.3   227  PHE227      0.0534
    122  CG        31.4710  -13.7930   59.1530 C.ar  227  PHE227     -0.0203
    123  CD1       32.7530  -13.4330   59.5190 C.ar  227  PHE227     -0.0042
    124  CD2       31.2340  -14.1820   57.8430 C.ar  227  PHE227     -0.0042
    125  CE1       33.7790  -13.4080   58.5830 C.ar  227  PHE227     -0.0003
    126  CE2       32.2470  -14.1520   56.8980 C.ar  227  PHE227     -0.0003
    127  CZ        33.5270  -13.7860   57.2730 C.ar  227  PHE227     -0.0000
    128  N         31.7110  -15.4670   65.3050 N.3   231  MET231     -0.1245
    129  CA        32.3370  -14.2030   65.6680 C.3   231  MET231      0.1570
    130  C         31.7160  -13.6710   66.9550 C.2   231  MET231      0.2261
    131  O         30.5020  -13.7760   67.1460 O.2   231  MET231     -0.2867
    132  CB        32.1170  -13.1770   64.5540 C.3   231  MET231      0.0387
    133  CG        33.3410  -12.8750   63.7080 C.3   231  MET231      0.0595
    134  SD        34.4380  -14.2930   63.5440 S.3   231  MET231     -0.1393
    135  CE        35.9590  -13.4850   63.0590 C.3   231  MET231      0.0692
@<TRIPOS>BOND
     1    65    64    2
     2    64    63    1
     3    63    62    1
     4    63    66    1
     5    66    67    1
     6    54    53    2
     7    83    82    2
     8    85    84    1
     9    81    82    1
    10    81    80    1
    11    81    84    1
    12    82    87   am
    13    90    89    2
    14    53    52    1
    15    67    68    1
    16    84    86    1
    17    89    88    1
    18    46    45    2
    19    87    88    1
    20    68    69   ar
    21    68    70   ar
    22    52    55    1
    23    52    51    1
    24    88    91    1
    25    45    51   am
    26    45    44    1
    27    55    56    1
    28   105   103    1
    29    26    25    1
    30    18    17    2
    31    91    92    1
    32    56    57    1
    33    44    43    1
    34    44    47    1
    35    57    58    1
    36    25    24   ar
    37    25    23   ar
    38    74    73    2
    39    92    93    1
    40   103   104    1
    41   103   102    1
    42    17    16    1
    43    24    22   ar
    44    71    72    1
    45    73    72    1
    46    23    21   ar
    47    72    75    1
    48    47    48    1
    49    60    59    1
    50    22    20   ar
    51    50    48    1
    52    58    59    2
    53    98    99    1
    54    21    20   ar
    55    37    36    2
    56   102    99    1
    57    93    94    1
    58    99   100    1
    59    20    19    1
    60    16    15    1
    61    16    19    1
    62    59    61    1
    63    48    49    1
    64    12    11    2
    65    75    76    1
    66    94    95    2
    67    36    35    1
    68   100   101    2
    69    76    77    1
    70    96    95    1
    71    95    97    1
    72    30    29    2
    73    11    10    1
    74    35    38    1
    75    35    34    1
    76    77    78    1
    77   115   114    1
    78    29    34   am
    79    29    28    1
    80    10    13    1
    81    10     9    1
    82    38    39    1
    83    13    14    1
    84   112   111    1
    85   112   113    1
    86    78    79    1
    87   111   110    1
    88    28    31    1
    89    28    27    1
    90   114   113    2
    91   114   116    1
    92   106   107    1
    93    39    40    1
    94    31    32    1
    95    40    42   ar
    96    40    41   ar
    97   110   107    1
    98   107   108    1
    99    27    33    1
   100   126   127   ar
   101   126   124   ar
   102    32    33    1
   103   127   125   ar
   104   124   122   ar
   105     4     3    2
   106   108   109    2
   107   125   123   ar
   108     3     2    1
   109   122   123   ar
   110   122   121    1
   111     6     8    1
   112     6     5    1
   113   121   118    1
   114   117   118    1
   115     2     5    1
   116     2     1    1
   117     7     5    1
   118   118   119    1
   119   119   120    2
   120   135   134    1
   121   134   133    1
   122   133   132    1
   123   132   129    1
   124   128   129    1
   125   129   130    1
   126   130   131    2
