@<TRIPOS>MOLECULE
tmp/3q8fA00.pdb
 111 99 0 0 0
SMALL
GASTEIGER

@<TRIPOS>ATOM
      1  N         10.3360  -25.8700   24.2990 N.3   227  SER227     -0.1202
      2  CA         9.0340  -26.4170   23.9450 C.3   227  SER227      0.2020
      3  C          7.9980  -25.9820   24.9630 C.2   227  SER227      0.2619
      4  O          8.1680  -26.1460   26.1730 O.2   227  SER227     -0.2717
      5  CB         9.0750  -27.9440   23.9090 C.3   227  SER227      0.2103
      6  OG        10.0230  -28.3560   22.9550 O.3   227  SER227     -0.2182
      7  N          6.9190  -25.4250   24.4590 N.am  228  THR228     -0.1938
      8  CA         5.8730  -24.9020   25.3210 C.3   228  THR228      0.2028
      9  C          4.5680  -25.6530   25.0940 C.2   228  THR228      0.2642
     10  O          4.1940  -25.9480   23.9590 O.2   228  THR228     -0.2714
     11  CB         5.6540  -23.3990   25.0410 C.3   228  THR228      0.1808
     12  OG1        6.9020  -22.7240   25.1760 O.3   228  THR228     -0.2208
     13  CG2        4.6460  -22.7790   26.0380 C.3   228  THR228      0.0379
     14  N          3.8730  -25.9520   26.1700 N.am  229  SER229     -0.1949
     15  CA         2.5400  -26.5190   26.0320 C.3   229  SER229      0.1924
     16  C          1.5490  -25.7220   26.8440 C.2   229  SER229      0.2314
     17  O          1.8280  -25.3780   27.9970 O.2   229  SER229     -0.2863
     18  CB         2.5190  -27.9990   26.4800 C.3   229  SER229      0.2116
     19  OG         3.1850  -28.8100   25.5160 O.3   229  SER229     -0.2180
     20  N          3.5710  -23.9770   29.9990 N.3   242  THR242     -0.1218
     21  CA         4.8090  -24.2950   30.6570 C.3   242  THR242      0.1862
     22  C          5.8580  -24.4890   29.5780 C.2   242  THR242      0.2287
     23  O          5.5910  -25.1010   28.5460 O.2   242  THR242     -0.2866
     24  CB         4.6360  -25.5830   31.4970 C.3   242  THR242      0.1770
     25  OG1        3.7850  -25.2880   32.6180 O.3   242  THR242     -0.2211
     26  CG2        6.0050  -26.1500   31.9740 C.3   242  THR242      0.0375
     27  N          9.6430  -25.8570   28.5320 N.3   244  ALA244     -0.1245
     28  CA        10.7440  -26.7390   28.8450 C.3   244  ALA244      0.1562
     29  C         11.9150  -26.2580   28.0000 C.2   244  ALA244      0.2260
     30  O         11.8130  -26.1090   26.7570 O.2   244  ALA244     -0.2867
     31  CB        10.3790  -28.1880   28.5410 C.3   244  ALA244      0.0290
     32  N         12.7470  -24.9840   33.6600 N.3   353  GLN353     -0.1245
     33  CA        11.3660  -24.7220   33.3600 C.3   353  GLN353      0.1566
     34  C         10.9650  -23.2950   33.7040 C.2   353  GLN353      0.2260
     35  O         11.4140  -22.7560   34.7320 O.2   353  GLN353     -0.2867
     36  CB        10.5020  -25.6640   34.1960 C.3   353  GLN353      0.0367
     37  CG         9.2550  -26.1030   33.5000 C.3   353  GLN353      0.0905
     38  CD         8.6050  -27.2710   34.2160 C.2   353  GLN353      0.2608
     39  OE1        8.7280  -28.4110   33.7850 O.2   353  GLN353     -0.2717
     40  NE2        7.9210  -26.9870   35.3210 N.am  353  GLN353     -0.0878
     41  N          1.6620  -35.6440   33.2680 N.3   504  ASP504     -0.1239
     42  CA         2.0380  -34.9640   34.4940 C.3   504  ASP504      0.1674
     43  C          0.8330  -34.1950   35.0500 C.2   504  ASP504      0.2266
     44  O         -0.2650  -34.2530   34.4930 O.2   504  ASP504     -0.2867
     45  CB         3.2720  -34.0800   34.3010 C.3   504  ASP504      0.1410
     46  CG         3.0210  -32.8500   33.4220 C.2   504  ASP504      0.3668
     47  OD1        1.8540  -32.4670   33.1910 O.co2 504  ASP504     -0.2456
     48  OD2        4.0250  -32.2410   32.9780 O.co2 504  ASP504     -0.2456
     49  N          0.2010  -32.5340   30.4830 N.3   508  ILE508     -0.1245
     50  CA         1.1330  -32.7380   29.3670 C.3   508  ILE508      0.1561
     51  C          1.5390  -34.2230   29.3030 C.2   508  ILE508      0.2260
     52  O          1.7550  -34.8550   30.3370 O.2   508  ILE508     -0.2867
     53  CB         2.3950  -31.8570   29.5450 C.3   508  ILE508      0.0252
     54  CG1        2.0000  -30.3790   29.6200 C.3   508  ILE508      0.0019
     55  CG2        3.3990  -32.0690   28.4030 C.3   508  ILE508      0.0019
     56  CD1        3.1280  -29.4860   30.3620 C.3   508  ILE508      0.0001
     57  N          4.0230  -36.9820   29.0980 N.3   510  VAL510     -0.1245
     58  CA         5.4460  -37.0120   29.4330 C.3   510  VAL510      0.1561
     59  C          6.0420  -38.4430   29.3660 C.2   510  VAL510      0.2260
     60  O          7.2250  -38.6420   29.6480 O.2   510  VAL510     -0.2867
     61  CB         5.6840  -36.4120   30.8250 C.3   510  VAL510      0.0252
     62  CG1        5.2530  -34.9230   30.8640 C.3   510  VAL510      0.0019
     63  CG2        4.9330  -37.2060   31.8730 C.3   510  VAL510      0.0019
     64  N          6.7860  -37.2240   20.4710 N.3   541  LYS541     -0.1245
     65  CA         6.5220  -36.0630   21.3160 C.3   541  LYS541      0.1561
     66  C          6.9030  -36.3300   22.7670 C.2   541  LYS541      0.2260
     67  O          7.2980  -35.4140   23.5000 O.2   541  LYS541     -0.2867
     68  CB         5.0460  -35.6570   21.2420 C.3   541  LYS541      0.0271
     69  CG         4.8340  -34.1550   21.2710 C.3   541  LYS541      0.0035
     70  CD         3.4210  -33.7700   21.6820 C.3   541  LYS541      0.0206
     71  CE         3.3590  -32.3230   22.2000 C.3   541  LYS541      0.1093
     72  NZ         3.6090  -31.3030   21.1340 N.3   541  LYS541     -0.1314
     73  N         12.6840  -37.5680   25.0180 N.3   544  SER544     -0.1217
     74  CA        13.7430  -36.5560   25.1040 C.3   544  SER544      0.1889
     75  C         15.0150  -36.9710   24.3540 C.2   544  SER544      0.2288
     76  O         15.7990  -36.1250   23.9420 O.2   544  SER544     -0.2866
     77  CB        14.0610  -36.2130   26.5610 C.3   544  SER544      0.2089
     78  OG        14.4820  -37.3500   27.2930 O.3   544  SER544     -0.2183
     79  N         10.4720  -38.2160   28.3120 N.3   607  LYS607     -0.1231
     80  CA        10.4200  -36.9330   28.9970 C.3   607  LYS607      0.1693
     81  C         10.4440  -37.0380   30.5310 C.2   607  LYS607      0.2591
     82  O         11.2900  -36.4480   31.1890 O.2   607  LYS607     -0.2718
     83  CB         9.1370  -36.2360   28.5220 C.3   607  LYS607      0.0285
     84  CG         9.1720  -34.7350   28.4780 C.3   607  LYS607      0.0035
     85  CD         7.9870  -34.1940   27.6560 C.3   607  LYS607      0.0206
     86  CE         7.4690  -32.8720   28.2190 C.3   607  LYS607      0.1093
     87  NZ         8.5480  -31.8440   28.2420 N.3   607  LYS607     -0.1314
     88  N          9.5220  -37.8010   31.1070 N.am  608  GLU608     -0.1979
     89  CA         9.4270  -37.9320   32.5660 C.3   608  GLU608      0.1602
     90  C         10.6320  -38.6570   33.1880 C.2   608  GLU608      0.2287
     91  O         10.8620  -38.5750   34.4010 O.2   608  GLU608     -0.2864
     92  CB         8.1560  -38.6920   32.9530 C.3   608  GLU608      0.0415
     93  CG         8.1970  -40.2050   32.6000 C.3   608  GLU608      0.1163
     94  CD         6.8830  -40.9220   32.9290 C.2   608  GLU608      0.3649
     95  OE1        6.0180  -40.3190   33.5840 O.co2 608  GLU608     -0.2457
     96  OE2        6.7090  -42.0940   32.5310 O.co2 608  GLU608     -0.2457
     97  N         13.7570  -38.1470   31.9290 N.3   610  THR610     -0.1218
     98  CA        14.8940  -37.3170   31.5250 C.3   610  THR610      0.1862
     99  C         15.6360  -36.6760   32.6940 C.2   610  THR610      0.2287
    100  O         15.0580  -35.9700   33.5310 O.2   610  THR610     -0.2866
    101  CB        14.4210  -36.1830   30.5830 C.3   610  THR610      0.1770
    102  OG1       13.7020  -36.7540   29.4810 O.3   610  THR610     -0.2211
    103  CG2       15.6070  -35.3610   30.0550 C.3   610  THR610      0.0375
    104  N         18.0640  -33.8060   33.8120 N.3   612  ILE612     -0.1245
    105  CA        18.3370  -32.5010   33.2380 C.3   612  ILE612      0.1561
    106  C         19.4710  -31.8000   33.9640 C.2   612  ILE612      0.2260
    107  O         19.7530  -30.6680   33.6610 O.2   612  ILE612     -0.2867
    108  CB        17.0840  -31.5920   33.2730 C.3   612  ILE612      0.0252
    109  CG1       16.4890  -31.5490   34.6810 C.3   612  ILE612      0.0019
    110  CG2       16.0570  -32.0840   32.2680 C.3   612  ILE612      0.0019
    111  CD1       15.5080  -30.4110   34.8720 C.3   612  ILE612      0.0001
@<TRIPOS>BOND
     1    64    65    1
     2    72    71    1
     3    68    69    1
     4    68    65    1
     5    69    70    1
     6    65    66    1
     7    70    71    1
     8    66    67    2
     9     6     5    1
    10     5     2    1
    11    76    75    2
    12     2     1    1
    13     2     3    1
    14    10     9    2
    15    75    74    1
    16     7     3   am
    17     7     8    1
    18     3     4    2
    19    73    74    1
    20    11    12    1
    21    11     8    1
    22    11    13    1
    23     9     8    1
    24     9    14   am
    25    74    77    1
    26    19    18    1
    27    15    14    1
    28    15    18    1
    29    15    16    1
    30    77    78    1
    31    30    29    2
    32    16    17    2
    33    85    86    1
    34    85    84    1
    35    29    28    1
    36    86    87    1
    37    79    80    1
    38    55    53    1
    39    84    83    1
    40    83    80    1
    41    27    28    1
    42    31    28    1
    43    23    22    2
    44    80    81    1
    45    57    58    1
    46    51    50    1
    47    51    52    2
    48    59    58    1
    49    59    60    2
    50    50    53    1
    51    50    49    1
    52    58    61    1
    53   102   101    1
    54    53    54    1
    55    22    21    1
    56    54    56    1
    57    20    21    1
    58   103   101    1
    59    81    88   am
    60    81    82    2
    61   101    98    1
    62    21    24    1
    63    61    62    1
    64    61    63    1
    65    88    89    1
    66    24    26    1
    67    24    25    1
    68    98    97    1
    69    98    99    1
    70   110   108    1
    71    96    94   ar
    72    89    92    1
    73    89    90    1
    74    93    94    1
    75    93    92    1
    76    99   100    2
    77    94    95   ar
    78    48    46   ar
    79    90    91    2
    80    47    46   ar
    81   105   108    1
    82   105   104    1
    83   105   106    1
    84    41    42    1
    85   108   109    1
    86    33    32    1
    87    33    34    1
    88    33    36    1
    89    46    45    1
    90    37    36    1
    91    37    38    1
    92   107   106    2
    93    34    35    2
    94    39    38    2
    95    38    40   am
    96    45    42    1
    97    44    43    2
    98    42    43    1
    99   109   111    1
