@<TRIPOS>MOLECULE
tmp/3q8hC01.pdb
 72 69 0 0 0
SMALL
GASTEIGER

@<TRIPOS>ATOM
      1  N         35.1090  -34.7260  -15.6030 N.3   102  ALA102     -0.1231
      2  CA        36.2810  -34.0530  -15.0580 C.3   102  ALA102      0.1694
      3  C         36.9520  -33.3620  -16.2210 C.2   102  ALA102      0.2591
      4  O         37.2350  -33.9970  -17.2560 O.2   102  ALA102     -0.2718
      5  CB        37.2060  -35.0730  -14.4380 C.3   102  ALA102      0.0304
      6  N         37.2090  -32.0660  -16.0760 N.am  103  GLN103     -0.1979
      7  CA        37.9170  -31.3400  -17.1180 C.3   103  GLN103      0.1601
      8  C         39.3430  -31.8640  -17.2330 C.2   103  GLN103      0.2287
      9  O         39.9070  -31.9930  -18.3470 O.2   103  GLN103     -0.2864
     10  CB        37.9060  -29.8360  -16.7970 C.3   103  GLN103      0.0394
     11  CG        38.2280  -28.9340  -18.0000 C.3   103  GLN103      0.0908
     12  CD        37.2950  -29.1360  -19.1990 C.2   103  GLN103      0.2608
     13  OE1       36.0810  -29.1850  -19.0660 O.2   103  GLN103     -0.2717
     14  NE2       37.8840  -29.1950  -20.3910 N.am  103  GLN103     -0.0878
     15  N         42.3430  -34.3700  -14.5000 N.3   105  PRO105     -0.2102
     16  CA        43.3140  -34.8100  -15.5140 C.3   105  PRO105      0.1504
     17  C         42.7180  -35.8320  -16.4950 C.2   105  PRO105      0.2576
     18  O         41.5040  -36.1440  -16.4500 O.2   105  PRO105     -0.2718
     19  CB        44.4120  -35.4670  -14.6710 C.3   105  PRO105      0.0282
     20  CG        43.6660  -36.0470  -13.5170 C.3   105  PRO105      0.0208
     21  CD        42.5330  -35.0830  -13.2220 C.3   105  PRO105      0.0893
     22  N         43.5640  -36.3240  -17.3910 N.am  106  LYS106     -0.1966
     23  CA        43.2000  -37.3810  -18.3330 C.3   106  LYS106      0.1728
     24  C         42.9260  -38.6660  -17.5710 C.2   106  LYS106      0.2616
     25  O         43.7990  -39.1760  -16.8450 O.2   106  LYS106     -0.2715
     26  CB        44.3360  -37.5810  -19.3490 C.3   106  LYS106      0.0311
     27  CG        43.9560  -38.3900  -20.5830 C.3   106  LYS106      0.0038
     28  CD        43.2810  -37.5010  -21.6370 C.3   106  LYS106      0.0206
     29  CE        43.0750  -38.2160  -22.9700 C.3   106  LYS106      0.1093
     30  NZ        41.9120  -39.1550  -22.9550 N.3   106  LYS106     -0.1314
     31  N         41.6990  -39.1790  -17.6960 N.am  107  LEU107     -0.1963
     32  CA        41.3150  -40.3750  -16.9620 C.3   107  LEU107      0.1728
     33  C         41.4600  -41.6660  -17.7630 C.2   107  LEU107      0.2616
     34  O         41.4890  -42.7570  -17.1750 O.2   107  LEU107     -0.2715
     35  CB        39.8660  -40.2490  -16.4630 C.3   107  LEU107      0.0311
     36  CG        39.6380  -39.0560  -15.5390 C.3   107  LEU107      0.0022
     37  CD1       38.1320  -38.8920  -15.2700 C.3   107  LEU107      0.0001
     38  CD2       40.4300  -39.2200  -14.2380 C.3   107  LEU107      0.0001
     39  N         41.5290  -41.5430  -19.0920 N.am  108  ALA108     -0.1977
     40  CA        41.5830  -42.7100  -19.9850 C.3   108  ALA108      0.1597
     41  C         42.5080  -43.8410  -19.5280 C.2   108  ALA108      0.2287
     42  O         42.0860  -44.9960  -19.5470 O.2   108  ALA108     -0.2864
     43  CB        41.9340  -42.2950  -21.4660 C.3   108  ALA108      0.0319
     44  N         40.8730  -45.9620  -16.5320 N.3   111  ILE111     -0.1245
     45  CA        39.4850  -46.4450  -16.5600 C.3   111  ILE111      0.1561
     46  C         39.3680  -47.9590  -16.3610 C.2   111  ILE111      0.2260
     47  O         38.5390  -48.4310  -15.5860 O.2   111  ILE111     -0.2867
     48  CB        38.7660  -46.0260  -17.8780 C.3   111  ILE111      0.0252
     49  CG1       38.5330  -44.5010  -17.9000 C.3   111  ILE111      0.0019
     50  CG2       37.4890  -46.8490  -18.0930 C.3   111  ILE111      0.0019
     51  CD1       37.4510  -43.9650  -16.9870 C.3   111  ILE111      0.0001
     52  N         34.1310  -41.4510  -19.3440 N.3   133  ALA133     -0.1231
     53  CA        34.6440  -40.1450  -18.8930 C.3   133  ALA133      0.1694
     54  C         34.2880  -39.0450  -19.8750 C.2   133  ALA133      0.2592
     55  O         34.2530  -39.2670  -21.0960 O.2   133  ALA133     -0.2718
     56  CB        36.1580  -40.1730  -18.6260 C.3   133  ALA133      0.0304
     57  N         34.0120  -37.8690  -19.3270 N.am  134  LYS134     -0.1966
     58  CA        33.6010  -36.7080  -20.1120 C.3   134  LYS134      0.1728
     59  C         34.3100  -35.4790  -19.5830 C.2   134  LYS134      0.2616
     60  O         34.5170  -35.3790  -18.3670 O.2   134  LYS134     -0.2715
     61  CB        32.0810  -36.5020  -19.9630 C.3   134  LYS134      0.0311
     62  CG        31.2190  -37.5550  -20.6550 C.3   134  LYS134      0.0038
     63  CD        31.3850  -37.5760  -22.1380 C.3   134  LYS134      0.0206
     64  CE        30.9680  -36.2680  -22.8050 C.3   134  LYS134      0.1093
     65  NZ        31.0520  -36.4160  -24.2820 N.3   134  LYS134     -0.1314
     66  N         34.7230  -34.5470  -20.4650 N.am  135  THR135     -0.1951
     67  CA        35.0290  -33.2110  -19.9610 C.3   135  THR135      0.1897
     68  C         33.7270  -32.4330  -19.8560 C.2   135  THR135      0.2313
     69  O         32.6610  -32.9340  -20.2450 O.2   135  THR135     -0.2863
     70  CB        35.9760  -32.3970  -20.8550 C.3   135  THR135      0.1794
     71  OG1       35.2760  -32.0010  -22.0340 O.3   135  THR135     -0.2208
     72  CG2       37.2390  -33.2000  -21.2100 C.3   135  THR135      0.0378
@<TRIPOS>BOND
     1    65    64    1
     2    29    30    1
     3    29    28    1
     4    64    63    1
     5    63    62    1
     6    71    70    1
     7    28    27    1
     8    43    40    1
     9    72    70    1
    10    55    54    2
    11    70    67    1
    12    62    61    1
    13    27    26    1
    14    66    67    1
    15    66    59   am
    16    14    12   am
    17    69    68    2
    18    58    61    1
    19    58    59    1
    20    58    57    1
    21    40    41    1
    22    40    39    1
    23    67    68    1
    24    54    57   am
    25    54    53    1
    26    59    60    2
    27    42    41    2
    28    26    23    1
    29    52    53    1
    30    12    13    2
    31    12    11    1
    32    39    33   am
    33    53    56    1
    34     9     8    2
    35    23    24    1
    36    23    22    1
    37    50    48    1
    38    11    10    1
    39    49    48    1
    40    49    51    1
    41    48    45    1
    42    33    34    2
    43    33    32    1
    44    31    24   am
    45    31    32    1
    46    24    25    2
    47    22    17   am
    48     4     3    2
    49     8     7    1
    50     7    10    1
    51     7     6    1
    52    32    35    1
    53    45    44    1
    54    45    46    1
    55    17    18    2
    56    17    16    1
    57    35    36    1
    58    46    47    2
    59     3     6   am
    60     3     2    1
    61     1     2    1
    62    36    37    1
    63    36    38    1
    64    16    19    1
    65    16    15    1
    66     2     5    1
    67    19    20    1
    68    15    21    1
    69    20    21    1
