@<TRIPOS>MOLECULE
tmp/3q8hC00.pdb
 108 105 0 0 0
SMALL
GASTEIGER

@<TRIPOS>ATOM
      1  N         26.9020  -37.8180   -7.8030 N.3    10  ASP10      -0.1239
      2  CA        27.7420  -37.2430   -6.7450 C.3    10  ASP10       0.1674
      3  C         28.6420  -36.1540   -7.3170 C.2    10  ASP10       0.2266
      4  O         28.9440  -36.1430   -8.5200 O.2    10  ASP10      -0.2867
      5  CB        28.5830  -38.3360   -6.0640 C.3    10  ASP10       0.1410
      6  CG        29.1850  -37.8880   -4.7450 C.2    10  ASP10       0.3668
      7  OD1       28.7090  -36.9370   -4.0500 O.co2  10  ASP10      -0.2456
      8  OD2       30.1790  -38.5400   -4.3740 O.co2  10  ASP10      -0.2456
      9  N         32.1860  -33.6640   -5.8140 N.3    12  HIS12      -0.1241
     10  CA        33.0300  -33.1420   -4.7510 C.3    12  HIS12       0.1621
     11  C         33.9200  -32.0460   -5.2700 C.2    12  HIS12       0.2264
     12  O         34.2810  -32.0440   -6.4370 O.2    12  HIS12      -0.2867
     13  CB        33.9170  -34.2380   -4.1620 C.3    12  HIS12       0.0745
     14  CG        33.1490  -35.2050   -3.3250 C.ar   12  HIS12       0.0817
     15  ND1       32.8330  -34.9480   -2.0090 N.ar   12  HIS12      -0.2268
     16  CD2       32.5520  -36.3810   -3.6390 C.ar   12  HIS12       0.1154
     17  CE1       32.1250  -35.9570   -1.5230 C.ar   12  HIS12       0.1986
     18  NE2       31.9470  -36.8430   -2.4880 N.ar   12  HIS12      -0.2212
     19  N         33.3030  -36.6330    2.3270 N.3    36  HIS36      -0.1226
     20  CA        33.0560  -37.7630    3.1850 C.3    36  HIS36       0.1752
     21  C         34.0490  -38.8180    2.7510 C.2    36  HIS36       0.2596
     22  O         34.2360  -39.0800    1.5630 O.2    36  HIS36      -0.2718
     23  CB        31.6260  -38.2730    3.0090 C.3    36  HIS36       0.0759
     24  CG        30.5770  -37.2470    3.3080 C.ar   36  HIS36       0.0818
     25  ND1       30.0710  -36.3990    2.3460 N.ar   36  HIS36      -0.2268
     26  CD2       29.9400  -36.9330    4.4600 C.ar   36  HIS36       0.1154
     27  CE1       29.1670  -35.6060    2.8940 C.ar   36  HIS36       0.1986
     28  NE2       29.0680  -35.9100    4.1750 N.ar   36  HIS36      -0.2212
     29  N         34.6850  -39.4150    3.7430 N.am   37  SER37      -0.1952
     30  CA        35.7020  -40.4490    3.5500 C.3    37  SER37       0.1924
     31  C         36.8310  -39.9470    2.6500 C.2    37  SER37       0.2314
     32  O         37.3440  -38.8430    2.8350 O.2    37  SER37      -0.2863
     33  CB        35.0770  -41.7120    2.9560 C.3    37  SER37       0.2116
     34  OG        34.1510  -42.2910    3.8210 O.3    37  SER37      -0.2180
     35  N         30.9040  -43.3870   -4.8210 N.3    44  HIS44      -0.1241
     36  CA        29.7110  -42.8730   -4.1480 C.3    44  HIS44       0.1621
     37  C         28.4820  -42.8530   -5.0620 C.2    44  HIS44       0.2264
     38  O         27.3850  -43.2490   -4.6460 O.2    44  HIS44      -0.2867
     39  CB        29.9550  -41.4440   -3.6310 C.3    44  HIS44       0.0745
     40  CG        30.9350  -41.3930   -2.5010 C.ar   44  HIS44       0.0817
     41  ND1       31.3860  -40.2090   -1.9510 N.ar   44  HIS44      -0.2268
     42  CD2       31.5660  -42.3870   -1.8390 C.ar   44  HIS44       0.1154
     43  CE1       32.2620  -40.4810   -0.9960 C.ar   44  HIS44       0.1986
     44  NE2       32.3800  -41.8000   -0.9030 N.ar   44  HIS44      -0.2212
     45  N         19.5870  -44.0250    0.7090 N.3    58  ASP58      -0.1225
     46  CA        20.8000  -43.4620    0.1190 C.3    58  ASP58       0.1805
     47  C         22.0190  -43.6200    1.0260 C.2    58  ASP58       0.2598
     48  O         21.9390  -44.1500    2.1590 O.2    58  ASP58      -0.2718
     49  CB        20.5880  -41.9970   -0.3550 C.3    58  ASP58       0.1424
     50  CG        20.3130  -41.0060    0.7900 C.2    58  ASP58       0.3668
     51  OD1       20.8630  -41.1900    1.8980 O.co2  58  ASP58      -0.2456
     52  OD2       19.5590  -40.0020    0.5660 O.co2  58  ASP58      -0.2456
     53  N         23.1660  -43.2080    0.4930 N.am   59  ILE59      -0.1966
     54  CA        24.4270  -43.4270    1.1710 C.3    59  ILE59       0.1727
     55  C         24.4260  -42.8020    2.5880 C.2    59  ILE59       0.2617
     56  O         24.9220  -43.4070    3.5390 O.2    59  ILE59      -0.2715
     57  CB        25.5970  -42.9860    0.2110 C.3    59  ILE59       0.0290
     58  CG1       26.9670  -43.4630    0.6570 C.3    59  ILE59       0.0022
     59  CG2       25.5390  -41.4820   -0.0940 C.3    59  ILE59       0.0023
     60  CD1       28.0130  -43.2310   -0.4690 C.3    59  ILE59       0.0001
     61  N         23.7910  -41.6410    2.7470 N.am   60  GLY60      -0.1940
     62  CA        23.8060  -40.9330    4.0320 C.3    60  GLY60       0.2014
     63  C         22.9180  -41.5700    5.0870 C.2    60  GLY60       0.2638
     64  O         23.1490  -41.4050    6.2870 O.2    60  GLY60      -0.2714
     65  N         21.8920  -42.2910    4.6360 N.am   61  ARG61      -0.1977
     66  CA        21.0130  -43.0400    5.5330 C.3    61  ARG61       0.1597
     67  C         21.6680  -44.3200    6.0720 C.2    61  ARG61       0.2287
     68  O         21.2920  -44.8030    7.1460 O.2    61  ARG61      -0.2864
     69  CB        19.6400  -43.3000    4.8720 C.3    61  ARG61       0.0334
     70  CG        18.7840  -42.0130    4.7950 C.3    61  ARG61       0.0492
     71  CD        17.6690  -42.0500    3.7430 C.3    61  ARG61       0.2205
     72  NE        16.3610  -42.4350    4.2860 N.pl3  61  ARG61      -0.0865
     73  CZ        15.4780  -41.6150    4.8700 C.cat  61  ARG61       0.5346
     74  NH1       15.7220  -40.3140    5.0350 N.pl3  61  ARG61       0.1354
     75  NH2       14.3330  -42.1130    5.3120 N.pl3  61  ARG61       0.1354
     76  N         25.3790  -44.7760    6.1700 N.3    63  PHE63      -0.1227
     77  CA        26.7400  -44.5870    6.6460 C.3    63  PHE63       0.1736
     78  C         26.8540  -43.2180    7.2910 C.2    63  PHE63       0.2596
     79  O         26.8460  -42.1980    6.6040 O.2    63  PHE63      -0.2718
     80  CB        27.7380  -44.7590    5.4900 C.3    63  PHE63       0.0547
     81  CG        27.5780  -46.0500    4.7140 C.ar   63  PHE63      -0.0202
     82  CD1       27.5180  -47.2820    5.3730 C.ar   63  PHE63      -0.0042
     83  CD2       27.5350  -46.0390    3.3150 C.ar   63  PHE63      -0.0042
     84  CE1       27.3900  -48.4760    4.6600 C.ar   63  PHE63      -0.0003
     85  CE2       27.4190  -47.2400    2.5830 C.ar   63  PHE63      -0.0003
     86  CZ        27.3400  -48.4650    3.2570 C.ar   63  PHE63      -0.0000
     87  N         26.9040  -43.2080    8.6210 N.am   64  SER64      -0.1938
     88  CA        27.0180  -41.9900    9.4530 C.3    64  SER64       0.2055
     89  C         28.3940  -41.7950    9.9930 C.2    64  SER64       0.2643
     90  O         29.2190  -42.6760    9.9260 O.2    64  SER64      -0.2714
     91  CB        26.0830  -41.9790   10.6560 C.3    64  SER64       0.2130
     92  OG        26.3120  -43.0430   11.5540 O.3    64  SER64      -0.2179
     93  N         28.6370  -40.5930   10.4810 N.am   65  ASP65      -0.1971
     94  CA        29.8280  -40.2470   11.2270 C.3    65  ASP65       0.1709
     95  C         29.8240  -40.9570   12.5770 C.2    65  ASP65       0.2293
     96  O         30.8400  -41.2400   13.1500 O.2    65  ASP65      -0.2864
     97  CB        29.9370  -38.7350   11.4170 C.3    65  ASP65       0.1436
     98  CG        30.5590  -37.9920   10.2860 C.2    65  ASP65       0.3671
     99  OD1       31.0300  -38.5830    9.3380 O.co2  65  ASP65      -0.2456
    100  OD2       30.6000  -36.7040   10.4340 O.co2  65  ASP65      -0.2456
    101  N         32.8770  -49.0400    1.8310 N.3    78  LEU78      -0.1245
    102  CA        31.4780  -48.6360    1.7750 C.3    78  LEU78       0.1561
    103  C         30.7390  -49.2580    0.5960 C.2    78  LEU78       0.2260
    104  O         29.5860  -49.6450    0.7370 O.2    78  LEU78      -0.2867
    105  CB        31.3560  -47.1060    1.7320 C.3    78  LEU78       0.0270
    106  CG        31.9510  -46.4270    2.9830 C.3    78  LEU78       0.0019
    107  CD1       31.7500  -44.9390    2.8760 C.3    78  LEU78       0.0001
    108  CD2       31.3750  -46.9600    4.3130 C.3    78  LEU78       0.0001
@<TRIPOS>BOND
     1     4     3    2
     2     1     2    1
     3     3     2    1
     4     2     5    1
     5    12    11    2
     6     5     6    1
     7     9    10    1
     8    11    10    1
     9    37    38    2
    10    37    36    1
    11    35    36    1
    12    10    13    1
    13     6     8   ar
    14     6     7   ar
    15    13    14    1
    16    36    39    1
    17    16    14   ar
    18    16    18   ar
    19    39    40    1
    20    14    15   ar
    21    40    41   ar
    22    40    42   ar
    23    18    17   ar
    24    15    17   ar
    25    41    43   ar
    26    42    44   ar
    27    43    44   ar
    28    60    58    1
    29    49    46    1
    30    49    50    1
    31    59    57    1
    32    46    45    1
    33    46    47    1
    34    57    58    1
    35    57    54    1
    36    53    47   am
    37    53    54    1
    38    52    50   ar
    39   103   104    2
    40   103   102    1
    41    50    51   ar
    42    47    48    2
    43    54    55    1
    44    22    21    2
    45   105   102    1
    46   105   106    1
    47   102   101    1
    48    19    20    1
    49    25    27   ar
    50    25    24   ar
    51    85    86   ar
    52    85    83   ar
    53    55    61   am
    54    55    56    2
    55    31    32    2
    56    31    30    1
    57    61    62    1
    58    21    20    1
    59    21    29   am
    60   107   106    1
    61    27    28   ar
    62    33    30    1
    63    33    34    1
    64   106   108    1
    65    23    20    1
    66    23    24    1
    67    86    84   ar
    68    24    26   ar
    69    83    81   ar
    70    30    29    1
    71    71    72    1
    72    71    70    1
    73    62    63    1
    74    28    26   ar
    75    72    73    2
    76    65    63   am
    77    65    66    1
    78    84    82   ar
    79    81    82   ar
    80    81    80    1
    81    70    69    1
    82    73    74    1
    83    73    75    1
    84    69    66    1
    85    63    64    2
    86    80    77    1
    87    66    67    1
    88    67    68    2
    89    76    77    1
    90    79    78    2
    91    77    78    1
    92    78    87   am
    93    87    88    1
    94    99    98   ar
    95    88    89    1
    96    88    91    1
    97    90    89    2
    98    89    93   am
    99    98   100   ar
   100    98    97    1
   101    93    94    1
   102    91    92    1
   103    94    97    1
   104    94    95    1
   105    95    96    2
