@<TRIPOS>MOLECULE
tmp/3q8iA00.pdb
 99 91 0 0 0
SMALL
GASTEIGER

@<TRIPOS>ATOM
      1  N         12.9630    1.7240   26.7580 N.3    47  ALA47      -0.1245
      2  CA        13.1510    0.7370   25.6690 C.3    47  ALA47       0.1562
      3  C         12.5780   -0.6440   26.0250 C.2    47  ALA47       0.2260
      4  O         12.0560   -1.3430   25.1610 O.2    47  ALA47      -0.2867
      5  CB        14.6570    0.6020   25.2900 C.3    47  ALA47       0.0290
      6  N          8.7600   -0.5500   25.7140 N.3    50  ILE50      -0.1231
      7  CA         8.3890   -0.6550   24.3190 C.3    50  ILE50       0.1692
      8  C          8.4880   -2.1290   23.8590 C.2    50  ILE50       0.2591
      9  O          7.5840   -2.6170   23.1970 O.2    50  ILE50      -0.2718
     10  CB         9.3010    0.2250   23.4250 C.3    50  ILE50       0.0266
     11  CG1        9.0620    1.7300   23.6640 C.3    50  ILE50       0.0019
     12  CG2        9.1440   -0.1840   21.9100 C.3    50  ILE50       0.0020
     13  CD1        7.6160    2.2500   23.4170 C.3    50  ILE50       0.0001
     14  N          9.5970   -2.8080   24.1660 N.am   51  ALA51      -0.1980
     15  CA         9.7550   -4.2150   23.8070 C.3    51  ALA51       0.1597
     16  C          8.6270   -5.0610   24.3870 C.2    51  ALA51       0.2287
     17  O          8.0980   -5.9510   23.7220 O.2    51  ALA51      -0.2864
     18  CB        11.1110   -4.7550   24.2970 C.3    51  ALA51       0.0319
     19  N          5.4680   -4.3490   22.4280 N.3    54  ALA54      -0.1245
     20  CA         5.4940   -5.1000   21.1610 C.3    54  ALA54       0.1562
     21  C          5.4160   -6.6240   21.3830 C.2    54  ALA54       0.2260
     22  O          5.3460   -7.3880   20.4250 O.2    54  ALA54      -0.2867
     23  CB         6.7100   -4.7360   20.3410 C.3    54  ALA54       0.0290
     24  N          7.6930   -8.6110   22.4340 N.3    56  THR56      -0.1218
     25  CA         8.9170   -9.2650   21.9810 C.3    56  THR56       0.1862
     26  C          9.8690   -9.5680   23.1240 C.2    56  THR56       0.2287
     27  O         10.8420  -10.3140   22.9510 O.2    56  THR56      -0.2866
     28  CB         9.7210   -8.4150   20.9650 C.3    56  THR56       0.1770
     29  OG1       10.1990   -7.2100   21.5920 O.3    56  THR56      -0.2211
     30  CG2        8.8950   -8.0790   19.7120 C.3    56  THR56       0.0375
     31  N         14.5630  -11.1740   25.1050 N.3    63  ILE63      -0.1245
     32  CA        14.0090  -10.7020   23.8400 C.3    63  ILE63       0.1561
     33  C         13.8530  -11.9020   22.9110 C.2    63  ILE63       0.2260
     34  O         14.8160  -12.5940   22.5860 O.2    63  ILE63      -0.2867
     35  CB        14.8980   -9.6330   23.1940 C.3    63  ILE63       0.0252
     36  CG1       14.9230   -8.3600   24.0500 C.3    63  ILE63       0.0019
     37  CG2       14.4390   -9.3060   21.7740 C.3    63  ILE63       0.0019
     38  CD1       16.1070   -7.4880   23.7300 C.3    63  ILE63       0.0001
     39  N         10.1950  -11.0740   17.4190 N.3    68  THR68      -0.1218
     40  CA        10.6850   -9.8600   16.7350 C.3    68  THR68       0.1862
     41  C         10.6390  -10.0300   15.2100 C.2    68  THR68       0.2287
     42  O         10.2240   -9.1060   14.4970 O.2    68  THR68      -0.2866
     43  CB        12.0950   -9.4380   17.2380 C.3    68  THR68       0.1770
     44  OG1       12.0650   -9.3410   18.6740 O.3    68  THR68      -0.2211
     45  CG2       12.5400   -8.0720   16.6090 C.3    68  THR68       0.0375
     46  N          7.0820   -9.5580   14.1800 N.3    71  GLN71      -0.1245
     47  CA         6.7180   -8.1240   14.2260 C.3    71  GLN71       0.1566
     48  C          7.2420   -7.4290   12.9870 C.2    71  GLN71       0.2260
     49  O          6.5330   -6.6050   12.3830 O.2    71  GLN71      -0.2867
     50  CB         7.2790   -7.4140   15.4680 C.3    71  GLN71       0.0367
     51  CG         6.4920   -7.6570   16.7430 C.3    71  GLN71       0.0905
     52  CD         5.0040   -7.3800   16.5490 C.2    71  GLN71       0.2608
     53  OE1        4.5940   -6.3170   16.0430 O.2    71  GLN71      -0.2717
     54  NE2        4.1850   -8.3530   16.9310 N.am   71  GLN71      -0.0878
     55  N         17.1220   -4.7030   26.4270 N.3   105  ALA105     -0.1245
     56  CA        16.2470   -4.0670   25.4550 C.3   105  ALA105      0.1562
     57  C         16.9580   -2.8830   24.7790 C.2   105  ALA105      0.2260
     58  O         17.0090   -2.7770   23.5450 O.2   105  ALA105     -0.2867
     59  CB        14.9250   -3.5950   26.1590 C.3   105  ALA105      0.0290
     60  N         20.2250   -3.9220   22.7250 N.3   108  SER108     -0.1202
     61  CA        19.8510   -4.6860   21.5180 C.3   108  SER108      0.2020
     62  C         19.3300   -3.7460   20.4150 C.2   108  SER108      0.2618
     63  O         19.6740   -3.8970   19.2430 O.2   108  SER108     -0.2717
     64  CB        18.8030   -5.7830   21.8350 C.3   108  SER108      0.2103
     65  OG        19.3770   -6.7590   22.7070 O.3   108  SER108     -0.2182
     66  N         18.5070   -2.7740   20.8040 N.am  109  ALA109     -0.1979
     67  CA        17.9770   -1.7480   19.8840 C.3   109  ALA109      0.1597
     68  C         19.1080   -0.8720   19.3890 C.2   109  ALA109      0.2287
     69  O         19.2140   -0.6260   18.1910 O.2   109  ALA109     -0.2864
     70  CB        16.9370   -0.8860   20.5870 C.3   109  ALA109      0.0319
     71  N         16.7260    1.7310   10.4890 N.3   120  PHE120     -0.1241
     72  CA        16.1430    1.4420   11.8020 C.3   120  PHE120      0.1605
     73  C         15.2910    2.6090   12.2720 C.2   120  PHE120      0.2264
     74  O         15.6560    3.7850   12.0910 O.2   120  PHE120     -0.2867
     75  CB        17.2400    1.1910   12.8450 C.3   120  PHE120      0.0534
     76  CG        16.7380    0.5660   14.1400 C.ar  120  PHE120     -0.0203
     77  CD1       16.8460    1.2500   15.3440 C.ar  120  PHE120     -0.0042
     78  CD2       16.1470   -0.7050   14.1430 C.ar  120  PHE120     -0.0042
     79  CE1       16.3860    0.6860   16.5490 C.ar  120  PHE120     -0.0003
     80  CE2       15.6930   -1.2950   15.3500 C.ar  120  PHE120     -0.0003
     81  CZ        15.8100   -0.5870   16.5540 C.ar  120  PHE120     -0.0000
     82  N         12.7520    3.5210   15.8830 N.3   122  PHE122     -0.1228
     83  CA        12.3250    3.0230   17.2110 C.3   122  PHE122      0.1721
     84  C         11.1710    3.8820   17.7000 C.2   122  PHE122      0.2437
     85  O         11.1420    5.0900   17.4120 O.2   122  PHE122     -0.2733
     86  CB        13.4880    3.0340   18.2140 C.3   122  PHE122      0.0547
     87  CG        13.2290    2.2430   19.4680 C.ar  122  PHE122     -0.0202
     88  CD1       13.4240    0.8520   19.4830 C.ar  122  PHE122     -0.0042
     89  CD2       12.8300    2.8790   20.6320 C.ar  122  PHE122     -0.0042
     90  CE1       13.2180    0.1260   20.6430 C.ar  122  PHE122     -0.0003
     91  CE2       12.6060    2.1700   21.8150 C.ar  122  PHE122     -0.0003
     92  CZ        12.8060    0.7700   21.8190 C.ar  122  PHE122     -0.0000
     93  N         10.1970    3.2760   18.4080 N.am  123  PRO123     -0.2729
     94  CA         9.0690    4.0980   18.8600 C.3   123  PRO123      0.1401
     95  C          9.4880    5.2810   19.7570 C.2   123  PRO123      0.2269
     96  O          8.9270    6.3710   19.5920 O.2   123  PRO123     -0.2865
     97  CB         8.2110    3.1030   19.6590 C.3   123  PRO123      0.0296
     98  CG         8.4320    1.8130   18.9560 C.3   123  PRO123      0.0237
     99  CD         9.9310    1.8360   18.6270 C.3   123  PRO123      0.0939
@<TRIPOS>BOND
     1    71    72    1
     2    72    73    1
     3    72    75    1
     4    74    73    2
     5    49    48    2
     6    75    76    1
     7    48    47    1
     8    76    78   ar
     9    76    77   ar
    10    78    80   ar
    11    46    47    1
    12    47    50    1
    13    42    41    2
    14    41    40    1
    15    77    79   ar
    16    80    81   ar
    17    50    51    1
    18    82    83    1
    19    53    52    2
    20    52    51    1
    21    52    54   am
    22    79    81   ar
    23    45    43    1
    24    40    43    1
    25    40    39    1
    26    83    84    1
    27    83    86    1
    28    43    44    1
    29    85    84    2
    30    84    93   am
    31    69    68    2
    32    86    87    1
    33    93    99    1
    34    93    94    1
    35    99    98    1
    36    94    97    1
    37    94    95    1
    38    98    97    1
    39    63    62    2
    40    68    67    1
    41    87    88   ar
    42    87    89   ar
    43    88    90   ar
    44    96    95    2
    45    30    28    1
    46    67    70    1
    47    67    66    1
    48    23    20    1
    49    62    66   am
    50    62    61    1
    51    22    21    2
    52    89    91   ar
    53    90    92   ar
    54    28    29    1
    55    28    25    1
    56    20    21    1
    57    20    19    1
    58    61    64    1
    59    61    60    1
    60    37    35    1
    61    91    92   ar
    62    64    65    1
    63    12    10    1
    64    25    24    1
    65    25    26    1
    66    34    33    2
    67    33    32    1
    68    27    26    2
    69    35    32    1
    70    35    36    1
    71     9     8    2
    72    13    11    1
    73    10    11    1
    74    10     7    1
    75    58    57    2
    76    17    16    2
    77    38    36    1
    78    15    14    1
    79    15    18    1
    80    15    16    1
    81    32    31    1
    82     8    14   am
    83     8     7    1
    84     7     6    1
    85    57    56    1
    86     4     3    2
    87     5     2    1
    88    56    59    1
    89    56    55    1
    90     2     3    1
    91     2     1    1
