@<TRIPOS>MOLECULE
tmp/3q8nC01.pdb
 99 95 0 0 0
SMALL
GASTEIGER

@<TRIPOS>ATOM
      1  N         18.3630   57.8520  -32.0180 N.3   123  SER123     -0.1202
      2  CA        19.6220   58.6440  -31.9950 C.3   123  SER123      0.2020
      3  C         20.7840   57.8730  -31.3870 C.2   123  SER123      0.2619
      4  O         20.5640   56.8970  -30.6580 O.2   123  SER123     -0.2717
      5  CB        19.4400   59.9270  -31.1930 C.3   123  SER123      0.2103
      6  OG        19.2860   59.6350  -29.8180 O.3   123  SER123     -0.2182
      7  N         22.0120   58.3220  -31.6770 N.am  124  GLY124     -0.1942
      8  CA        23.2130   57.7680  -31.0600 C.3   124  GLY124      0.2014
      9  C         23.1480   57.7610  -29.5270 C.2   124  GLY124      0.2638
     10  O         23.4550   56.7590  -28.9110 O.2   124  GLY124     -0.2714
     11  N         22.7620   58.8900  -28.9210 N.am  125  ALA125     -0.1977
     12  CA        22.5950   58.9860  -27.4480 C.3   125  ALA125      0.1597
     13  C         21.6700   57.8920  -26.9480 C.2   125  ALA125      0.2287
     14  O         21.9920   57.1910  -25.9770 O.2   125  ALA125     -0.2864
     15  CB        22.0410   60.3520  -27.0420 C.3   125  ALA125      0.0319
     16  N         33.0330   61.4500  -26.2000 N.3   151  TYR151     -0.1227
     17  CA        31.7790   62.0950  -26.4540 C.3   151  TYR151      0.1736
     18  C         30.7760   60.9730  -26.7660 C.2   151  TYR151      0.2595
     19  O         31.0450   60.1230  -27.6280 O.2   151  TYR151     -0.2718
     20  CB        31.8930   63.0840  -27.6180 C.3   151  TYR151      0.0548
     21  CG        30.5750   63.7390  -27.9300 C.ar  151  TYR151     -0.0200
     22  CD1       30.1400   64.8310  -27.1970 C.ar  151  TYR151     -0.0009
     23  CD2       29.7430   63.2430  -28.9140 C.ar  151  TYR151     -0.0009
     24  CE1       28.8910   65.4250  -27.4330 C.ar  151  TYR151      0.0417
     25  CE2       28.5000   63.8170  -29.1630 C.ar  151  TYR151      0.0417
     26  CZ        28.0850   64.9340  -28.4230 C.ar  151  TYR151      0.1957
     27  OH        26.8740   65.5520  -28.6660 O.3   151  TYR151     -0.2866
     28  N         29.6390   60.9670  -26.0540 N.am  152  HIS152     -0.1961
     29  CA        28.5790   59.9720  -26.2550 C.3   152  HIS152      0.1787
     30  C         27.1560   60.5230  -26.4910 C.2   152  HIS152      0.2621
     31  O         26.2380   59.7420  -26.7540 O.2   152  HIS152     -0.2715
     32  CB        28.5900   59.0290  -25.0570 C.3   152  HIS152      0.0785
     33  CG        29.8300   58.2200  -24.9850 C.ar  152  HIS152      0.0821
     34  ND1       30.2090   57.3770  -26.0090 N.ar  152  HIS152     -0.2267
     35  CD2       30.8190   58.1760  -24.0680 C.ar  152  HIS152      0.1154
     36  CE1       31.3810   56.8300  -25.7130 C.ar  152  HIS152      0.1986
     37  NE2       31.7880   57.3220  -24.5530 N.ar  152  HIS152     -0.2212
     38  N         26.9670   61.8370  -26.3710 N.am  153  GLY153     -0.1940
     39  CA        25.6570   62.4620  -26.6040 C.3   153  GLY153      0.2014
     40  C         25.2010   63.5040  -25.6030 C.2   153  GLY153      0.2638
     41  O         25.9220   63.8480  -24.6950 O.2   153  GLY153     -0.2714
     42  N         23.9500   63.9510  -25.7560 N.am  154  ARG154     -0.1977
     43  CA        23.4060   65.1440  -25.0840 C.3   154  ARG154      0.1597
     44  C         22.3260   64.8860  -24.0140 C.2   154  ARG154      0.2287
     45  O         21.7330   65.8710  -23.4900 O.2   154  ARG154     -0.2864
     46  CB        22.7340   66.0280  -26.1380 C.3   154  ARG154      0.0334
     47  CG        23.6220   66.3740  -27.3560 C.3   154  ARG154      0.0492
     48  CD        24.6620   67.3500  -27.0210 C.3   154  ARG154      0.2205
     49  NE        25.1570   68.0760  -28.2150 N.pl3 154  ARG154     -0.0865
     50  CZ        25.5130   69.3730  -28.2270 C.cat 154  ARG154      0.5346
     51  NH1       25.3750   70.1380  -27.1500 N.pl3 154  ARG154      0.1354
     52  NH2       25.9850   69.9240  -29.3420 N.pl3 154  ARG154      0.1354
     53  N         34.4670   63.6810  -31.6010 N.3   226  GLU226     -0.1245
     54  CA        34.3730   65.0560  -31.1510 C.3   226  GLU226      0.1567
     55  C         35.6250   65.4490  -30.3800 C.2   226  GLU226      0.2260
     56  O         36.0070   66.6260  -30.3690 O.2   226  GLU226     -0.2867
     57  CB        33.1320   65.2560  -30.2730 C.3   226  GLU226      0.0388
     58  CG        31.8050   64.8940  -30.9610 C.3   226  GLU226      0.1160
     59  CD        31.6370   65.5440  -32.3520 C.2   226  GLU226      0.3649
     60  OE1       31.7280   66.7990  -32.4370 O.co2 226  GLU226     -0.2457
     61  OE2       31.4190   64.7880  -33.3480 O.co2 226  GLU226     -0.2457
     62  N         31.5820   52.0590  -28.9950 N.3   254  ASP254     -0.1239
     63  CA        30.7270   53.1460  -29.5160 C.3   254  ASP254      0.1674
     64  C         31.1920   53.5440  -30.9200 C.2   254  ASP254      0.2266
     65  O         32.0730   54.3970  -31.0620 O.2   254  ASP254     -0.2867
     66  CB        30.7670   54.4050  -28.6030 C.3   254  ASP254      0.1410
     67  CG        29.7850   55.5550  -29.0890 C.2   254  ASP254      0.3668
     68  OD1       29.2390   55.4740  -30.2210 O.co2 254  ASP254     -0.2456
     69  OD2       29.5460   56.5380  -28.3360 O.co2 254  ASP254     -0.2456
     70  N         29.1190   54.8480  -33.2900 N.3   256  VAL256     -0.1231
     71  CA        28.1850   55.8360  -33.8130 C.3   256  VAL256      0.1692
     72  C         28.8240   56.6400  -34.9490 C.2   256  VAL256      0.2591
     73  O         28.2180   56.7160  -35.9890 O.2   256  VAL256     -0.2718
     74  CB        27.6110   56.7440  -32.7050 C.3   256  VAL256      0.0266
     75  CG1       27.0160   58.0130  -33.2790 C.3   256  VAL256      0.0020
     76  CG2       26.5150   55.9710  -31.8750 C.3   256  VAL256      0.0020
     77  N         30.0260   57.2030  -34.7630 N.am  257  GLN257     -0.1979
     78  CA        30.7060   57.9410  -35.8420 C.3   257  GLN257      0.1601
     79  C         31.5370   57.0270  -36.7610 C.2   257  GLN257      0.2287
     80  O         31.5340   57.1810  -37.9930 O.2   257  GLN257     -0.2864
     81  CB        31.5790   59.0520  -35.2580 C.3   257  GLN257      0.0394
     82  CG        31.8030   60.2170  -36.1840 C.3   257  GLN257      0.0908
     83  CD        32.2210   61.5060  -35.4530 C.2   257  GLN257      0.2608
     84  OE1       31.7950   61.7760  -34.3300 O.2   257  GLN257     -0.2717
     85  NE2       33.0610   62.3080  -36.1060 N.am  257  GLN257     -0.0878
     86  N         24.9760   54.0990  -35.5700 N.3   282  ALA282     -0.1231
     87  CA        24.0530   55.1840  -35.8490 C.3   282  ALA282      0.1694
     88  C         24.5800   55.9380  -37.0520 C.2   282  ALA282      0.2591
     89  O         25.3590   55.3860  -37.8330 O.2   282  ALA282     -0.2718
     90  CB        23.8980   56.1140  -34.6100 C.3   282  ALA282      0.0304
     91  N         24.1400   57.1860  -37.1820 N.am  283  LYS283     -0.1980
     92  CA        24.6450   58.1300  -38.1660 C.3   283  LYS283      0.1596
     93  C         24.5950   57.5750  -39.5830 C.2   283  LYS283      0.2287
     94  O         23.5730   57.6960  -40.2360 O.2   283  LYS283     -0.2864
     95  CB        26.0320   58.5980  -37.7760 C.3   283  LYS283      0.0298
     96  CG        26.0090   59.4140  -36.4720 C.3   283  LYS283      0.0038
     97  CD        27.1290   60.4250  -36.5040 C.3   283  LYS283      0.0206
     98  CE        27.2210   61.3050  -35.2720 C.3   283  LYS283      0.1093
     99  NZ        27.8350   62.6000  -35.6480 N.3   283  LYS283     -0.1314
@<TRIPOS>BOND
     1    94    93    2
     2    93    92    1
     3    92    95    1
     4    92    91    1
     5    80    79    2
     6    89    88    2
     7    95    96    1
     8    91    88   am
     9    88    87    1
    10    79    78    1
    11    97    96    1
    12    97    98    1
    13    82    83    1
    14    82    81    1
    15    85    83   am
    16    73    72    2
    17    87    86    1
    18    87    90    1
    19    78    81    1
    20    78    77    1
    21    99    98    1
    22    83    84    2
    23    72    77   am
    24    72    71    1
    25    71    70    1
    26    71    74    1
    27    61    59   ar
    28    75    74    1
    29    74    76    1
    30    60    59   ar
    31    59    58    1
    32     1     2    1
    33     2     3    1
    34     2     5    1
    35     7     3   am
    36     7     8    1
    37    53    54    1
    38     3     4    2
    39     5     6    1
    40    54    55    1
    41    54    57    1
    42    65    64    2
    43     8     9    1
    44    58    57    1
    45    64    63    1
    46    55    56    2
    47    68    67   ar
    48     9    11   am
    49     9    10    2
    50    63    62    1
    51    63    66    1
    52    52    50    1
    53    25    23   ar
    54    25    26   ar
    55    67    66    1
    56    67    69   ar
    57    11    12    1
    58    23    21   ar
    59    27    26    1
    60    26    24   ar
    61    50    49    2
    62    50    51    1
    63    49    48    1
    64    21    20    1
    65    21    22   ar
    66    19    18    2
    67    20    17    1
    68    12    15    1
    69    12    13    1
    70    24    22   ar
    71    47    48    1
    72    47    46    1
    73    13    14    2
    74    18    17    1
    75    18    28   am
    76    31    30    2
    77    39    38    1
    78    39    40    1
    79    30    38   am
    80    30    29    1
    81    17    16    1
    82    29    28    1
    83    29    32    1
    84    46    43    1
    85    34    36   ar
    86    34    33   ar
    87    42    40   am
    88    42    43    1
    89    36    37   ar
    90    40    41    2
    91    43    44    1
    92    32    33    1
    93    33    35   ar
    94    37    35   ar
    95    44    45    2
