@<TRIPOS>MOLECULE
tmp/3q8uF00.pdb
 118 111 0 0 0
SMALL
GASTEIGER

@<TRIPOS>ATOM
      1  N         19.9780   57.6420  -11.2750 N.3     9  LYS9       -0.1245
      2  CA        20.4840   58.5610  -10.2830 C.3     9  LYS9        0.1561
      3  C         19.9360   58.2230   -8.8630 C.2     9  LYS9        0.2260
      4  O         19.0240   57.3910   -8.7150 O.2     9  LYS9       -0.2867
      5  CB        20.1220   59.9690  -10.6870 C.3     9  LYS9        0.0271
      6  CG        20.8790   60.5200  -11.8960 C.3     9  LYS9        0.0035
      7  CD        20.4240   61.9300  -12.2070 C.3     9  LYS9        0.0206
      8  CE        21.2790   62.5520  -13.3280 C.3     9  LYS9        0.1093
      9  NZ        20.7720   63.8810  -13.6780 N.3     9  LYS9       -0.1314
     10  N         31.1180   65.5680  -13.6880 N.3    49  TYR49      -0.1241
     11  CA        30.2930   66.7350  -13.9380 C.3    49  TYR49       0.1605
     12  C         31.1440   68.0150  -14.0130 C.2    49  TYR49       0.2264
     13  O         30.6290   69.1080  -13.7940 O.2    49  TYR49      -0.2867
     14  CB        29.1810   66.8710  -12.8570 C.3    49  TYR49       0.0534
     15  CG        27.9260   65.9980  -13.0560 C.ar   49  TYR49      -0.0201
     16  CD1       27.2100   66.0660  -14.2500 C.ar   49  TYR49      -0.0009
     17  CD2       27.4350   65.1550  -12.0380 C.ar   49  TYR49      -0.0009
     18  CE1       26.0980   65.3270  -14.4660 C.ar   49  TYR49       0.0417
     19  CE2       26.2720   64.3930  -12.2410 C.ar   49  TYR49       0.0417
     20  CZ        25.6010   64.4930  -13.4660 C.ar   49  TYR49       0.1957
     21  OH        24.4490   63.7700  -13.7690 O.3    49  TYR49      -0.2866
     22  N         32.3900   69.8670  -16.4600 N.3    51  GLU51      -0.1231
     23  CA        31.8270   70.8410  -17.3930 C.3    51  GLU51       0.1699
     24  C         30.8420   71.8450  -16.7640 C.2    51  GLU51       0.2592
     25  O         30.6440   72.9590  -17.2860 O.2    51  GLU51      -0.2718
     26  CB        31.1770   70.1170  -18.5930 C.3    51  GLU51       0.0402
     27  CG        29.6640   69.8440  -18.4860 C.3    51  GLU51       0.1161
     28  CD        29.0660   69.2390  -19.7750 C.2    51  GLU51       0.3649
     29  OE1       28.3230   69.9450  -20.5320 O.co2  51  GLU51      -0.2457
     30  OE2       29.3370   68.0380  -20.0170 O.co2  51  GLU51      -0.2457
     31  N         30.2560   71.4590  -15.6290 N.am   52  HIS52      -0.1976
     32  CA        29.3360   72.3420  -14.8990 C.3    52  HIS52       0.1656
     33  C         29.9980   72.9900  -13.6710 C.2    52  HIS52       0.2291
     34  O         29.2930   73.6330  -12.8750 O.2    52  HIS52      -0.2864
     35  CB        28.0490   71.5840  -14.5020 C.3    52  HIS52       0.0771
     36  CG        27.4130   70.8160  -15.6320 C.ar   52  HIS52       0.0820
     37  ND1       26.9120   71.4260  -16.7720 N.ar   52  HIS52      -0.2267
     38  CD2       27.1730   69.4870  -15.7820 C.ar   52  HIS52       0.1154
     39  CE1       26.4180   70.5010  -17.5850 C.ar   52  HIS52       0.1986
     40  NE2       26.5710   69.3170  -17.0090 N.ar   52  HIS52      -0.2212
     41  N         23.8290   75.5380   -9.9110 N.3    57  PHE57      -0.1241
     42  CA        23.3170   74.3170   -9.3920 C.3    57  PHE57       0.1605
     43  C         24.4300   73.2930   -9.1630 C.2    57  PHE57       0.2264
     44  O         24.1830   72.2190   -8.6070 O.2    57  PHE57      -0.2867
     45  CB        22.2710   73.7840  -10.3680 C.3    57  PHE57       0.0534
     46  CG        22.8020   73.5500  -11.7690 C.ar   57  PHE57      -0.0203
     47  CD1       23.5330   72.4030  -12.0760 C.ar   57  PHE57      -0.0042
     48  CD2       22.5620   74.4730  -12.7870 C.ar   57  PHE57      -0.0042
     49  CE1       24.0010   72.1870  -13.3610 C.ar   57  PHE57      -0.0003
     50  CE2       23.0330   74.2490  -14.0860 C.ar   57  PHE57      -0.0003
     51  CZ        23.7360   73.1050  -14.3570 C.ar   57  PHE57      -0.0000
     52  N         24.0900   69.7610   -7.3450 N.3    61  LEU61      -0.1245
     53  CA        24.3710   68.6420   -8.2600 C.3    61  LEU61       0.1561
     54  C         25.3360   67.5960   -7.6790 C.2    61  LEU61       0.2260
     55  O         25.0530   66.3840   -7.7060 O.2    61  LEU61      -0.2867
     56  CB        24.9560   69.1350   -9.5910 C.3    61  LEU61       0.0270
     57  CG        24.4980   68.4390  -10.8900 C.3    61  LEU61       0.0019
     58  CD1       25.5940   68.5170  -11.9630 C.3    61  LEU61       0.0001
     59  CD2       24.0160   67.0140  -10.7580 C.3    61  LEU61       0.0001
     60  N         16.3900   67.4960  -20.3170 N.3    91  THR91      -0.1218
     61  CA        16.8930   67.7660  -18.9500 C.3    91  THR91       0.1862
     62  C         15.8350   68.1320  -17.9290 C.2    91  THR91       0.2287
     63  O         15.8190   67.5560  -16.8270 O.2    91  THR91      -0.2866
     64  CB        17.8920   68.9080  -18.9950 C.3    91  THR91       0.1770
     65  OG1       18.8320   68.6170  -20.0240 O.3    91  THR91      -0.2211
     66  CG2       18.6480   69.0360  -17.6590 C.3    91  THR91       0.0375
     67  N         12.3760   60.9570  -18.2580 N.3   102  ARG102     -0.1245
     68  CA        12.2470   62.1340  -17.3790 C.3   102  ARG102      0.1563
     69  C         10.8230   62.7190  -17.4460 C.2   102  ARG102      0.2260
     70  O         10.2730   63.1910  -16.4410 O.2   102  ARG102     -0.2867
     71  CB        13.3710   63.1600  -17.6280 C.3   102  ARG102      0.0307
     72  CG        14.7390   62.4810  -17.6610 C.3   102  ARG102      0.0489
     73  CD        16.0290   63.2640  -17.2220 C.3   102  ARG102      0.2205
     74  NE        16.6920   63.8470  -18.3440 N.pl3 102  ARG102     -0.0865
     75  CZ        18.0040   64.0740  -18.5360 C.cat 102  ARG102      0.5346
     76  NH1       18.3110   64.6550  -19.6870 N.pl3 102  ARG102      0.1354
     77  NH2       18.9940   63.7430  -17.6740 N.pl3 102  ARG102      0.1354
     78  N         14.0660   69.7230  -12.5130 N.3   109  VAL109     -0.1231
     79  CA        15.2690   69.6180  -13.2900 C.3   109  VAL109      0.1692
     80  C         16.4320   69.0280  -12.4920 C.2   109  VAL109      0.2592
     81  O         17.2280   68.2900  -13.0390 O.2   109  VAL109     -0.2718
     82  CB        15.5740   70.9720  -13.9950 C.3   109  VAL109      0.0266
     83  CG1       15.6780   72.1490  -12.9900 C.3   109  VAL109      0.0020
     84  CG2       16.7950   70.8440  -14.9090 C.3   109  VAL109      0.0020
     85  N         16.5170   69.2960  -11.1840 N.am  110  GLY110     -0.1957
     86  CA        17.6340   68.7910  -10.3710 C.3   110  GLY110      0.1869
     87  C         17.5440   67.3150   -9.9490 C.2   110  GLY110      0.2309
     88  O         18.5530   66.7160   -9.4870 O.2   110  GLY110     -0.2863
     89  N         16.1320   64.3140  -11.9370 N.3   112  ASN112     -0.1240
     90  CA        15.5730   63.9150  -13.2030 C.3   112  ASN112      0.1653
     91  C         16.0580   62.5110  -13.5480 C.2   112  ASN112      0.2266
     92  O         16.3920   62.2180  -14.7140 O.2   112  ASN112     -0.2867
     93  CB        15.9560   64.9550  -14.3030 C.3   112  ASN112      0.1155
     94  CG        17.4920   65.0970  -14.4930 C.2   112  ASN112      0.2627
     95  OD1       18.2720   64.4530  -13.8280 O.2   112  ASN112     -0.2716
     96  ND2       17.9010   65.9440  -15.4200 N.am  112  ASN112     -0.0877
     97  N         21.0380   59.8870  -15.9830 N.3   115  HIS115     -0.1226
     98  CA        22.0110   60.5900  -16.7810 C.3   115  HIS115      0.1752
     99  C         22.2530   59.7360  -18.0360 C.2   115  HIS115      0.2596
    100  O         22.3330   58.4940  -17.9390 O.2   115  HIS115     -0.2718
    101  CB        23.3280   60.6810  -16.0010 C.3   115  HIS115      0.0759
    102  CG        24.4810   61.1160  -16.8500 C.ar  115  HIS115      0.0818
    103  ND1       24.7270   62.4440  -17.1450 N.ar  115  HIS115     -0.2268
    104  CD2       25.3960   60.3980  -17.5460 C.ar  115  HIS115      0.1154
    105  CE1       25.7790   62.5260  -17.9390 C.ar  115  HIS115      0.1986
    106  NE2       26.2120   61.2980  -18.1850 N.ar  115  HIS115     -0.2212
    107  N         22.4320   60.3850  -19.1940 N.am  116  GLY116     -0.1957
    108  CA        22.9850   59.6990  -20.3570 C.3   116  GLY116      0.1869
    109  C         24.0490   60.5350  -21.0490 C.2   116  GLY116      0.2309
    110  O         23.9590   61.7560  -21.0590 O.2   116  GLY116     -0.2863
    111  N         26.0820   62.7240  -23.6180 N.3   118  ASP118     -0.1239
    112  CA        25.5020   63.6850  -24.5460 C.3   118  ASP118      0.1674
    113  C         26.0240   63.5520  -25.9770 C.2   118  ASP118      0.2266
    114  O         25.5420   64.2350  -26.8430 O.2   118  ASP118     -0.2867
    115  CB        25.6310   65.1680  -24.0510 C.3   118  ASP118      0.1410
    116  CG        27.1260   65.6240  -23.9160 C.2   118  ASP118      0.3668
    117  OD1       27.3940   66.5120  -23.0930 O.co2 118  ASP118     -0.2456
    118  OD2       28.0470   65.0280  -24.5740 O.co2 118  ASP118     -0.2456
@<TRIPOS>BOND
     1   114   113    2
     2   113   112    1
     3   118   116   ar
     4   112   115    1
     5   112   111    1
     6   115   116    1
     7   116   117   ar
     8   110   109    2
     9   109   108    1
    10    29    28   ar
    11   108   107    1
    12    60    61    1
    13    65    64    1
    14    30    28   ar
    15    28    27    1
    16    76    75    1
    17   107    99   am
    18    64    61    1
    19    64    66    1
    20    61    62    1
    21    26    27    1
    22    26    23    1
    23    75    74    2
    24    75    77    1
    25    74    73    1
    26    67    68    1
    27   106   105   ar
    28   106   104   ar
    29    99   100    2
    30    99    98    1
    31   105   103   ar
    32    62    63    2
    33    72    71    1
    34    72    73    1
    35    71    68    1
    36    39    40   ar
    37    39    37   ar
    38   104   102   ar
    39    69    68    1
    40    69    70    2
    41    23    24    1
    42    23    22    1
    43    25    24    2
    44   103   102   ar
    45    40    38   ar
    46   102   101    1
    47    98   101    1
    48    98    97    1
    49    37    36   ar
    50    24    31   am
    51    38    36   ar
    52    36    35    1
    53    31    32    1
    54    96    94   am
    55    84    82    1
    56    32    35    1
    57    32    33    1
    58    92    91    2
    59    94    93    1
    60    94    95    2
    61    18    16   ar
    62    18    20   ar
    63    51    50   ar
    64    51    49   ar
    65    93    90    1
    66    16    15   ar
    67    50    48   ar
    68    12    11    1
    69    12    13    2
    70    82    79    1
    71    82    83    1
    72    11    10    1
    73    11    14    1
    74    21    20    1
    75     9     8    1
    76    33    34    2
    77    91    90    1
    78    20    19   ar
    79    49    47   ar
    80     8     7    1
    81    79    78    1
    82    79    80    1
    83    90    89    1
    84    15    14    1
    85    15    17   ar
    86    81    80    2
    87    48    46   ar
    88    80    85   am
    89    19    17   ar
    90     7     6    1
    91    47    46   ar
    92    58    57    1
    93     6     5    1
    94    46    45    1
    95     1     2    1
    96    85    86    1
    97    57    59    1
    98    57    56    1
    99     5     2    1
   100    86    87    1
   101    45    42    1
   102     2     3    1
   103    87    88    2
   104    41    42    1
   105    56    53    1
   106    42    43    1
   107    43    44    2
   108     3     4    2
   109    53    54    1
   110    53    52    1
   111    55    54    2
