@<TRIPOS>MOLECULE
tmp/3q8wA00.pdb
 210 207 0 0 0
SMALL
GASTEIGER

@<TRIPOS>ATOM
      1  N        -21.6730   -1.9290   34.4740 N.3    87  ARG87      -0.1231
      2  CA       -20.7090   -2.4230   35.4720 C.3    87  ARG87       0.1694
      3  C        -19.5580   -1.4100   35.7780 C.2    87  ARG87       0.2592
      4  O        -19.3010   -1.0720   36.9520 O.2    87  ARG87      -0.2718
      5  CB       -20.1430   -3.7910   34.9810 C.3    87  ARG87       0.0321
      6  CG       -19.3430   -4.6420   35.9940 C.3    87  ARG87       0.0489
      7  CD       -20.2170   -5.4930   36.9060 C.3    87  ARG87       0.2205
      8  NE       -20.2850   -6.8930   36.4940 N.pl3  87  ARG87      -0.0865
      9  CZ       -20.7310   -7.8740   37.2780 C.cat  87  ARG87       0.5346
     10  NH1      -21.1470   -7.6170   38.5080 N.pl3  87  ARG87       0.1354
     11  NH2      -20.7450   -9.1270   36.8460 N.pl3  87  ARG87       0.1354
     12  N        -18.8850   -0.9260   34.7260 N.am   88  HIS88      -0.1976
     13  CA       -17.7630    0.0160   34.8840 C.3    88  HIS88       0.1656
     14  C        -18.0130    1.3610   34.1870 C.2    88  HIS88       0.2291
     15  O        -17.2730    2.3350   34.4030 O.2    88  HIS88      -0.2864
     16  CB       -16.4490   -0.5740   34.3170 C.3    88  HIS88       0.0771
     17  CG       -16.3130   -2.0620   34.4640 C.ar   88  HIS88       0.0820
     18  ND1      -17.0670   -2.9580   33.7370 N.ar   88  HIS88      -0.2267
     19  CD2      -15.4940   -2.8100   35.2420 C.ar   88  HIS88       0.1154
     20  CE1      -16.7230   -4.1910   34.0610 C.ar   88  HIS88       0.1986
     21  NE2      -15.7700   -4.1310   34.9720 N.ar   88  HIS88      -0.2212
     22  N        -18.9160   -5.7350   29.8530 N.3   167  GLU167     -0.1231
     23  CA       -19.0870   -6.8350   30.7810 C.3   167  GLU167      0.1699
     24  C        -18.2410   -8.0900   30.5680 C.2   167  GLU167      0.2592
     25  O        -17.5720   -8.5360   31.5040 O.2   167  GLU167     -0.2718
     26  CB       -20.5720   -7.2270   30.8300 C.3   167  GLU167      0.0402
     27  CG       -20.8950   -8.3650   31.7930 C.3   167  GLU167      0.1161
     28  CD       -21.0220   -7.9200   33.2300 C.2   167  GLU167      0.3649
     29  OE1      -20.7590   -6.7370   33.5310 O.co2 167  GLU167     -0.2457
     30  OE2      -21.3890   -8.7670   34.0610 O.co2 167  GLU167     -0.2457
     31  N        -18.2560   -8.6390   29.3480 N.am  168  GLU168     -0.1966
     32  CA       -17.5620   -9.9050   29.0460 C.3   168  GLU168      0.1733
     33  C        -16.0920   -9.9580   28.6360 C.2   168  GLU168      0.2616
     34  O        -15.4160  -10.9550   28.9210 O.2   168  GLU168     -0.2715
     35  CB       -18.3450  -10.7150   27.9850 C.3   168  GLU168      0.0429
     36  CG       -19.8060  -11.0590   28.3080 C.3   168  GLU168      0.1163
     37  CD       -20.0450  -11.4640   29.7700 C.2   168  GLU168      0.3649
     38  OE1      -19.2030  -12.1830   30.3680 O.co2 168  GLU168     -0.2457
     39  OE2      -21.0990  -11.0680   30.3160 O.co2 168  GLU168     -0.2457
     40  N        -15.5930   -8.9220   27.9710 N.am  169  VAL169     -0.1977
     41  CA       -14.2070   -8.9470   27.5100 C.3   169  VAL169      0.1596
     42  C        -13.1920   -8.0460   28.2270 C.2   169  VAL169      0.2287
     43  O        -12.2050   -8.5370   28.7820 O.2   169  VAL169     -0.2864
     44  CB       -14.1580   -8.7020   25.9590 C.3   169  VAL169      0.0276
     45  CG1      -15.0480   -7.5340   25.5830 C.3   169  VAL169      0.0022
     46  CG2      -12.7340   -8.4480   25.4990 C.3   169  VAL169      0.0022
     47  N        -14.0110   -5.6170   30.7360 N.3   171  SER171     -0.1217
     48  CA       -14.3670   -5.3080   32.1160 C.3   171  SER171      0.1889
     49  C        -13.9140   -3.8620   32.4120 C.2   171  SER171      0.2288
     50  O        -13.2630   -3.5840   33.4140 O.2   171  SER171     -0.2866
     51  CB       -13.7080   -6.3190   33.0660 C.3   171  SER171      0.2089
     52  OG       -14.1580   -7.6430   32.7960 O.3   171  SER171     -0.2183
     53  N        -11.0370  -15.9810   30.9730 N.3   319  PHE319     -0.1241
     54  CA       -12.2180  -15.2150   30.5630 C.3   319  PHE319      0.1605
     55  C        -11.8000  -14.3290   29.3750 C.2   319  PHE319      0.2264
     56  O        -12.5540  -13.4560   28.9330 O.2   319  PHE319     -0.2867
     57  CB       -12.7370  -14.3380   31.7170 C.3   319  PHE319      0.0534
     58  CG       -13.3940  -15.1040   32.8420 C.ar  319  PHE319     -0.0203
     59  CD1      -14.5040  -15.9120   32.6040 C.ar  319  PHE319     -0.0042
     60  CD2      -12.9400  -14.9580   34.1570 C.ar  319  PHE319     -0.0042
     61  CE1      -15.1500  -16.5530   33.6510 C.ar  319  PHE319     -0.0003
     62  CE2      -13.5780  -15.5920   35.2080 C.ar  319  PHE319     -0.0003
     63  CZ       -14.6860  -16.3910   34.9550 C.ar  319  PHE319     -0.0000
     64  N        -22.3670  -20.3400   43.4940 N.3   509  TYR509     -0.1241
     65  CA       -22.2780  -19.4100   42.3790 C.3   509  TYR509      0.1605
     66  C        -21.7770  -20.3250   41.2970 C.2   509  TYR509      0.2264
     67  O        -22.3750  -20.4410   40.2270 O.2   509  TYR509     -0.2867
     68  CB       -21.2500  -18.2930   42.6260 C.3   509  TYR509      0.0534
     69  CG       -20.9370  -17.4870   41.3700 C.ar  509  TYR509     -0.0201
     70  CD1      -19.8390  -17.8070   40.5730 C.ar  509  TYR509     -0.0009
     71  CD2      -21.8000  -16.4620   40.9280 C.ar  509  TYR509     -0.0009
     72  CE1      -19.6050  -17.1380   39.3580 C.ar  509  TYR509      0.0417
     73  CE2      -21.5770  -15.7840   39.7130 C.ar  509  TYR509      0.0417
     74  CZ       -20.4780  -16.1340   38.9340 C.ar  509  TYR509      0.1957
     75  OH       -20.2590  -15.5140   37.7230 O.3   509  TYR509     -0.2866
     76  N        -14.8090  -20.0890   38.0390 N.3   514  SER514     -0.1217
     77  CA       -15.0380  -19.3570   39.2830 C.3   514  SER514      0.1889
     78  C        -14.2920  -20.0580   40.4030 C.2   514  SER514      0.2288
     79  O        -13.4270  -20.9160   40.1660 O.2   514  SER514     -0.2866
     80  CB       -16.5310  -19.3140   39.6360 C.3   514  SER514      0.2089
     81  OG       -16.9410  -20.4930   40.3080 O.3   514  SER514     -0.2183
     82  N         -8.7710  -22.1680   38.2020 N.3   547  TYR547     -0.1241
     83  CA        -7.6190  -22.1900   39.1050 C.3   547  TYR547      0.1605
     84  C         -7.2040  -23.5900   39.5620 C.2   547  TYR547      0.2264
     85  O         -6.4050  -23.7410   40.4850 O.2   547  TYR547     -0.2867
     86  CB        -7.9040  -21.2890   40.3260 C.3   547  TYR547      0.0534
     87  CG        -8.4590  -19.9230   39.9450 C.ar  547  TYR547     -0.0201
     88  CD1       -7.6490  -18.9570   39.3380 C.ar  547  TYR547     -0.0009
     89  CD2       -9.8210  -19.6340   40.0940 C.ar  547  TYR547     -0.0009
     90  CE1       -8.1820  -17.7380   38.8720 C.ar  547  TYR547      0.0417
     91  CE2      -10.3640  -18.4190   39.6310 C.ar  547  TYR547      0.0417
     92  CZ        -9.5360  -17.4830   39.0170 C.ar  547  TYR547      0.1957
     93  OH       -10.0670  -16.3250   38.4970 O.3   547  TYR547     -0.2866
     94  N        -26.9290  -16.4730   43.4710 N.3   591  TRP591     -0.1227
     95  CA       -27.2070  -15.2080   42.8090 C.3   591  TRP591      0.1737
     96  C        -26.5600  -15.2420   41.4160 C.2   591  TRP591      0.2596
     97  O        -25.5410  -15.9040   41.2200 O.2   591  TRP591     -0.2718
     98  CB       -26.6540  -14.0640   43.6680 C.3   591  TRP591      0.0564
     99  CG       -27.0880  -12.6870   43.2560 C.ar  591  TRP591      0.0003
    100  CD1      -26.8810  -12.0790   42.0510 C.ar  591  TRP591      0.0946
    101  CD2      -27.7190  -11.7080   44.0900 C.ar  591  TRP591      0.0152
    102  NE1      -27.3320  -10.7840   42.0830 N.ar  591  TRP591     -0.2442
    103  CE2      -27.8500  -10.5300   43.3260 C.ar  591  TRP591      0.0810
    104  CE3      -28.1780  -11.7210   45.4110 C.ar  591  TRP591      0.0012
    105  CZ2      -28.4200   -9.3650   43.8310 C.ar  591  TRP591      0.0191
    106  CZ3      -28.7430  -10.5640   45.9220 C.ar  591  TRP591      0.0001
    107  CH2      -28.8580   -9.3960   45.1260 C.ar  591  TRP591      0.0015
    108  N        -27.1690  -14.5400   40.4610 N.am  592  SER592     -0.1938
    109  CA       -26.7010  -14.4880   39.0720 C.3   592  SER592      0.2055
    110  C        -26.5530  -15.8830   38.4380 C.2   592  SER592      0.2643
    111  O        -27.5490  -16.5680   38.1980 O.2   592  SER592     -0.2714
    112  CB       -25.3800  -13.7010   38.9650 C.3   592  SER592      0.2130
    113  OG       -24.2810  -14.3800   39.5600 O.3   592  SER592     -0.2179
    114  N        -25.3230  -16.2930   38.1420 N.am  593  TYR593     -0.1973
    115  CA       -25.1060  -17.6130   37.5630 C.3   593  TYR593      0.1639
    116  C        -25.5830  -18.5500   38.6560 C.2   593  TYR593      0.2290
    117  O        -26.2490  -19.5450   38.3780 O.2   593  TYR593     -0.2864
    118  CB       -23.6120  -17.8680   37.2800 C.3   593  TYR593      0.0560
    119  CG       -23.3560  -19.0600   36.3760 C.ar  593  TYR593     -0.0198
    120  CD1      -23.8570  -20.3230   36.6870 C.ar  593  TYR593     -0.0009
    121  CD2      -22.6820  -18.9170   35.1670 C.ar  593  TYR593     -0.0009
    122  CE1      -23.7030  -21.4130   35.8100 C.ar  593  TYR593      0.0417
    123  CE2      -22.5270  -20.0050   34.2850 C.ar  593  TYR593      0.0417
    124  CZ       -23.0440  -21.2380   34.6180 C.ar  593  TYR593      0.1957
    125  OH       -22.9350  -22.2950   33.7650 O.3   593  TYR593     -0.2866
    126  N        -30.0330  -16.9170   35.2330 N.3   618  VAL618     -0.1245
    127  CA       -30.1480  -17.1770   33.7900 C.3   618  VAL618      0.1561
    128  C        -31.1010  -18.3630   33.7910 C.2   618  VAL618      0.2260
    129  O        -31.1200  -19.1040   34.7770 O.2   618  VAL618     -0.2867
    130  CB       -28.8350  -17.6930   33.1620 C.3   618  VAL618      0.0252
    131  CG1      -28.7290  -17.2480   31.7320 C.3   618  VAL618      0.0019
    132  CG2      -27.6590  -17.2280   33.9580 C.3   618  VAL618      0.0019
    133  N        -30.1870  -20.0940   27.7340 N.3   621  TRP621     -0.1241
    134  CA       -29.0600  -19.3090   27.2600 C.3   621  TRP621      0.1605
    135  C        -29.1920  -18.3690   26.0720 C.2   621  TRP621      0.2264
    136  O        -28.2810  -17.5940   25.8020 O.2   621  TRP621     -0.2867
    137  CB       -27.8470  -20.2070   27.0970 C.3   621  TRP621      0.0550
    138  CG       -27.3890  -20.6960   28.4170 C.ar  621  TRP621      0.0003
    139  CD1      -27.7250  -21.8650   29.0160 C.ar  621  TRP621      0.0946
    140  CD2      -26.5640  -19.9950   29.3420 C.ar  621  TRP621      0.0152
    141  NE1      -27.1570  -21.9420   30.2600 N.ar  621  TRP621     -0.2442
    142  CE2      -26.4350  -20.8040   30.4860 C.ar  621  TRP621      0.0810
    143  CE3      -25.9180  -18.7530   29.3100 C.ar  621  TRP621      0.0012
    144  CZ2      -25.6860  -20.4220   31.6040 C.ar  621  TRP621      0.0191
    145  CZ3      -25.1700  -18.3670   30.4280 C.ar  621  TRP621      0.0001
    146  CH2      -25.0650  -19.2030   31.5600 C.ar  621  TRP621      0.0015
    147  N        -28.8800  -14.5730   27.2110 N.3   624  TYR624     -0.1241
    148  CA       -27.6770  -13.8900   27.6800 C.3   624  TYR624      0.1605
    149  C        -26.8140  -13.5110   26.4630 C.2   624  TYR624      0.2264
    150  O        -27.0220  -14.0300   25.3620 O.2   624  TYR624     -0.2867
    151  CB       -26.8960  -14.7670   28.6610 C.3   624  TYR624      0.0534
    152  CG       -25.9770  -13.9550   29.5470 C.ar  624  TYR624     -0.0201
    153  CD1      -26.4710  -12.8980   30.3240 C.ar  624  TYR624     -0.0009
    154  CD2      -24.6110  -14.2220   29.5930 C.ar  624  TYR624     -0.0009
    155  CE1      -25.6240  -12.1330   31.1170 C.ar  624  TYR624      0.0417
    156  CE2      -23.7530  -13.4580   30.3890 C.ar  624  TYR624      0.0417
    157  CZ       -24.2670  -12.4250   31.1430 C.ar  624  TYR624      0.1957
    158  OH       -23.4140  -11.7060   31.9380 O.3   624  TYR624     -0.2866
    159  N        -20.1070  -14.1010   26.0600 N.3   628  TYR628     -0.1241
    160  CA       -19.9610  -14.9280   27.2600 C.3   628  TYR628      0.1605
    161  C        -20.5570  -16.2990   27.0190 C.2   628  TYR628      0.2264
    162  O        -19.9300  -17.3180   27.2900 O.2   628  TYR628     -0.2867
    163  CB       -20.6600  -14.3070   28.4660 C.3   628  TYR628      0.0534
    164  CG       -20.5550  -15.1650   29.7090 C.ar  628  TYR628     -0.0201
    165  CD1      -21.4840  -16.1700   29.9670 C.ar  628  TYR628     -0.0009
    166  CD2      -19.4930  -15.0020   30.6070 C.ar  628  TYR628     -0.0009
    167  CE1      -21.3590  -16.9990   31.0910 C.ar  628  TYR628      0.0417
    168  CE2      -19.3560  -15.8220   31.7260 C.ar  628  TYR628      0.0417
    169  CZ       -20.2890  -16.8150   31.9620 C.ar  628  TYR628      0.1957
    170  OH       -20.1360  -17.6220   33.0640 O.3   628  TYR628     -0.2866
    171  N        -18.9700  -18.6550   24.3110 N.3   631  ARG631     -0.1245
    172  CA       -17.6780  -19.1430   24.7870 C.3   631  ARG631      0.1563
    173  C        -17.7780  -20.4560   25.5350 C.2   631  ARG631      0.2260
    174  O        -16.8020  -21.1980   25.6500 O.2   631  ARG631     -0.2867
    175  CB       -17.0430  -18.0920   25.6880 C.3   631  ARG631      0.0307
    176  CG       -15.7710  -18.5120   26.3740 C.3   631  ARG631      0.0489
    177  CD       -15.0640  -17.2760   26.8960 C.3   631  ARG631      0.2205
    178  NE       -15.9210  -16.4270   27.7080 N.pl3 631  ARG631     -0.0865
    179  CZ       -15.6360  -15.1670   28.0010 C.cat 631  ARG631      0.5346
    180  NH1      -14.5240  -14.6230   27.5380 N.pl3 631  ARG631      0.1354
    181  NH2      -16.4490  -14.4590   28.7720 N.pl3 631  ARG631      0.1354
    182  N        -27.9550   -6.7900   32.7060 N.3   672  ASN672     -0.1225
    183  CA       -27.2950   -8.0940   32.5330 C.3   672  ASN672      0.1785
    184  C        -28.2250   -9.3040   32.2790 C.2   672  ASN672      0.2597
    185  O        -28.4430   -9.7340   31.1290 O.2   672  ASN672     -0.2718
    186  CB       -26.4620   -8.3810   33.7720 C.3   672  ASN672      0.1169
    187  CG       -25.0660   -8.7870   33.4290 C.2   672  ASN672      0.2627
    188  OD1      -24.8530   -9.7700   32.7230 O.2   672  ASN672     -0.2716
    189  ND2      -24.0940   -8.0270   33.9190 N.am  672  ASN672     -0.0877
    190  N        -28.7190   -9.8950   33.3600 N.am  673  VAL673     -0.1980
    191  CA       -29.6520  -10.9990   33.2240 C.3   673  VAL673      0.1595
    192  C        -30.9870  -10.2710   33.0590 C.2   673  VAL673      0.2287
    193  O        -31.5980   -9.8740   34.0460 O.2   673  VAL673     -0.2864
    194  CB       -29.7010  -11.8540   34.5030 C.3   673  VAL673      0.0276
    195  CG1      -30.6710  -13.0050   34.3190 C.3   673  VAL673      0.0022
    196  CG2      -28.3260  -12.3770   34.8260 C.3   673  VAL673      0.0022
    197  N        -28.5570   -5.5290   37.9380 N.3   702  HIS702     -0.1226
    198  CA       -28.1790   -6.8780   38.3280 C.3   702  HIS702      0.1752
    199  C        -27.7210   -7.0860   39.7570 C.2   702  HIS702      0.2596
    200  O        -27.8530   -8.1730   40.2990 O.2   702  HIS702     -0.2718
    201  CB       -27.1180   -7.4480   37.3860 C.3   702  HIS702      0.0759
    202  CG       -26.8810   -8.9140   37.5870 C.ar  702  HIS702      0.0818
    203  ND1      -27.8600   -9.8620   37.3680 N.ar  702  HIS702     -0.2268
    204  CD2      -25.8060   -9.5890   38.0640 C.ar  702  HIS702      0.1154
    205  CE1      -27.4010  -11.0530   37.7120 C.ar  702  HIS702      0.1986
    206  NE2      -26.1570  -10.9150   38.1360 N.ar  702  HIS702     -0.2212
    207  N        -27.1990   -6.0520   40.3860 N.am  703  GLY703     -0.1957
    208  CA       -26.7110   -6.2250   41.7400 C.3   703  GLY703      0.1869
    209  C        -27.6300   -5.8210   42.8700 C.2   703  GLY703      0.2309
    210  O        -27.2860   -6.0180   44.0470 O.2   703  GLY703     -0.2863
@<TRIPOS>BOND
     1   171   172    1
     2   172   173    1
     3   172   175    1
     4   150   149    2
     5    46    44    1
     6   173   174    2
     7    45    44    1
     8   175   176    1
     9   136   135    2
    10    44    41    1
    11   159   160    1
    12   135   134    1
    13   176   177    1
    14   149   148    1
    15   177   178    1
    16   161   160    1
    17   161   162    2
    18   137   134    1
    19   137   138    1
    20   147   148    1
    21   160   163    1
    22   134   133    1
    23    41    40    1
    24    41    42    1
    25   180   179    1
    26   148   151    1
    27   178   179    2
    28    40    33   am
    29    35    36    1
    30    35    32    1
    31   179   181    1
    32    42    43    2
    33    36    37    1
    34   138   139   ar
    35   138   140   ar
    36   163   164    1
    37    33    34    2
    38    33    32    1
    39   151   152    1
    40    56    55    2
    41   139   141   ar
    42    32    31    1
    43   143   140   ar
    44   143   145   ar
    45   140   142   ar
    46    31    24   am
    47    55    54    1
    48   152   154   ar
    49   152   153   ar
    50   154   156   ar
    51   164   165   ar
    52   164   166   ar
    53    37    39   ar
    54    37    38   ar
    55    22    23    1
    56   165   167   ar
    57   141   142   ar
    58   153   155   ar
    59   156   157   ar
    60   145   146   ar
    61   142   144   ar
    62    54    53    1
    63    54    57    1
    64    24    23    1
    65    24    25    2
    66   166   168   ar
    67    47    48    1
    68    23    26    1
    69    26    27    1
    70   167   169   ar
    71   155   157   ar
    72   185   184    2
    73   157   158    1
    74   146   144   ar
    75    57    58    1
    76   168   169   ar
    77   131   130    1
    78    27    28    1
    79   169   170    1
    80    48    49    1
    81    48    51    1
    82   184   183    1
    83   184   190   am
    84    49    50    2
    85   183   182    1
    86   183   186    1
    87    59    58   ar
    88    59    61   ar
    89   188   187    2
    90    52    51    1
    91    58    60   ar
    92   192   191    1
    93   192   193    2
    94   130   127    1
    95   130   132    1
    96   191   190    1
    97   191   194    1
    98    28    29   ar
    99    28    30   ar
   100   187   186    1
   101   187   189   am
   102    61    63   ar
   103    18    20   ar
   104    18    17   ar
   105   125   124    1
   106   127   128    1
   107   127   126    1
   108   128   129    2
   109    20    21   ar
   110    60    62   ar
   111    14    15    2
   112    14    13    1
   113   123   124   ar
   114   123   121   ar
   115    16    17    1
   116    16    13    1
   117   195   194    1
   118    17    19   ar
   119     1     2    1
   120   194   196    1
   121   124   122   ar
   122    12    13    1
   123    12     3   am
   124    63    62   ar
   125    21    19   ar
   126     5     2    1
   127     5     6    1
   128   121   119   ar
   129     2     3    1
   130     3     4    2
   131   122   120   ar
   132     6     7    1
   133   119   120   ar
   134   119   118    1
   135     8     7    1
   136     8     9    2
   137    11     9    1
   138     9    10    1
   139   118   115    1
   140   203   202   ar
   141   203   205   ar
   142   201   202    1
   143   201   198    1
   144   115   114    1
   145   115   116    1
   146   202   204   ar
   147   205   206   ar
   148    75    74    1
   149   197   198    1
   150    76    77    1
   151   204   206   ar
   152   114   110   am
   153   111   110    2
   154    82    83    1
   155   198   199    1
   156   117   116    2
   157   110   109    1
   158    93    92    1
   159    90    92   ar
   160    90    88   ar
   161    74    72   ar
   162    74    73   ar
   163   112   109    1
   164   112   113    1
   165    92    91   ar
   166   109   108    1
   167    83    84    1
   168    83    86    1
   169    77    80    1
   170    77    78    1
   171    88    87   ar
   172    72    70   ar
   173    84    85    2
   174    91    89   ar
   175    80    81    1
   176    73    71   ar
   177   199   200    2
   178   199   207   am
   179    87    89   ar
   180    87    86    1
   181    79    78    2
   182    67    66    2
   183   207   208    1
   184   108    96   am
   185    70    69   ar
   186    71    69   ar
   187    97    96    2
   188    66    65    1
   189    69    68    1
   190    96    95    1
   191   208   209    1
   192   100   102   ar
   193   100    99   ar
   194   102   103   ar
   195    65    68    1
   196    65    64    1
   197    95    94    1
   198    95    98    1
   199   209   210    2
   200    99    98    1
   201    99   101   ar
   202   103   105   ar
   203   103   101   ar
   204   105   107   ar
   205   101   104   ar
   206   107   106   ar
   207   104   106   ar
