@<TRIPOS>MOLECULE
tmp/3q8xD00.pdb
 204 189 0 0 0
SMALL
GASTEIGER

@<TRIPOS>ATOM
      1  N        -21.3100   24.6230   57.6080 N.3    36  LEU36      -0.1245
      2  CA       -20.9580   26.0030   57.9410 C.3    36  LEU36       0.1561
      3  C        -19.6540   26.0360   58.7240 C.2    36  LEU36       0.2260
      4  O        -19.5060   25.3510   59.7250 O.2    36  LEU36      -0.2867
      5  CB       -22.0860   26.7340   58.6800 C.3    36  LEU36       0.0270
      6  CG       -23.5500   26.5320   58.2530 C.3    36  LEU36       0.0019
      7  CD1      -24.4450   27.6370   58.8080 C.3    36  LEU36       0.0001
      8  CD2      -23.7430   26.4230   56.7380 C.3    36  LEU36       0.0001
      9  N         -9.7930   33.9530   63.0160 N.3    41  PRO41      -0.2116
     10  CA        -8.8000   34.1720   61.9510 C.3    41  PRO41       0.1372
     11  C         -7.4390   33.6010   62.3330 C.2    41  PRO41       0.2244
     12  O         -7.0200   33.7320   63.4860 O.2    41  PRO41      -0.2868
     13  CB        -8.7190   35.6990   61.8550 C.3    41  PRO41       0.0268
     14  CG       -10.0360   36.1740   62.3650 C.3    41  PRO41       0.0207
     15  CD       -10.4340   35.2110   63.4390 C.3    41  PRO41       0.0892
     16  N         -8.8810   27.3500   58.8060 N.3    45  LYS45      -0.1245
     17  CA       -10.1520   26.6900   58.4540 C.3    45  LYS45       0.1561
     18  C        -10.0810   25.9310   57.1230 C.2    45  LYS45       0.2260
     19  O        -10.9950   25.1900   56.7780 O.2    45  LYS45      -0.2867
     20  CB       -11.3330   27.6750   58.4350 C.3    45  LYS45       0.0271
     21  CG       -11.4750   28.5140   59.6730 C.3    45  LYS45       0.0035
     22  CD       -12.5570   29.5510   59.4830 C.3    45  LYS45       0.0206
     23  CE       -12.0300   30.9490   59.7570 C.3    45  LYS45       0.1093
     24  NZ       -12.8210   31.9690   59.0100 N.3    45  LYS45      -0.1314
     25  N        -16.9020   31.3580   49.6090 N.3    64  ASP64      -0.1225
     26  CA       -15.9680   32.1260   50.4440 C.3    64  ASP64       0.1805
     27  C        -16.0990   33.6360   50.1790 C.2    64  ASP64       0.2598
     28  O        -15.5960   34.1440   49.1730 O.2    64  ASP64      -0.2718
     29  CB       -14.5280   31.6100   50.1920 C.3    64  ASP64       0.1424
     30  CG       -13.4460   32.3230   51.0360 C.2    64  ASP64       0.3668
     31  OD1      -13.7470   33.1610   51.9270 O.co2  64  ASP64      -0.2456
     32  OD2      -12.2600   32.0210   50.7820 O.co2  64  ASP64      -0.2456
     33  N        -16.7540   34.3400   51.1010 N.am   65  ASN65      -0.1960
     34  CA       -17.0560   35.7710   50.9620 C.3    65  ASN65       0.1819
     35  C        -15.8630   36.6150   50.4840 C.2    65  ASN65       0.2621
     36  O        -16.0240   37.5120   49.6590 O.2    65  ASN65      -0.2715
     37  CB       -17.6430   36.3170   52.2760 C.3    65  ASN65       0.1195
     38  CG       -18.3200   37.6890   52.1190 C.2    65  ASN65       0.2630
     39  OD1      -18.0790   38.4150   51.1590 O.2    65  ASN65      -0.2716
     40  ND2      -19.1570   38.0480   53.0830 N.am   65  ASN65      -0.0877
     41  N        -14.6730   36.2990   50.9880 N.am   66  ASP66      -0.1971
     42  CA       -13.4350   37.0070   50.6520 C.3    66  ASP66       0.1709
     43  C        -13.0970   37.0250   49.1670 C.2    66  ASP66       0.2293
     44  O        -12.5710   38.0190   48.6600 O.2    66  ASP66      -0.2864
     45  CB       -12.2550   36.3870   51.4070 C.3    66  ASP66       0.1436
     46  CG       -11.8690   37.1760   52.6470 C.2    66  ASP66       0.3671
     47  OD1      -12.7580   37.8250   53.2610 O.co2  66  ASP66      -0.2456
     48  OD2      -10.6650   37.1390   53.0070 O.co2  66  ASP66      -0.2456
     49  N        -14.3450   40.1030   47.2030 N.3    69  LYS69      -0.1245
     50  CA       -13.9110   41.4620   47.5480 C.3    69  LYS69       0.1561
     51  C        -13.3760   42.2510   46.3510 C.2    69  LYS69       0.2260
     52  O        -13.8380   43.3640   46.0830 O.2    69  LYS69      -0.2867
     53  CB       -12.8950   41.4430   48.6990 C.3    69  LYS69       0.0271
     54  CG       -13.5380   41.5280   50.0890 C.3    69  LYS69       0.0035
     55  CD       -12.6980   40.8230   51.1660 C.3    69  LYS69       0.0206
     56  CE       -13.2380   41.1050   52.5760 C.3    69  LYS69       0.1093
     57  NZ       -14.7010   40.7900   52.7350 N.3    69  LYS69      -0.1314
     58  N        -10.9340   47.7360   52.1050 N.3    87  VAL87      -0.1245
     59  CA       -11.7560   46.5880   52.4750 C.3    87  VAL87       0.1561
     60  C        -13.1760   46.9900   52.8700 C.2    87  VAL87       0.2260
     61  O        -14.1480   46.4810   52.3030 O.2    87  VAL87      -0.2867
     62  CB       -11.0770   45.7680   53.5900 C.3    87  VAL87       0.0252
     63  CG1      -11.9290   44.5510   53.9860 C.3    87  VAL87       0.0019
     64  CG2       -9.6910   45.3300   53.1310 C.3    87  VAL87       0.0019
     65  N        -17.0590   45.6080   51.0360 N.3    91  THR91      -0.1218
     66  CA       -17.7590   44.5760   51.7830 C.3    91  THR91       0.1862
     67  C        -19.2660   44.5200   51.4670 C.2    91  THR91       0.2287
     68  O        -19.8070   43.4270   51.3110 O.2    91  THR91      -0.2866
     69  CB       -17.4880   44.6890   53.2960 C.3    91  THR91       0.1770
     70  OG1      -16.1060   45.0080   53.5070 O.3    91  THR91      -0.2211
     71  CG2      -17.8200   43.3710   54.0060 C.3    91  THR91       0.0375
     72  N        -20.8380   40.8320   50.3220 N.3    95  ASN95      -0.1240
     73  CA       -21.9070   40.2350   51.1220 C.3    95  ASN95       0.1653
     74  C        -23.1270   39.9020   50.2530 C.2    95  ASN95       0.2266
     75  O        -23.6550   38.7840   50.3280 O.2    95  ASN95      -0.2867
     76  CB       -22.2980   41.1410   52.3060 C.3    95  ASN95       0.1155
     77  CG       -21.2570   41.1450   53.4350 C.2    95  ASN95       0.2627
     78  OD1      -20.2920   40.3760   53.4320 O.2    95  ASN95      -0.2716
     79  ND2      -21.4650   42.0160   54.4120 N.am   95  ASN95      -0.0877
     80  N        -22.2330   36.8040   47.8640 N.3    98  THR98      -0.1203
     81  CA       -22.2560   35.5650   48.6430 C.3    98  THR98       0.1994
     82  C        -23.6810   35.0720   48.8800 C.2    98  THR98       0.2617
     83  O        -23.9810   33.8950   48.6620 O.2    98  THR98      -0.2717
     84  CB       -21.5520   35.7640   49.9870 C.3    98  THR98       0.1784
     85  OG1      -20.2310   36.2570   49.7520 O.3    98  THR98      -0.2211
     86  CG2      -21.4570   34.4640   50.7440 C.3    98  THR98       0.0376
     87  N        -24.5540   35.9880   49.2950 N.am   99  GLU99      -0.1979
     88  CA       -25.9530   35.6660   49.5700 C.3    99  GLU99       0.1602
     89  C        -26.7590   35.3140   48.3170 C.2    99  GLU99       0.2287
     90  O        -27.7440   34.5870   48.3990 O.2    99  GLU99      -0.2864
     91  CB       -26.6310   36.8090   50.3300 C.3    99  GLU99       0.0415
     92  CG       -26.0980   37.0340   51.7460 C.3    99  GLU99       0.1163
     93  CD       -26.5620   38.3570   52.3450 C.2    99  GLU99       0.3649
     94  OE1      -27.5550   38.9440   51.8400 O.co2  99  GLU99      -0.2457
     95  OE2      -25.9280   38.8100   53.3260 O.co2  99  GLU99      -0.2457
     96  N        -25.0960   31.6020   47.5840 N.3   102  ILE102     -0.1245
     97  CA       -25.7300   30.6900   48.5420 C.3   102  ILE102      0.1561
     98  C        -27.1830   30.4480   48.1540 C.2   102  ILE102      0.2260
     99  O        -27.6630   29.3170   48.2250 O.2   102  ILE102     -0.2867
    100  CB       -25.6710   31.2140   50.0030 C.3   102  ILE102      0.0252
    101  CG1      -24.2300   31.2270   50.5280 C.3   102  ILE102      0.0019
    102  CG2      -26.5210   30.3440   50.9250 C.3   102  ILE102      0.0019
    103  CD1      -24.0350   32.0640   51.7830 C.3   102  ILE102      0.0001
    104  N        -19.7620   26.6460   53.4920 N.3   114  ILE114     -0.1231
    105  CA       -19.9000   28.0850   53.6410 C.3   114  ILE114      0.1692
    106  C        -18.8930   28.6340   54.6550 C.2   114  ILE114      0.2592
    107  O        -18.9530   28.3240   55.8570 O.2   114  ILE114     -0.2718
    108  CB       -21.3370   28.4950   54.0280 C.3   114  ILE114      0.0266
    109  CG1      -22.3430   27.9860   52.9910 C.3   114  ILE114      0.0019
    110  CG2      -21.4290   30.0150   54.1610 C.3   114  ILE114      0.0020
    111  CD1      -23.7990   28.1680   53.3940 C.3   114  ILE114      0.0001
    112  N        -17.9780   29.4540   54.1460 N.am  115  GLU115     -0.1966
    113  CA       -16.9100   30.0520   54.9350 C.3   115  GLU115      0.1733
    114  C        -17.4580   31.0320   55.9710 C.2   115  GLU115      0.2617
    115  O        -18.1820   31.9650   55.6250 O.2   115  GLU115     -0.2715
    116  CB       -15.9220   30.7580   54.0020 C.3   115  GLU115      0.0429
    117  CG       -14.6250   31.2070   54.6480 C.3   115  GLU115      0.1163
    118  CD       -13.7640   30.0490   55.0910 C.2   115  GLU115      0.3649
    119  OE1      -13.2380   29.2990   54.2250 O.co2 115  GLU115     -0.2457
    120  OE2      -13.6170   29.8990   56.3210 O.co2 115  GLU115     -0.2457
    121  N        -17.1120   30.8010   57.2350 N.am  116  GLY116     -0.1940
    122  CA       -17.5370   31.6460   58.3500 C.3   116  GLY116      0.2014
    123  C        -16.5630   31.5870   59.5150 C.2   116  GLY116      0.2640
    124  O        -15.7070   30.7010   59.5750 O.2   116  GLY116     -0.2714
    125  N        -16.6810   32.5270   60.4460 N.am  117  THR117     -0.1936
    126  CA       -15.7960   32.5440   61.6150 C.3   117  THR117      0.2028
    127  C        -16.4890   32.0660   62.8910 C.2   117  THR117      0.2643
    128  O        -15.8400   31.5440   63.8060 O.2   117  THR117     -0.2714
    129  CB       -15.2520   33.9490   61.9030 C.3   117  THR117      0.1808
    130  OG1      -16.3400   34.8030   62.2780 O.3   117  THR117     -0.2208
    131  CG2      -14.5020   34.5190   60.6920 C.3   117  THR117      0.0379
    132  N        -17.8040   32.2720   62.9460 N.am  118  GLY118     -0.1939
    133  CA       -18.5980   31.9820   64.1330 C.3   118  GLY118      0.2014
    134  C        -18.5590   33.1050   65.1540 C.2   118  GLY118      0.2639
    135  O        -18.8330   32.8840   66.3350 O.2   118  GLY118     -0.2714
    136  N        -18.2160   34.3130   64.7090 N.am  119  ARG119     -0.1963
    137  CA       -18.2010   35.4840   65.5850 C.3   119  ARG119      0.1729
    138  C        -19.6050   35.7480   66.1560 C.2   119  ARG119      0.2616
    139  O        -19.7490   36.1440   67.3140 O.2   119  ARG119     -0.2715
    140  CB       -17.6660   36.6950   64.8180 C.3   119  ARG119      0.0348
    141  CG       -17.8020   38.0360   65.5320 C.3   119  ARG119      0.0492
    142  CD       -17.3250   39.2080   64.6660 C.3   119  ARG119      0.2205
    143  NE       -17.7610   39.1170   63.2670 N.pl3 119  ARG119     -0.0865
    144  CZ       -18.8540   39.6910   62.7670 C.cat 119  ARG119      0.5346
    145  NH1      -19.6590   40.4080   63.5450 N.pl3 119  ARG119      0.1354
    146  NH2      -19.1440   39.5430   61.4770 N.pl3 119  ARG119      0.1354
    147  N        -20.6240   35.4850   65.3360 N.am  120  THR120     -0.1951
    148  CA       -22.0290   35.7110   65.6760 C.3   120  THR120      0.1897
    149  C        -22.8370   34.4210   65.6780 C.2   120  THR120      0.2313
    150  O        -22.5430   33.4860   64.9350 O.2   120  THR120     -0.2863
    151  CB       -22.7030   36.6000   64.6260 C.3   120  THR120      0.1794
    152  OG1      -22.4310   36.0660   63.3190 O.3   120  THR120     -0.2208
    153  CG2      -22.1990   38.0400   64.7170 C.3   120  THR120      0.0378
    154  N        -25.7120   34.9290   62.1540 N.3   123  VAL123     -0.1231
    155  CA       -25.4380   34.5350   60.7710 C.3   123  VAL123      0.1678
    156  C        -25.6410   33.0280   60.5030 C.2   123  VAL123      0.2434
    157  O        -26.4610   32.6750   59.6420 O.2   123  VAL123     -0.2733
    158  CB       -24.0500   35.0700   60.2790 C.3   123  VAL123      0.0265
    159  CG1      -23.5920   34.3560   59.0260 C.3   123  VAL123      0.0020
    160  CG2      -24.1180   36.5650   60.0360 C.3   123  VAL123      0.0020
    161  N        -24.9140   32.1400   61.2340 N.am  124  PRO124     -0.2729
    162  CA       -25.1290   30.7010   61.0140 C.3   124  PRO124      0.1401
    163  C        -26.5750   30.2520   61.2550 C.2   124  PRO124      0.2269
    164  O        -27.1130   29.5110   60.4360 O.2   124  PRO124     -0.2865
    165  CB       -24.1540   30.0290   61.9980 C.3   124  PRO124      0.0296
    166  CG       -23.8050   31.0750   62.9890 C.3   124  PRO124      0.0237
    167  CD       -23.8720   32.3760   62.2530 C.3   124  PRO124      0.0939
    168  N        -28.5640   31.3660   58.4530 N.3   127  THR127     -0.1218
    169  CA       -28.2200   30.5790   57.2730 C.3   127  THR127      0.1862
    170  C        -28.8040   29.1700   57.3550 C.2   127  THR127      0.2287
    171  O        -29.4050   28.6800   56.3920 O.2   127  THR127     -0.2866
    172  CB       -26.6930   30.4870   57.0680 C.3   127  THR127      0.1770
    173  OG1      -26.1240   31.7930   57.1540 O.3   127  THR127     -0.2211
    174  CG2      -26.3640   29.9060   55.7110 C.3   127  THR127      0.0375
    175  N         -2.9040   43.4740   54.0640 N.3   170  ARG170     -0.1245
    176  CA        -3.4240   44.1750   55.2350 C.3   170  ARG170      0.1563
    177  C         -3.6700   43.1570   56.3510 C.2   170  ARG170      0.2260
    178  O         -4.3280   42.1340   56.1420 O.2   170  ARG170     -0.2867
    179  CB        -4.7050   44.9430   54.9020 C.3   170  ARG170      0.0307
    180  CG        -5.0990   45.9870   55.9540 C.3   170  ARG170      0.0489
    181  CD        -6.5360   46.4780   55.7580 C.3   170  ARG170      0.2205
    182  NE        -7.4690   45.3790   55.4820 N.pl3 170  ARG170     -0.0865
    183  CZ        -8.1780   44.7220   56.4020 C.cat 170  ARG170      0.5346
    184  NH1       -8.0830   45.0360   57.6890 N.pl3 170  ARG170      0.1354
    185  NH2       -8.9930   43.7410   56.0290 N.pl3 170  ARG170      0.1354
    186  N         -4.7860   41.2900   59.9770 N.3   172  THR172     -0.1218
    187  CA        -5.9770   41.1520   60.8060 C.3   172  THR172      0.1862
    188  C         -5.7100   41.8900   62.1160 C.2   172  THR172      0.2287
    189  O         -4.7160   41.5990   62.7880 O.2   172  THR172     -0.2866
    190  CB        -6.3210   39.6620   61.1070 C.3   172  THR172      0.1770
    191  OG1       -6.4600   38.9300   59.8820 O.3   172  THR172     -0.2211
    192  CG2       -7.6210   39.5460   61.9090 C.3   172  THR172      0.0375
    193  N         -9.8370   41.8620   66.2920 N.3   176  ALA176     -0.1245
    194  CA       -10.7010   41.0550   65.4390 C.3   176  ALA176      0.1562
    195  C        -10.4720   39.5590   65.6680 C.2   176  ALA176      0.2260
    196  O        -11.4230   38.7760   65.6750 O.2   176  ALA176     -0.2867
    197  CB       -10.5090   41.4130   63.9790 C.3   176  ALA176      0.0290
    198  N        -13.3950   36.8600   68.2290 N.3   180  VAL180     -0.1245
    199  CA       -13.8790   35.5410   67.8350 C.3   180  VAL180      0.1561
    200  C        -13.5080   34.4940   68.9020 C.2   180  VAL180      0.2260
    201  O        -14.3030   33.6000   69.1990 O.2   180  VAL180     -0.2867
    202  CB       -13.3550   35.1170   66.4290 C.3   180  VAL180      0.0252
    203  CG1      -14.0560   33.8460   65.9540 C.3   180  VAL180      0.0019
    204  CG2      -13.5690   36.2280   65.4080 C.3   180  VAL180      0.0019
@<TRIPOS>BOND
     1    52    51    2
     2    51    50    1
     3    49    50    1
     4    50    53    1
     5    96    97    1
     6    80    81    1
     7    98    99    2
     8    98    97    1
     9    89    90    2
    10    89    88    1
    11    97   100    1
    12    81    82    1
    13    81    84    1
    14    44    43    2
    15    83    82    2
    16    53    54    1
    17    82    87   am
    18    43    42    1
    19    28    27    2
    20    87    88    1
    21    88    91    1
    22    25    26    1
    23    36    35    2
    24    85    84    1
    25    84    86    1
    26   100   101    1
    27   100   102    1
    28    54    55    1
    29    27    26    1
    30    27    33   am
    31    29    26    1
    32    29    30    1
    33    74    75    2
    34    74    73    1
    35    72    73    1
    36    91    92    1
    37    35    34    1
    38    35    41   am
    39   101   103    1
    40    42    41    1
    41    42    45    1
    42    32    30   ar
    43    34    33    1
    44    34    37    1
    45    65    66    1
    46    30    31   ar
    47    73    76    1
    48    39    38    2
    49    55    56    1
    50    68    67    2
    51    45    46    1
    52    67    66    1
    53    92    93    1
    54    66    69    1
    55    94    93   ar
    56    58    59    1
    57    38    37    1
    58    38    40   am
    59    61    60    2
    60    76    77    1
    61    93    95   ar
    62    59    60    1
    63    59    62    1
    64    56    57    1
    65    46    48   ar
    66    46    47   ar
    67   109   111    1
    68   109   108    1
    69    64    62    1
    70    69    70    1
    71    69    71    1
    72    78    77    2
    73    77    79   am
    74   104   105    1
    75    62    63    1
    76   105   108    1
    77   105   106    1
    78   116   117    1
    79   116   113    1
    80   108   110    1
    81   175   176    1
    82   112   106   am
    83   112   113    1
    84   119   118   ar
    85   117   118    1
    86   106   107    2
    87   179   176    1
    88   179   180    1
    89   113   114    1
    90   118   120   ar
    91   176   177    1
    92   182   181    1
    93   182   183    2
    94   115   114    2
    95   174   172    1
    96   181   180    1
    97   114   121   am
    98   185   183    1
    99   178   177    2
   100   171   170    2
   101   183   184    1
   102     8     6    1
   103    19    18    2
   104   172   173    1
   105   172   169    1
   106    18    17    1
   107   121   122    1
   108   169   170    1
   109   169   168    1
   110     1     2    1
   111     2     5    1
   112     2     3    1
   113     6     5    1
   114     6     7    1
   115   122   123    1
   116    20    17    1
   117    20    21    1
   118    17    16    1
   119     3     4    2
   120    24    23    1
   121   159   158    1
   122    22    21    1
   123    22    23    1
   124   123   124    2
   125   123   125   am
   126   157   156    2
   127   191   190    1
   128   186   187    1
   129   160   158    1
   130   158   155    1
   131   164   163    2
   132   125   126    1
   133   156   155    1
   134   156   161   am
   135   131   129    1
   136   155   154    1
   137   187   190    1
   138   187   188    1
   139   162   161    1
   140   162   163    1
   141   162   165    1
   142   190   192    1
   143   161   167    1
   144   146   144    1
   145   126   129    1
   146   126   127    1
   147    13    10    1
   148    13    14    1
   149   129   130    1
   150    10    11    1
   151    10     9    1
   152   165   166    1
   153   188   189    2
   154   167   166    1
   155    11    12    2
   156    14    15    1
   157   144   143    2
   158   144   145    1
   159   127   132   am
   160   127   128    2
   161   132   133    1
   162     9    15    1
   163   143   142    1
   164   152   151    1
   165   197   194    1
   166   133   134    1
   167   151   153    1
   168   151   148    1
   169   142   141    1
   170   136   134   am
   171   136   137    1
   172   140   141    1
   173   140   137    1
   174   150   149    2
   175   134   135    2
   176   147   148    1
   177   147   138   am
   178   204   202    1
   179   194   195    1
   180   194   193    1
   181   137   138    1
   182   195   196    2
   183   148   149    1
   184   203   202    1
   185   138   139    2
   186   202   199    1
   187   199   198    1
   188   199   200    1
   189   200   201    2
