@<TRIPOS>MOLECULE
tmp/3q94A00.pdb
 104 101 0 0 0
SMALL
GASTEIGER

@<TRIPOS>ATOM
      1  N        -17.0590   64.0080   41.5020 N.3    19  GLN19      -0.1245
      2  CA       -18.3130   63.2990   41.6700 C.3    19  GLN19       0.1566
      3  C        -18.0580   61.8390   41.3190 C.2    19  GLN19       0.2260
      4  O        -17.4970   61.5220   40.2640 O.2    19  GLN19      -0.2867
      5  CB       -19.4170   63.8480   40.7710 C.3    19  GLN19       0.0367
      6  CG       -20.5820   62.8640   40.5820 C.3    19  GLN19       0.0905
      7  CD       -21.5600   63.3290   39.5200 C.2    19  GLN19       0.2608
      8  OE1      -22.0860   64.4440   39.5860 O.2    19  GLN19      -0.2717
      9  NE2      -21.7940   62.4890   38.5280 N.am   19  GLN19      -0.0878
     10  N        -20.0990   58.2470   40.9520 N.3    21  ASN21      -0.1240
     11  CA       -21.4460   57.7160   40.9090 C.3    21  ASN21       0.1653
     12  C        -21.6580   56.5640   41.8980 C.2    21  ASN21       0.2266
     13  O        -20.8070   55.6870   42.0380 O.2    21  ASN21      -0.2867
     14  CB       -21.8340   57.3490   39.4750 C.3    21  ASN21       0.1155
     15  CG       -22.1710   58.5730   38.6390 C.2    21  ASN21       0.2627
     16  OD1      -21.2830   59.3300   38.2270 O.2    21  ASN21      -0.2716
     17  ND2      -23.4600   58.7820   38.3950 N.am   21  ASN21      -0.0877
     18  N        -27.8760   62.9740   38.6470 N.3    78  ASP78      -0.1225
     19  CA       -27.0650   63.0600   37.4390 C.3    78  ASP78       0.1805
     20  C        -27.9410   62.9140   36.1750 C.2    78  ASP78       0.2597
     21  O        -28.7330   61.9820   36.0670 O.2    78  ASP78      -0.2718
     22  CB       -25.9890   61.9730   37.4810 C.3    78  ASP78       0.1424
     23  CG       -24.8590   62.2210   36.5080 C.2    78  ASP78       0.3668
     24  OD1      -24.7270   63.3420   35.9870 O.co2  78  ASP78      -0.2456
     25  OD2      -24.0850   61.2790   36.2700 O.co2  78  ASP78      -0.2456
     26  N        -27.7910   63.8420   35.2300 N.am   79  HIS79      -0.1975
     27  CA       -28.5340   63.8060   33.9670 C.3    79  HIS79       0.1656
     28  C        -30.0520   63.7070   34.1470 C.2    79  HIS79       0.2291
     29  O        -30.7120   62.9420   33.4470 O.2    79  HIS79      -0.2864
     30  CB       -28.0260   62.6760   33.0550 C.3    79  HIS79       0.0771
     31  CG       -26.6630   62.9300   32.4910 C.ar   79  HIS79       0.0820
     32  ND1      -26.4160   63.9130   31.5540 N.ar   79  HIS79      -0.2267
     33  CD2      -25.4680   62.3390   32.7410 C.ar   79  HIS79       0.1154
     34  CE1      -25.1310   63.9120   31.2480 C.ar   79  HIS79       0.1986
     35  NE2      -24.5360   62.9650   31.9520 N.ar   79  HIS79      -0.2212
     36  N        -18.8250   59.4420   27.9030 N.3   173  HIS173     -0.1226
     37  CA       -19.1340   58.5130   29.0020 C.3   173  HIS173      0.1752
     38  C        -18.5820   57.1340   28.6730 C.2   173  HIS173      0.2596
     39  O        -18.8400   56.6080   27.5790 O.2   173  HIS173     -0.2718
     40  CB       -20.6500   58.3920   29.1890 C.3   173  HIS173      0.0759
     41  CG       -21.2920   59.6090   29.7840 C.ar  173  HIS173      0.0818
     42  ND1      -22.4400   60.1740   29.2680 N.ar  173  HIS173     -0.2268
     43  CD2      -20.9670   60.3500   30.8690 C.ar  173  HIS173      0.1154
     44  CE1      -22.7970   61.2040   30.0120 C.ar  173  HIS173      0.1986
     45  NE2      -21.9140   61.3380   30.9860 N.ar  173  HIS173     -0.2212
     46  N        -17.8440   56.5410   29.6160 N.am  174  GLY174     -0.1957
     47  CA       -17.2180   55.2390   29.4140 C.3   174  GLY174      0.1869
     48  C        -15.8610   55.3820   28.7370 C.2   174  GLY174      0.2309
     49  O        -15.3210   56.4660   28.6870 O.2   174  GLY174     -0.2863
     50  N        -17.5640   66.0030   32.3180 N.3   200  HIS200     -0.1226
     51  CA       -18.1300   64.6580   32.3080 C.3   200  HIS200      0.1752
     52  C        -17.1840   63.6290   31.7020 C.2   200  HIS200      0.2597
     53  O        -16.1560   63.9790   31.1130 O.2   200  HIS200     -0.2718
     54  CB       -19.4840   64.6590   31.5760 C.3   200  HIS200      0.0759
     55  CG       -20.5570   65.3870   32.3250 C.ar  200  HIS200      0.0818
     56  ND1      -21.7250   64.7810   32.7290 N.ar  200  HIS200     -0.2268
     57  CD2      -20.6150   66.6610   32.7890 C.ar  200  HIS200      0.1154
     58  CE1      -22.4660   65.6500   33.3960 C.ar  200  HIS200      0.1986
     59  NE2      -21.8170   66.7990   33.4450 N.ar  200  HIS200     -0.2212
     60  N        -17.5330   62.3580   31.8760 N.am  201  GLY201     -0.1942
     61  CA       -16.7860   61.2600   31.2950 C.3   201  GLY201      0.2014
     62  C        -15.3370   61.2070   31.7480 C.2   201  GLY201      0.2639
     63  O        -14.4270   61.1210   30.9270 O.2   201  GLY201     -0.2714
     64  N        -15.1220   61.2540   33.0560 N.am  202  GLY202     -0.1939
     65  CA       -13.7820   61.3140   33.6080 C.3   202  GLY202      0.2014
     66  C        -12.9100   60.0970   33.3660 C.2   202  GLY202      0.2639
     67  O        -11.6840   60.2250   33.2750 O.2   202  GLY202     -0.2714
     68  N        -13.5210   58.9170   33.2760 N.am  203  THR203     -0.1950
     69  CA       -12.7560   57.6910   33.0370 C.3   203  THR203      0.1897
     70  C        -12.0220   57.7620   31.6970 C.2   203  THR203      0.2313
     71  O        -12.6300   58.0020   30.6710 O.2   203  THR203     -0.2863
     72  CB       -13.6590   56.4410   33.0260 C.3   203  THR203      0.1794
     73  OG1      -14.2830   56.2750   34.3060 O.3   203  THR203     -0.2208
     74  CG2      -12.8380   55.2070   32.7060 C.3   203  THR203      0.0378
     75  N        -16.5920   64.1740   36.8310 N.3   222  ASN222     -0.1225
     76  CA       -17.3900   62.9800   37.1110 C.3   222  ASN222      0.1785
     77  C        -16.6210   61.7050   36.7680 C.2   222  ASN222      0.2597
     78  O        -16.0830   61.5800   35.6680 O.2   222  ASN222     -0.2718
     79  CB       -18.6980   62.9750   36.3110 C.3   222  ASN222      0.1169
     80  CG       -19.5460   64.2160   36.5250 C.2   222  ASN222      0.2627
     81  OD1      -19.3180   65.0000   37.4400 O.2   222  ASN222     -0.2716
     82  ND2      -20.5510   64.3850   35.6740 N.am  222  ASN222     -0.0877
     83  N        -16.5730   60.7580   37.7000 N.am  223  VAL223     -0.1966
     84  CA       -16.0140   59.4340   37.4010 C.3   223  VAL223      0.1727
     85  C        -17.0090   58.3460   37.7580 C.2   223  VAL223      0.2616
     86  O        -17.5680   58.3410   38.8610 O.2   223  VAL223     -0.2715
     87  CB       -14.6930   59.1590   38.1450 C.3   223  VAL223      0.0290
     88  CG1      -14.1590   57.7810   37.7650 C.3   223  VAL223      0.0023
     89  CG2      -13.6690   60.2400   37.8240 C.3   223  VAL223      0.0023
     90  N        -17.2390   57.4320   36.8200 N.am  224  ASN224     -0.1958
     91  CA       -18.1570   56.3260   37.0500 C.3   224  ASN224      0.1819
     92  C        -17.6080   55.0050   36.5390 C.2   224  ASN224      0.2621
     93  O        -17.3770   54.0740   37.3090 O.2   224  ASN224     -0.2715
     94  CB       -19.5110   56.5870   36.4010 C.3   224  ASN224      0.1195
     95  CG       -20.5470   55.5570   36.8090 C.2   224  ASN224      0.2630
     96  OD1      -20.3160   54.7610   37.7220 O.2   224  ASN224     -0.2716
     97  ND2      -21.6950   55.5720   36.1440 N.am  224  ASN224     -0.0877
     98  N        -17.4130   54.9400   35.2290 N.am  225  THR225     -0.1951
     99  CA       -16.8800   53.7550   34.5830 C.3   225  THR225      0.1897
    100  C        -15.6390   53.1650   35.2740 C.2   225  THR225      0.2313
    101  O        -15.5850   51.9560   35.5120 O.2   225  THR225     -0.2863
    102  CB       -16.6090   54.0290   33.0960 C.3   225  THR225      0.1794
    103  OG1      -17.8410   54.4060   32.4750 O.3   225  THR225     -0.2208
    104  CG2      -16.0700   52.7980   32.4140 C.3   225  THR225      0.0378
@<TRIPOS>BOND
     1    39    38    2
     2    36    37    1
     3    38    37    1
     4    38    46   am
     5    49    48    2
     6    48    47    1
     7    37    40    1
     8    40    41    1
     9    42    41   ar
    10    42    44   ar
    11    47    46    1
    12    41    43   ar
    13    44    45   ar
    14    71    70    2
    15    43    45   ar
    16    63    62    2
    17    53    52    2
    18    34    32   ar
    19    34    35   ar
    20    61    62    1
    21    61    60    1
    22    32    31   ar
    23    54    51    1
    24    54    55    1
    25    70    69    1
    26    52    60   am
    27    52    51    1
    28    62    64   am
    29    35    33   ar
    30    51    50    1
    31    55    56   ar
    32    55    57   ar
    33   104   102    1
    34   103   102    1
    35    31    33   ar
    36    31    30    1
    37    74    72    1
    38    56    58   ar
    39    57    59   ar
    40    72    69    1
    41    72    73    1
    42    69    68    1
    43    30    27    1
    44    64    65    1
    45   102    99    1
    46    67    66    2
    47    68    66   am
    48    66    65    1
    49    58    59   ar
    50    29    28    2
    51    27    28    1
    52    27    26    1
    53    99    98    1
    54    99   100    1
    55    98    92   am
    56    26    20   am
    57   100   101    2
    58    78    77    2
    59    82    80   am
    60    24    23   ar
    61    21    20    2
    62    97    95   am
    63    20    19    1
    64    25    23   ar
    65    79    80    1
    66    79    76    1
    67    94    95    1
    68    94    91    1
    69    23    22    1
    70    80    81    2
    71    92    91    1
    72    92    93    2
    73    77    76    1
    74    77    83   am
    75    95    96    2
    76    90    91    1
    77    90    85   am
    78    75    76    1
    79    84    83    1
    80    84    85    1
    81    84    87    1
    82    19    22    1
    83    19    18    1
    84    85    86    2
    85    88    87    1
    86    89    87    1
    87    16    15    2
    88    17    15   am
    89     9     7   am
    90    15    14    1
    91    14    11    1
    92     7     8    2
    93     7     6    1
    94     4     3    2
    95     6     5    1
    96     5     2    1
    97    11    10    1
    98    11    12    1
    99     3     2    1
   100     1     2    1
   101    12    13    2
