@<TRIPOS>MOLECULE
tmp/3q95B00.pdb
 159 149 0 0 0
SMALL
GASTEIGER

@<TRIPOS>ATOM
      1  N         -8.2450   -9.3410   24.3830 N.3    44  MET44      -0.1245
      2  CA        -8.3070   -8.0210   23.7860 C.3    44  MET44       0.1570
      3  C         -8.9340   -7.0330   24.7740 C.2    44  MET44       0.2261
      4  O         -8.4690   -5.8930   24.8810 O.2    44  MET44      -0.2867
      5  CB        -9.0590   -8.0430   22.4410 C.3    44  MET44       0.0387
      6  CG        -8.2320   -8.5770   21.2730 C.3    44  MET44       0.0595
      7  SD        -6.6640   -7.7000   20.9540 S.3    44  MET44      -0.1393
      8  CE        -7.1780   -5.9810   20.8280 C.3    44  MET44       0.0692
      9  N         -6.1480   -6.2510   27.2990 N.3    47  LEU47      -0.1231
     10  CA        -5.1270   -5.3570   26.7350 C.3    47  LEU47       0.1693
     11  C         -5.6370   -3.9490   26.4960 C.2    47  LEU47       0.2592
     12  O         -4.9130   -2.9790   26.7550 O.2    47  LEU47      -0.2718
     13  CB        -4.5460   -5.9280   25.4480 C.3    47  LEU47       0.0284
     14  CG        -3.8410   -7.2850   25.6160 C.3    47  LEU47       0.0019
     15  CD1       -3.2180   -7.7300   24.3020 C.3    47  LEU47       0.0001
     16  CD2       -2.8020   -7.2310   26.7070 C.3    47  LEU47       0.0001
     17  N         -6.8650   -3.8160   26.0220 N.am   48  THR48      -0.1953
     18  CA        -7.3540   -2.4940   25.6610 C.3    48  THR48       0.1897
     19  C         -7.8060   -1.7090   26.8730 C.2    48  THR48       0.2313
     20  O         -7.7100   -0.4810   26.8950 O.2    48  THR48      -0.2863
     21  CB        -8.4880   -2.5340   24.6370 C.3    48  THR48       0.1794
     22  OG1       -9.5360   -3.3770   25.1110 O.3    48  THR48      -0.2208
     23  CG2       -7.9540   -3.0530   23.3070 C.3    48  THR48       0.0378
     24  N         -6.2780   -1.9370   29.7470 N.3    50  LEU50      -0.1231
     25  CA        -4.9730   -1.4750   30.2460 C.3    50  LEU50       0.1693
     26  C         -4.4190   -0.2790   29.4540 C.2    50  LEU50       0.2591
     27  O         -4.0280    0.7250   30.0420 O.2    50  LEU50      -0.2718
     28  CB        -3.9670   -2.6210   30.1960 C.3    50  LEU50       0.0284
     29  CG        -2.5640   -2.3170   30.7140 C.3    50  LEU50       0.0019
     30  CD1       -2.6580   -2.0140   32.1910 C.3    50  LEU50       0.0001
     31  CD2       -1.6160   -3.4840   30.4730 C.3    50  LEU50       0.0001
     32  N         -4.4210   -0.3760   28.1230 N.am   51  ALA51      -0.1980
     33  CA        -3.9880    0.7410   27.2880 C.3    51  ALA51       0.1597
     34  C         -4.7800    1.9880   27.6070 C.2    51  ALA51       0.2287
     35  O         -4.2230    3.0880   27.6890 O.2    51  ALA51      -0.2864
     36  CB        -4.1310    0.4090   25.7980 C.3    51  ALA51       0.0319
     37  N         -3.6060    3.4360   30.8120 N.3    54  GLU54      -0.1245
     38  CA        -2.2520    3.9510   30.6700 C.3    54  GLU54       0.1567
     39  C         -2.2050    5.2720   29.9100 C.2    54  GLU54       0.2260
     40  O         -1.3650    6.1130   30.2000 O.2    54  GLU54      -0.2867
     41  CB        -1.3640    2.9350   29.9970 C.3    54  GLU54       0.0388
     42  CG        -1.0450    1.7830   30.8840 C.3    54  GLU54       0.1160
     43  CD        -0.2130    0.7430   30.1790 C.2    54  GLU54       0.3649
     44  OE1       -0.7020    0.1620   29.1910 O.co2  54  GLU54      -0.2457
     45  OE2        0.9360    0.5100   30.6090 O.co2  54  GLU54      -0.2457
     46  N          1.3040    7.6250   20.4150 N.3    83  TRP83      -0.1227
     47  CA         0.8010    6.9710   21.6420 C.3    83  TRP83       0.1737
     48  C          1.0880    5.4750   21.7330 C.2    83  TRP83       0.2595
     49  O          1.5340    4.9840   22.7950 O.2    83  TRP83      -0.2718
     50  CB        -0.6960    7.2490   21.8280 C.3    83  TRP83       0.0564
     51  CG        -1.5240    6.6530   20.7990 C.ar   83  TRP83       0.0003
     52  CD1       -1.8620    7.2040   19.6210 C.ar   83  TRP83       0.0946
     53  CD2       -2.1380    5.3560   20.8320 C.ar   83  TRP83       0.0152
     54  NE1       -2.6570    6.3410   18.9040 N.ar   83  TRP83      -0.2442
     55  CE2       -2.8550    5.2050   19.6390 C.ar   83  TRP83       0.0810
     56  CE3       -2.1810    4.3340   21.7740 C.ar   83  TRP83       0.0012
     57  CZ2       -3.6170    4.0670   19.3540 C.ar   83  TRP83       0.0191
     58  CZ3       -2.8960    3.1740   21.4730 C.ar   83  TRP83       0.0001
     59  CH2       -3.6090    3.0590   20.2740 C.ar   83  TRP83       0.0015
     60  N          0.9090    4.7530   20.6210 N.am   84  LEU84      -0.1980
     61  CA         1.1230    3.3160   20.6270 C.3    84  LEU84       0.1596
     62  C          2.6050    2.9930   20.6060 C.2    84  LEU84       0.2287
     63  O          3.0180    2.0760   21.2710 O.2    84  LEU84      -0.2864
     64  CB         0.4390    2.6520   19.4640 C.3    84  LEU84       0.0297
     65  CG         0.4550    1.1440   19.3900 C.3    84  LEU84       0.0022
     66  CD1        0.1010    0.4740   20.7150 C.3    84  LEU84       0.0001
     67  CD2       -0.4740    0.6900   18.2310 C.3    84  LEU84       0.0001
     68  N          3.4260    3.3250   24.2630 N.3    87  LEU87      -0.1231
     69  CA         3.0130    2.1760   25.0430 C.3    87  LEU87       0.1693
     70  C          3.9460    1.0130   24.7940 C.2    87  LEU87       0.2591
     71  O          4.2990    0.2870   25.7270 O.2    87  LEU87      -0.2718
     72  CB         1.5880    1.7620   24.7410 C.3    87  LEU87       0.0284
     73  CG         0.4620    2.6460   25.2790 C.3    87  LEU87       0.0019
     74  CD1       -0.8840    2.1680   24.7020 C.3    87  LEU87       0.0001
     75  CD2        0.4380    2.6340   26.7910 C.3    87  LEU87       0.0001
     76  N          4.3270    0.8080   23.5290 N.am   88  MET88      -0.1979
     77  CA         5.1830   -0.3370   23.1700 C.3    88  MET88       0.1605
     78  C          6.5500   -0.2210   23.8150 C.2    88  MET88       0.2287
     79  O          7.0580   -1.1880   24.3470 O.2    88  MET88      -0.2864
     80  CB         5.3140   -0.4550   21.6610 C.3    88  MET88       0.0413
     81  CG         4.0280   -1.0350   21.0510 C.3    88  MET88       0.0598
     82  SD         4.0800   -1.1790   19.2610 S.3    88  MET88      -0.1393
     83  CE         2.6660   -2.3130   19.0030 C.3    88  MET88       0.0692
     84  N          6.2350   -1.1520   27.3740 N.3    91  LEU91      -0.1245
     85  CA         6.0680   -2.6040   27.4790 C.3    91  LEU91       0.1561
     86  C          7.4050   -3.3610   27.3420 C.2    91  LEU91       0.2260
     87  O          7.7510   -4.1970   28.1700 O.2    91  LEU91      -0.2867
     88  CB         5.0820   -3.0730   26.4000 C.3    91  LEU91       0.0270
     89  CG         4.9400   -4.5730   26.2470 C.3    91  LEU91       0.0019
     90  CD1        4.3780   -5.1350   27.5460 C.3    91  LEU91       0.0001
     91  CD2        4.0400   -4.9670   25.0910 C.3    91  LEU91       0.0001
     92  N          9.7120   -2.9030   30.4650 N.3    94  ARG94      -0.1245
     93  CA         9.2590   -3.7180   31.5860 C.3    94  ARG94       0.1563
     94  C          9.5270   -5.1970   31.3660 C.2    94  ARG94       0.2260
     95  O          9.6720   -5.9450   32.3400 O.2    94  ARG94      -0.2867
     96  CB         7.7340   -3.6130   31.7880 C.3    94  ARG94       0.0307
     97  CG         7.1910   -2.2540   32.0090 C.3    94  ARG94       0.0489
     98  CD         5.7420   -2.3010   32.5120 C.3    94  ARG94       0.2205
     99  NE         4.7420   -2.7530   31.5480 N.pl3  94  ARG94      -0.0865
    100  CZ         4.1280   -1.9650   30.6660 C.cat  94  ARG94       0.5346
    101  NH1        4.4620   -0.6920   30.5590 N.pl3  94  ARG94       0.1354
    102  NH2        3.1810   -2.4440   29.8710 N.pl3  94  ARG94       0.1354
    103  N          2.8270   -7.2420   30.4270 N.3   104  PHE104     -0.1241
    104  CA         1.8600   -6.1740   30.1860 C.3   104  PHE104      0.1605
    105  C          1.4730   -5.4470   31.4820 C.2   104  PHE104      0.2264
    106  O          1.2110   -4.2340   31.4780 O.2   104  PHE104     -0.2867
    107  CB         0.6380   -6.7290   29.4920 C.3   104  PHE104      0.0534
    108  CG         0.8120   -6.9080   28.0240 C.ar  104  PHE104     -0.0203
    109  CD1        0.5790   -5.8480   27.1470 C.ar  104  PHE104     -0.0042
    110  CD2        1.2000   -8.1210   27.5030 C.ar  104  PHE104     -0.0042
    111  CE1        0.6980   -6.0040   25.7950 C.ar  104  PHE104     -0.0003
    112  CE2        1.3490   -8.2710   26.1380 C.ar  104  PHE104     -0.0003
    113  CZ         1.0880   -7.2160   25.2810 C.ar  104  PHE104     -0.0000
    114  N         -2.1390  -11.5210   16.0580 N.3   120  MET120     -0.1245
    115  CA        -1.3360  -10.8600   17.0840 C.3   120  MET120      0.1570
    116  C          0.0170  -11.5140   17.3150 C.2   120  MET120      0.2261
    117  O          0.9300  -10.9030   17.8790 O.2   120  MET120     -0.2867
    118  CB        -2.0990  -10.7720   18.4090 C.3   120  MET120      0.0387
    119  CG        -1.5650   -9.6920   19.3200 C.3   120  MET120      0.0595
    120  SD        -2.7430   -9.2530   20.6050 S.3   120  MET120     -0.1393
    121  CE        -2.8470  -10.8370   21.4460 C.3   120  MET120      0.0692
    122  N          2.9200   -9.5640   15.9800 N.3   123  ILE123     -0.1245
    123  CA         3.2360   -8.3800   16.7740 C.3   123  ILE123      0.1561
    124  C          3.9890   -8.7770   18.0400 C.2   123  ILE123      0.2260
    125  O          4.9530   -8.1380   18.4190 O.2   123  ILE123     -0.2867
    126  CB         1.9780   -7.6150   17.2450 C.3   123  ILE123      0.0252
    127  CG1        0.9360   -7.4800   16.1220 C.3   123  ILE123      0.0019
    128  CG2        2.3840   -6.2560   17.7360 C.3   123  ILE123      0.0019
    129  CD1        1.3160   -6.5380   15.0510 C.3   123  ILE123      0.0001
    130  N          7.7440   -7.5450   19.3830 N.3   127  LEU127     -0.1245
    131  CA         7.9450   -6.9160   20.6850 C.3   127  LEU127      0.1561
    132  C          8.9630   -7.7200   21.4850 C.2   127  LEU127      0.2260
    133  O          9.8590   -7.1530   22.1130 O.2   127  LEU127     -0.2867
    134  CB         6.6390   -6.8710   21.4650 C.3   127  LEU127      0.0270
    135  CG         5.6030   -5.8800   20.9240 C.3   127  LEU127      0.0019
    136  CD1        4.2160   -6.2290   21.4070 C.3   127  LEU127      0.0001
    137  CD2        5.9950   -4.4380   21.3240 C.3   127  LEU127      0.0001
    138  N          0.6660   -2.7640   14.7110 N.3   220  GLY220     -0.1225
    139  CA        -0.2610   -2.8090   15.8240 C.3   220  GLY220      0.1811
    140  C         -1.5250   -1.9870   15.5920 C.2   220  GLY220      0.2280
    141  O         -2.6170   -2.3910   15.9700 O.2   220  GLY220     -0.2866
    142  N         -3.6300   -3.7720   13.2600 N.3   223  HIS223     -0.1226
    143  CA        -4.2460   -4.8690   14.0310 C.3   223  HIS223      0.1752
    144  C         -5.4010   -4.3790   14.9070 C.2   223  HIS223      0.2595
    145  O         -6.4680   -4.9920   14.9420 O.2   223  HIS223     -0.2718
    146  CB        -3.2210   -5.6200   14.8970 C.3   223  HIS223      0.0759
    147  CG        -3.8380   -6.7230   15.6930 C.ar  223  HIS223      0.0818
    148  ND1       -4.1420   -6.5960   17.0360 N.ar  223  HIS223     -0.2268
    149  CD2       -4.3020   -7.9400   15.3140 C.ar  223  HIS223      0.1154
    150  CE1       -4.7240   -7.7090   17.4600 C.ar  223  HIS223      0.1986
    151  NE2       -4.8440   -8.5350   16.4340 N.ar  223  HIS223     -0.2212
    152  N         -5.2080   -3.2710   15.6190 N.am  224  LEU224     -0.1980
    153  CA        -6.2660   -2.7730   16.5080 C.3   224  LEU224      0.1596
    154  C         -7.5100   -2.3750   15.7130 C.2   224  LEU224      0.2287
    155  O         -8.6420   -2.6130   16.1360 O.2   224  LEU224     -0.2864
    156  CB        -5.7630   -1.5880   17.3370 C.3   224  LEU224      0.0297
    157  CG        -6.7380   -0.9800   18.3690 C.3   224  LEU224      0.0022
    158  CD1       -7.3940   -2.0550   19.2470 C.3   224  LEU224      0.0001
    159  CD2       -6.0310    0.0530   19.2330 C.3   224  LEU224      0.0001
@<TRIPOS>BOND
     1   142   143    1
     2   143   146    1
     3   143   144    1
     4   138   139    1
     5   146   147    1
     6   144   145    2
     7   144   152   am
     8   129   127    1
     9   149   147   ar
    10   149   151   ar
    11   140   139    1
    12   140   141    2
    13   152   153    1
    14   147   148   ar
    15   154   155    2
    16   154   153    1
    17   122   123    1
    18   114   115    1
    19   127   126    1
    20   151   150   ar
    21   153   156    1
    22   123   126    1
    23   123   124    1
    24   148   150   ar
    25   115   116    1
    26   115   118    1
    27   126   128    1
    28   116   117    2
    29   156   157    1
    30   124   125    2
    31    67    65    1
    32   157   159    1
    33   157   158    1
    34   118   119    1
    35    54    52   ar
    36    54    55   ar
    37    83    82    1
    38    82    81    1
    39   119   120    1
    40    57    55   ar
    41    57    59   ar
    42   130   131    1
    43    65    64    1
    44    65    66    1
    45    64    61    1
    46    52    51   ar
    47    55    53   ar
    48    59    58   ar
    49    46    47    1
    50   120   121    1
    51    62    61    1
    52    62    63    2
    53    60    61    1
    54    60    48   am
    55   131   134    1
    56   131   132    1
    57    51    53   ar
    58    51    50    1
    59     8     7    1
    60    53    56   ar
    61   135   137    1
    62   135   136    1
    63   135   134    1
    64     7     6    1
    65    81    80    1
    66     6     5    1
    67    58    56   ar
    68   132   133    2
    69    47    48    1
    70    47    50    1
    71    80    77    1
    72    48    49    2
    73     5     2    1
    74    77    76    1
    75    77    78    1
    76    23    21    1
    77    76    70   am
    78     2     1    1
    79     2     3    1
    80    78    79    2
    81    68    69    1
    82    15    14    1
    83    21    22    1
    84    21    18    1
    85    74    73    1
    86    72    69    1
    87    72    73    1
    88     3     4    2
    89    70    69    1
    90    70    71    2
    91    91    89    1
    92    73    75    1
    93   113   111   ar
    94   113   112   ar
    95    13    14    1
    96    13    10    1
    97    14    16    1
    98    18    17    1
    99    18    19    1
   100   111   109   ar
   101    36    33    1
   102    17    11   am
   103   112   110   ar
   104    89    88    1
   105    89    90    1
   106    88    85    1
   107    11    10    1
   108    11    12    2
   109    10     9    1
   110    19    20    2
   111   109   108   ar
   112    33    34    1
   113    33    32    1
   114    86    85    1
   115    86    87    2
   116    84    85    1
   117   110   108   ar
   118    34    35    2
   119   108   107    1
   120    32    26   am
   121    44    43   ar
   122    26    27    2
   123    26    25    1
   124   107   104    1
   125    24    25    1
   126   102   100    1
   127    39    40    2
   128    39    38    1
   129    41    38    1
   130    41    42    1
   131    43    45   ar
   132    43    42    1
   133   104   103    1
   134   104   105    1
   135    28    25    1
   136    28    29    1
   137    92    93    1
   138    31    29    1
   139   101   100    1
   140   100    99    2
   141    38    37    1
   142    29    30    1
   143    94    93    1
   144    94    95    2
   145   106   105    2
   146    99    98    1
   147    93    96    1
   148    96    97    1
   149    97    98    1
