@<TRIPOS>MOLECULE
tmp/3q96A00.pdb
 231 221 0 0 0
SMALL
GASTEIGER

@<TRIPOS>ATOM
      1  N         16.8820   -5.5280  -18.0350 N.3    15  ILE15      -0.1245
      2  CA        16.2920   -6.0080  -16.7830 C.3    15  ILE15       0.1561
      3  C         15.4490   -4.9260  -16.1030 C.2    15  ILE15       0.2260
      4  O         14.2240   -4.9530  -16.1990 O.2    15  ILE15      -0.2867
      5  CB        17.3600   -6.6120  -15.8110 C.3    15  ILE15       0.0252
      6  CG1       18.1160   -7.7820  -16.4660 C.3    15  ILE15       0.0019
      7  CG2       16.7210   -7.0620  -14.4960 C.3    15  ILE15       0.0019
      8  CD1       17.2650   -9.0200  -16.8070 C.3    15  ILE15       0.0001
      9  N         19.8350   -1.6000  -15.5760 N.3    23  VAL23      -0.1245
     10  CA        20.5160   -2.8890  -15.5500 C.3    23  VAL23       0.1561
     11  C         20.1450   -3.7280  -16.7770 C.2    23  VAL23       0.2260
     12  O         18.9780   -3.8030  -17.1710 O.2    23  VAL23      -0.2867
     13  CB        20.2290   -3.6670  -14.2350 C.3    23  VAL23       0.0252
     14  CG1       21.0410   -4.9460  -14.1660 C.3    23  VAL23       0.0019
     15  CG2       20.5480   -2.8060  -13.0300 C.3    23  VAL23       0.0019
     16  N         26.1660   -9.4230  -15.3240 N.3    33  ALA33      -0.1231
     17  CA        25.2190   -8.3380  -15.0850 C.3    33  ALA33       0.1694
     18  C         25.9040   -7.0090  -15.3700 C.2    33  ALA33       0.2592
     19  O         27.0960   -6.8540  -15.0990 O.2    33  ALA33      -0.2718
     20  CB        24.7200   -8.3750  -13.6650 C.3    33  ALA33       0.0304
     21  N         25.1570   -6.0600  -15.9270 N.am   34  VAL34      -0.1966
     22  CA        25.7090   -4.7620  -16.2890 C.3    34  VAL34       0.1727
     23  C         24.8040   -3.6460  -15.7860 C.2    34  VAL34       0.2616
     24  O         23.6520   -3.5570  -16.2000 O.2    34  VAL34      -0.2715
     25  CB        25.8750   -4.6180  -17.8240 C.3    34  VAL34       0.0290
     26  CG1       26.6860   -3.3780  -18.1610 C.3    34  VAL34       0.0023
     27  CG2       26.5260   -5.8530  -18.4320 C.3    34  VAL34       0.0023
     28  N         25.3230   -2.8070  -14.8890 N.am   35  LYS35      -0.1977
     29  CA        24.6150   -1.5930  -14.4650 C.3    35  LYS35       0.1596
     30  C         25.1790   -0.3750  -15.1900 C.2    35  LYS35       0.2287
     31  O         26.2920    0.0690  -14.9040 O.2    35  LYS35      -0.2864
     32  CB        24.6870   -1.3760  -12.9480 C.3    35  LYS35       0.0298
     33  CG        23.6480   -0.3760  -12.4370 C.3    35  LYS35       0.0038
     34  CD        24.2430    0.6810  -11.5090 C.3    35  LYS35       0.0206
     35  CE        23.9280    0.4190  -10.0420 C.3    35  LYS35       0.1093
     36  NZ        24.2610    1.6010   -9.1990 N.3    35  LYS35      -0.1314
     37  N         29.6400    9.5230   -8.0550 N.3    49  ALA49      -0.1245
     38  CA        28.8600    8.4160   -7.4960 C.3    49  ALA49       0.1562
     39  C         29.3040    7.0970   -8.1080 C.2    49  ALA49       0.2260
     40  O         29.2980    6.0570   -7.4490 O.2    49  ALA49      -0.2867
     41  CB        27.3760    8.6420   -7.7340 C.3    49  ALA49       0.0290
     42  N         32.6850    6.1130   -6.5130 N.3    52  ASN52      -0.1225
     43  CA        32.4570    5.5720   -5.1680 C.3    52  ASN52       0.1785
     44  C         32.1000    4.0930   -5.2080 C.2    52  ASN52       0.2597
     45  O         32.7510    3.2730   -4.5620 O.2    52  ASN52      -0.2718
     46  CB        31.3450    6.3360   -4.4380 C.3    52  ASN52       0.1169
     47  CG        31.8300    7.6340   -3.8010 C.2    52  ASN52       0.2627
     48  OD1       33.0240    7.9440   -3.8060 O.2    52  ASN52      -0.2716
     49  ND2       30.8950    8.4010   -3.2440 N.am   52  ASN52      -0.0877
     50  N         31.0600    3.7640   -5.9720 N.am   53  GLU53      -0.1979
     51  CA        30.5640    2.3930   -6.0880 C.3    53  GLU53       0.1602
     52  C         31.6840    1.4480   -6.5100 C.2    53  GLU53       0.2287
     53  O         31.8760    0.3960   -5.9010 O.2    53  GLU53      -0.2864
     54  CB        29.3980    2.3380   -7.0800 C.3    53  GLU53       0.0415
     55  CG        28.4620    1.1510   -6.9150 C.3    53  GLU53       0.1163
     56  CD        27.0960    1.3720   -7.5640 C.2    53  GLU53       0.3649
     57  OE1       26.8440    2.4650   -8.1180 O.co2  53  GLU53      -0.2457
     58  OE2       26.2610    0.4460   -7.5200 O.co2  53  GLU53      -0.2457
     59  N         34.4360    1.1150   -3.8430 N.3    56  VAL56      -0.1231
     60  CA        33.9710    0.2420   -2.7700 C.3    56  VAL56       0.1692
     61  C         34.0220   -1.2260   -3.2000 C.2    56  VAL56       0.2591
     62  O         34.6830   -2.0390   -2.5550 O.2    56  VAL56      -0.2718
     63  CB        32.5460    0.6290   -2.2930 C.3    56  VAL56       0.0266
     64  CG1       31.9660   -0.4440   -1.3770 C.3    56  VAL56       0.0020
     65  CG2       32.5660    1.9700   -1.5780 C.3    56  VAL56       0.0020
     66  N         33.3450   -1.5530   -4.3000 N.am   57  LEU57      -0.1980
     67  CA        33.2210   -2.9390   -4.7570 C.3    57  LEU57       0.1596
     68  C         34.5610   -3.6150   -5.0270 C.2    57  LEU57       0.2287
     69  O         34.6690   -4.8330   -4.9300 O.2    57  LEU57      -0.2864
     70  CB        32.3330   -3.0230   -5.9990 C.3    57  LEU57       0.0297
     71  CG        30.8340   -2.7660   -5.8390 C.3    57  LEU57       0.0022
     72  CD1       30.2330   -2.4660   -7.1940 C.3    57  LEU57       0.0001
     73  CD2       30.0970   -3.9240   -5.1710 C.3    57  LEU57       0.0001
     74  N         35.8950   -5.4990   -2.0620 N.3    60  THR60      -0.1218
     75  CA        35.1310   -6.6990   -1.6570 C.3    60  THR60       0.1862
     76  C         35.5360   -7.9540   -2.4280 C.2    60  THR60       0.2287
     77  O         35.8140   -7.8870   -3.6240 O.2    60  THR60      -0.2866
     78  CB        33.6020   -6.5210   -1.8300 C.3    60  THR60       0.1770
     79  OG1       33.2870   -6.3420   -3.2170 O.3    60  THR60      -0.2211
     80  CG2       33.0950   -5.3370   -1.0260 C.3    60  THR60       0.0375
     81  N         28.9720  -11.5090   -0.8310 N.3    65  ILE65      -0.1231
     82  CA        28.9040  -10.2090   -1.4760 C.3    65  ILE65       0.1692
     83  C         28.8720  -10.4100   -2.9800 C.2    65  ILE65       0.2591
     84  O         29.6970  -11.1430   -3.5280 O.2    65  ILE65      -0.2718
     85  CB        30.0740   -9.2770   -1.0630 C.3    65  ILE65       0.0266
     86  CG1       29.8580   -8.7440    0.3520 C.3    65  ILE65       0.0019
     87  CG2       30.1790   -8.0820   -2.0010 C.3    65  ILE65       0.0020
     88  CD1       30.3220   -9.6610    1.4280 C.3    65  ILE65       0.0001
     89  N         27.9010   -9.7720   -3.6340 N.am   66  LEU66      -0.1980
     90  CA        27.7800   -9.7990   -5.0870 C.3    66  LEU66       0.1596
     91  C         29.1380   -9.5330   -5.7320 C.2    66  LEU66       0.2287
     92  O         29.7820   -8.5140   -5.4500 O.2    66  LEU66      -0.2864
     93  CB        26.7620   -8.7600   -5.5440 C.3    66  LEU66       0.0297
     94  CG        26.4980   -8.6370   -7.0410 C.3    66  LEU66       0.0022
     95  CD1       25.5130   -9.6980   -7.5040 C.3    66  LEU66       0.0001
     96  CD2       25.9720   -7.2560   -7.3340 C.3    66  LEU66       0.0001
     97  N         28.9940   -0.6380  -14.6560 N.3    79  ILE79      -0.1245
     98  CA        29.5580   -1.5500  -13.6620 C.3    79  ILE79       0.1561
     99  C         29.1270   -2.9820  -13.9760 C.2    79  ILE79       0.2260
    100  O         27.9520   -3.2450  -14.2100 O.2    79  ILE79      -0.2867
    101  CB        29.1800   -1.1470  -12.2150 C.3    79  ILE79       0.0252
    102  CG1       29.7750    0.2260  -11.8870 C.3    79  ILE79       0.0019
    103  CG2       29.6770   -2.1860  -11.2110 C.3    79  ILE79       0.0019
    104  CD1       29.4640    0.7340  -10.5020 C.3    79  ILE79       0.0001
    105  N         29.0520   -6.9860  -12.8290 N.3    81  THR81      -0.1203
    106  CA        29.1120   -7.9890  -11.7740 C.3    81  THR81       0.1994
    107  C         28.7180   -9.3250  -12.3870 C.2    81  THR81       0.2618
    108  O         28.2680   -9.3640  -13.5280 O.2    81  THR81      -0.2717
    109  CB        28.1360   -7.6720  -10.6060 C.3    81  THR81       0.1784
    110  OG1       26.8010   -8.0370  -10.9710 O.3    81  THR81      -0.2211
    111  CG2       28.1740   -6.2010  -10.2260 C.3    81  THR81       0.0376
    112  N         28.8780  -10.4100  -11.6290 N.am   82  GLN82      -0.1965
    113  CA        28.3910  -11.7360  -12.0310 C.3    82  GLN82       0.1733
    114  C         26.8960  -11.6990  -12.3310 C.2    82  GLN82       0.2616
    115  O         26.1870  -10.7980  -11.8730 O.2    82  GLN82      -0.2715
    116  CB        28.6470  -12.7620  -10.9230 C.3    82  GLN82       0.0408
    117  CG        27.8340  -12.5110   -9.6460 C.3    82  GLN82       0.0908
    118  CD        28.0180  -13.5780   -8.5820 C.2    82  GLN82       0.2608
    119  OE1       28.2440  -13.2690   -7.4100 O.2    82  GLN82      -0.2717
    120  NE2       27.9150  -14.8410   -8.9840 N.am   82  GLN82      -0.0878
    121  N         26.4130  -12.6700  -13.0970 N.am   83  TRP83      -0.1960
    122  CA        24.9770  -12.8310  -13.2360 C.3    83  TRP83       0.1771
    123  C         24.4730  -13.8610  -12.2270 C.2    83  TRP83       0.2619
    124  O         24.9710  -14.9860  -12.1760 O.2    83  TRP83      -0.2715
    125  CB        24.5750  -13.2290  -14.6540 C.3    83  TRP83       0.0590
    126  CG        23.0970  -13.3990  -14.7510 C.ar   83  TRP83       0.0006
    127  CD1       22.4010  -14.5740  -14.7060 C.ar   83  TRP83       0.0946
    128  CD2       22.1190  -12.3570  -14.8480 C.ar   83  TRP83       0.0152
    129  NE1       21.0510  -14.3300  -14.7920 N.ar   83  TRP83      -0.2442
    130  CE2       20.8500  -12.9770  -14.8780 C.ar   83  TRP83       0.0810
    131  CE3       22.1920  -10.9620  -14.9250 C.ar   83  TRP83       0.0012
    132  CZ2       19.6620  -12.2490  -14.9840 C.ar   83  TRP83       0.0191
    133  CZ3       21.0130  -10.2400  -15.0280 C.ar   83  TRP83       0.0001
    134  CH2       19.7630  -10.8870  -15.0590 C.ar   83  TRP83       0.0015
    135  N         23.4860  -13.4730  -11.4240 N.am   84  CYS84      -0.1968
    136  CA        22.9280  -14.3660  -10.4120 C.3    84  CYS84       0.1712
    137  C         21.5670  -14.9060  -10.8230 C.2    84  CYS84       0.2296
    138  O         20.7350  -14.1700  -11.3630 O.2    84  CYS84      -0.2864
    139  CB        22.8330  -13.6610   -9.0590 C.3    84  CYS84       0.0983
    140  SG        24.4280  -13.3910   -8.2670 S.3    84  CYS84      -0.0798
    141  N         18.0420  -16.3790   -9.6520 N.3    86  GLY86      -0.1225
    142  CA        17.0970  -16.4730   -8.5420 C.3    86  GLY86       0.1811
    143  C         16.2640  -15.2170   -8.3800 C.2    86  GLY86       0.2280
    144  O         15.9200  -14.5560   -9.3590 O.2    86  GLY86      -0.2866
    145  N         31.7740   -6.5940    5.3090 N.3   119  LEU119     -0.1245
    146  CA        31.7330   -5.1900    4.9070 C.3   119  LEU119      0.1561
    147  C         32.1940   -4.2700    6.0250 C.2   119  LEU119      0.2260
    148  O         32.9610   -3.3370    5.7910 O.2   119  LEU119     -0.2867
    149  CB        30.3220   -4.7850    4.4740 C.3   119  LEU119      0.0270
    150  CG        29.7470   -5.3600    3.1800 C.3   119  LEU119      0.0019
    151  CD1       28.2420   -5.2450    3.2200 C.3   119  LEU119      0.0001
    152  CD2       30.3000   -4.6500    1.9570 C.3   119  LEU119      0.0001
    153  N         33.1920   -0.4220    5.5060 N.3   124  ILE124     -0.1231
    154  CA        32.1030   -0.1790    4.5560 C.3   124  ILE124      0.1692
    155  C         30.7650   -0.2210    5.2910 C.2   124  ILE124      0.2592
    156  O         30.4010   -1.2360    5.8870 O.2   124  ILE124     -0.2718
    157  CB        32.0940   -1.2000    3.3870 C.3   124  ILE124      0.0266
    158  CG1       33.4450   -1.2280    2.6730 C.3   124  ILE124      0.0019
    159  CG2       30.9970   -0.8610    2.3830 C.3   124  ILE124      0.0020
    160  CD1       33.6700   -2.4790    1.8300 C.3   124  ILE124      0.0001
    161  N         30.0510    0.8980    5.2520 N.am  125  ILE125     -0.1966
    162  CA        28.7180    1.0020    5.8310 C.3   125  ILE125      0.1727
    163  C         27.7230    0.8850    4.6780 C.2   125  ILE125      0.2616
    164  O         27.7240    1.7300    3.7870 O.2   125  ILE125     -0.2715
    165  CB        28.5400    2.3580    6.5810 C.3   125  ILE125      0.0290
    166  CG1       29.5780    2.4960    7.7070 C.3   125  ILE125      0.0022
    167  CG2       27.1200    2.5000    7.1330 C.3   125  ILE125      0.0023
    168  CD1       29.8720    3.9310    8.1360 C.3   125  ILE125      0.0001
    169  N         26.8850   -0.1520    4.6810 N.am  126  HIS126     -0.1959
    170  CA        25.9860   -0.3960    3.5440 C.3   126  HIS126      0.1787
    171  C         25.0660    0.7910    3.2380 C.2   126  HIS126      0.2620
    172  O         24.9360    1.1990    2.0790 O.2   126  HIS126     -0.2715
    173  CB        25.1680   -1.6740    3.7170 C.3   126  HIS126      0.0785
    174  CG        24.4820   -2.1220    2.4600 C.ar  126  HIS126      0.0821
    175  ND1       23.4400   -1.4230    1.8870 N.ar  126  HIS126     -0.2267
    176  CD2       24.6880   -3.2010    1.6680 C.ar  126  HIS126      0.1154
    177  CE1       23.0390   -2.0470    0.7940 C.ar  126  HIS126      0.1986
    178  NE2       23.7730   -3.1340    0.6440 N.ar  126  HIS126     -0.2212
    179  N         24.4290    1.3340    4.2710 N.am  127  ARG127     -0.1977
    180  CA        23.6020    2.5340    4.1270 C.3   127  ARG127      0.1597
    181  C         22.1910    2.2410    3.6140 C.2   127  ARG127      0.2287
    182  O         21.3190    3.1090    3.6580 O.2   127  ARG127     -0.2864
    183  CB        24.3060    3.5840    3.2370 C.3   127  ARG127      0.0334
    184  CG        25.0150    4.6950    4.0090 C.3   127  ARG127      0.0492
    185  CD        26.3840    5.0620    3.4440 C.3   127  ARG127      0.2205
    186  NE        26.9920    6.0920    4.2920 N.pl3 127  ARG127     -0.0865
    187  CZ        28.2560    6.1040    4.7290 C.cat 127  ARG127      0.5346
    188  NH1       28.6660    7.1030    5.5080 N.pl3 127  ARG127      0.1354
    189  NH2       29.1090    5.1280    4.4100 N.pl3 127  ARG127      0.1354
    190  N         20.0190  -10.6980   -2.6000 N.3   135  PHE135     -0.1241
    191  CA        19.6680  -11.6050   -3.6700 C.3   135  PHE135      0.1605
    192  C         20.0110  -13.0330   -3.2880 C.2   135  PHE135      0.2264
    193  O         21.0800  -13.3090   -2.7430 O.2   135  PHE135     -0.2867
    194  CB        20.3650  -11.2170   -4.9680 C.3   135  PHE135      0.0534
    195  CG        19.7940  -11.8880   -6.1800 C.ar  135  PHE135     -0.0203
    196  CD1       18.8750  -11.2230   -6.9820 C.ar  135  PHE135     -0.0042
    197  CD2       20.1700  -13.1850   -6.5180 C.ar  135  PHE135     -0.0042
    198  CE1       18.3410  -11.8340   -8.0990 C.ar  135  PHE135     -0.0003
    199  CE2       19.6420  -13.8050   -7.6260 C.ar  135  PHE135     -0.0003
    200  CZ        18.7290  -13.1290   -8.4240 C.ar  135  PHE135     -0.0000
    201  N         24.7840  -10.0990   -0.9790 N.3   144  ILE144     -0.1231
    202  CA        24.4040   -8.7380   -0.6190 C.3   144  ILE144      0.1692
    203  C         24.8600   -7.7410   -1.6940 C.2   144  ILE144      0.2593
    204  O         25.9570   -7.8690   -2.2360 O.2   144  ILE144     -0.2718
    205  CB        25.0030   -8.3650    0.7660 C.3   144  ILE144      0.0266
    206  CG1       24.3100   -9.1640    1.8740 C.3   144  ILE144      0.0019
    207  CG2       24.9260   -6.8470    1.0330 C.3   144  ILE144      0.0020
    208  CD1       24.9530   -9.0160    3.2300 C.3   144  ILE144      0.0001
    209  N         24.0140   -6.7620   -2.0030 N.am  145  GLY145     -0.1942
    210  CA        24.3890   -5.6770   -2.9120 C.3   145  GLY145      0.2014
    211  C         23.5030   -4.4580   -2.7560 C.2   145  GLY145      0.2639
    212  O         22.7000   -4.3900   -1.8320 O.2   145  GLY145     -0.2714
    213  N         23.6690   -3.4830   -3.6450 N.am  146  ASP146     -0.1957
    214  CA        22.7210   -2.3660   -3.7590 C.3   146  ASP146      0.1840
    215  C         22.0840   -2.3630   -5.1500 C.2   146  ASP146      0.2622
    216  O         22.6140   -1.7680   -6.0940 O.2   146  ASP146     -0.2715
    217  CB        23.3870   -1.0110   -3.4540 C.3   146  ASP146      0.1450
    218  CG        22.3750    0.0860   -3.0700 C.2   146  ASP146      0.3671
    219  OD1       22.7180    0.9380   -2.2130 O.co2 146  ASP146     -0.2456
    220  OD2       21.2440    0.1040   -3.6120 O.co2 146  ASP146     -0.2456
    221  N         20.9440   -3.0350   -5.2660 N.am  147  PHE147     -0.1974
    222  CA        20.2140   -3.1060   -6.5240 C.3   147  PHE147      0.1639
    223  C         19.4060   -1.8340   -6.7870 C.2   147  PHE147      0.2290
    224  O         18.5650   -1.7930   -7.6810 O.2   147  PHE147     -0.2864
    225  CB        19.3200   -4.3450   -6.5410 C.3   147  PHE147      0.0560
    226  CG        20.0840   -5.6380   -6.5400 C.ar  147  PHE147     -0.0200
    227  CD1       20.5290   -6.2000   -5.3490 C.ar  147  PHE147     -0.0042
    228  CD2       20.3710   -6.2900   -7.7310 C.ar  147  PHE147     -0.0042
    229  CE1       21.2450   -7.3960   -5.3440 C.ar  147  PHE147     -0.0003
    230  CE2       21.0840   -7.4830   -7.7360 C.ar  147  PHE147     -0.0003
    231  CZ        21.5200   -8.0380   -6.5370 C.ar  147  PHE147     -0.0000
@<TRIPOS>BOND
     1    27    25    1
     2    26    25    1
     3     1     2    1
     4    25    22    1
     5    12    11    2
     6     8     6    1
     7     2     3    1
     8     2     5    1
     9    11    10    1
    10     6     5    1
    11    22    21    1
    12    22    23    1
    13    24    23    2
    14     4     3    2
    15    21    18   am
    16     5     7    1
    17    23    28   am
    18     9    10    1
    19    10    13    1
    20    18    19    2
    21    18    17    1
    22    16    17    1
    23    30    31    2
    24    30    29    1
    25    17    20    1
    26   134   133   ar
    27   134   132   ar
    28   133   131   ar
    29   132   130   ar
    30   131   128   ar
    31    28    29    1
    32   130   128   ar
    33   130   129   ar
    34   128   126   ar
    35   129   127   ar
    36   126   127   ar
    37   126   125    1
    38    97    98    1
    39   125   122    1
    40    29    32    1
    41    13    14    1
    42    13    15    1
    43   100    99    2
    44    99    98    1
    45    98   101    1
    46   108   107    2
    47   122   121    1
    48   122   123    1
    49   121   114   am
    50    32    33    1
    51   105   106    1
    52    33    34    1
    53   107   106    1
    54   107   112   am
    55   114   113    1
    56   114   115    2
    57   123   124    2
    58   123   135   am
    59   101   102    1
    60   101   103    1
    61   113   112    1
    62   113   116    1
    63   102   104    1
    64   106   109    1
    65    34    35    1
    66   135   136    1
    67   138   137    2
    68   110   109    1
    69   116   117    1
    70   137   136    1
    71   109   111    1
    72   136   139    1
    73    35    36    1
    74   141   142    1
    75   117   118    1
    76   144   143    2
    77   139   140    1
    78   120   118   am
    79   118   119    2
    80   142   143    1
    81   200   198   ar
    82   200   199   ar
    83    57    56   ar
    84    39    38    1
    85    39    40    2
    86   198   196   ar
    87    37    38    1
    88   230   228   ar
    89   230   231   ar
    90    41    38    1
    91   228   226   ar
    92   224   223    2
    93   199   197   ar
    94    56    58   ar
    95    56    55    1
    96    95    94    1
    97    96    94    1
    98    72    71    1
    99    54    55    1
   100    54    51    1
   101    94    93    1
   102   196   195   ar
   103   223   222    1
   104   225   226    1
   105   225   222    1
   106   226   227   ar
   107   231   229   ar
   108   222   221    1
   109   197   195   ar
   110    42    43    1
   111    52    51    1
   112    52    53    2
   113   195   194    1
   114   216   215    2
   115    51    50    1
   116    70    71    1
   117    70    67    1
   118    50    44   am
   119    71    73    1
   120    91    92    2
   121    91    90    1
   122    93    90    1
   123   227   229   ar
   124   221   215   am
   125    44    43    1
   126    44    45    2
   127    43    46    1
   128   215   214    1
   129    90    89    1
   130    68    69    2
   131    68    67    1
   132   194   191    1
   133    67    66    1
   134    46    47    1
   135    66    61   am
   136    59    60    1
   137    48    47    2
   138    47    49   am
   139   214   213    1
   140   214   217    1
   141   191   192    1
   142   191   190    1
   143   213   211   am
   144    89    83   am
   145    77    76    2
   146   220   218   ar
   147    84    83    2
   148   217   218    1
   149   192   193    2
   150    79    78    1
   151    61    60    1
   152    61    62    2
   153   218   219   ar
   154    83    82    1
   155   210   211    1
   156   210   209    1
   157    60    63    1
   158   211   212    2
   159    76    75    1
   160    63    65    1
   161    63    64    1
   162   204   203    2
   163    74    75    1
   164   209   203   am
   165    87    85    1
   166    78    75    1
   167    78    80    1
   168   203   202    1
   169    82    85    1
   170    82    81    1
   171    85    86    1
   172   201   202    1
   173   202   205    1
   174    86    88    1
   175   178   177   ar
   176   178   176   ar
   177   205   207    1
   178   205   206    1
   179   177   175   ar
   180   176   174   ar
   181   160   158    1
   182   206   208    1
   183   175   174   ar
   184   152   150    1
   185   172   171    2
   186   159   157    1
   187   174   173    1
   188   158   157    1
   189   150   151    1
   190   150   149    1
   191   183   184    1
   192   183   180    1
   193   171   170    1
   194   171   179   am
   195   157   154    1
   196   185   184    1
   197   185   186    1
   198   170   173    1
   199   170   169    1
   200   181   182    2
   201   181   180    1
   202   164   163    2
   203   180   179    1
   204   186   187    2
   205   189   187    1
   206   149   146    1
   207   154   155    1
   208   154   153    1
   209   163   169   am
   210   163   162    1
   211   187   188    1
   212   146   145    1
   213   146   147    1
   214   161   155   am
   215   161   162    1
   216   155   156    2
   217   148   147    2
   218   162   165    1
   219   165   167    1
   220   165   166    1
   221   166   168    1
