@<TRIPOS>MOLECULE
tmp/3q99B03.pdb
 160 158 0 0 0
SMALL
GASTEIGER

@<TRIPOS>ATOM
      1  N          7.4400    5.5660   53.6620 N.3   108  CYS108     -0.1235
      2  CA         7.1110    4.3260   54.4170 C.3   108  CYS108      0.1677
      3  C          6.0200    3.4650   53.7660 C.2   108  CYS108      0.2270
      4  O          4.8430    3.8750   53.6310 O.2   108  CYS108     -0.2867
      5  CB         6.7350    4.6210   55.8820 C.3   108  CYS108      0.0956
      6  SG         6.4330    3.1100   56.8750 S.3   108  CYS108     -0.0801
      7  N         20.3830    3.8650   64.1370 N.3   171  GLN171     -0.1245
      8  CA        19.3560    2.9020   64.5570 C.3   171  GLN171      0.1566
      9  C         19.7370    2.4300   65.9600 C.2   171  GLN171      0.2260
     10  O         20.9290    2.3870   66.2850 O.2   171  GLN171     -0.2867
     11  CB        19.2650    1.6870   63.6210 C.3   171  GLN171      0.0367
     12  CG        18.7850    1.9550   62.1560 C.3   171  GLN171      0.0905
     13  CD        18.6270    0.6320   61.3480 C.2   171  GLN171      0.2608
     14  OE1       18.3280   -0.4470   61.9110 O.2   171  GLN171     -0.2717
     15  NE2       18.8440    0.7080   60.0640 N.am  171  GLN171     -0.0878
     16  N         22.4600   -1.7290   65.5310 N.3   174  ARG174     -0.1245
     17  CA        23.1730   -1.7710   64.2720 C.3   174  ARG174      0.1563
     18  C         24.5290   -2.3630   64.5660 C.2   174  ARG174      0.2260
     19  O         25.0020   -2.2770   65.6990 O.2   174  ARG174     -0.2867
     20  CB        23.3420   -0.3530   63.7380 C.3   174  ARG174      0.0307
     21  CG        22.4120   -0.0120   62.6280 C.3   174  ARG174      0.0489
     22  CD        22.9550    1.1020   61.7420 C.3   174  ARG174      0.2205
     23  NE        22.6250    0.8700   60.3420 N.pl3 174  ARG174     -0.0865
     24  CZ        22.8140    1.7540   59.3740 C.cat 174  ARG174      0.5346
     25  NH1       23.3100    2.9360   59.6510 N.pl3 174  ARG174      0.1354
     26  NH2       22.4820    1.4670   58.1220 N.pl3 174  ARG174      0.1354
     27  N         21.2800  -11.5480   61.4300 N.3   254  TRP254     -0.1227
     28  CA        20.9020  -10.1430   61.5290 C.3   254  TRP254      0.1737
     29  C         20.0340   -9.9440   62.7580 C.2   254  TRP254      0.2595
     30  O         19.5680  -10.9160   63.3410 O.2   254  TRP254     -0.2718
     31  CB        20.1340   -9.7230   60.2810 C.3   254  TRP254      0.0564
     32  CG        20.1620   -8.2810   60.0150 C.ar  254  TRP254      0.0003
     33  CD1       19.1270   -7.4070   60.1760 C.ar  254  TRP254      0.0946
     34  CD2       21.2740   -7.5080   59.5260 C.ar  254  TRP254      0.0152
     35  NE1       19.5280   -6.1490   59.8280 N.ar  254  TRP254     -0.2442
     36  CE2       20.8320   -6.1790   59.4120 C.ar  254  TRP254      0.0810
     37  CE3       22.5810   -7.8210   59.1530 C.ar  254  TRP254      0.0012
     38  CZ2       21.6550   -5.1460   58.9590 C.ar  254  TRP254      0.0191
     39  CZ3       23.4040   -6.8130   58.7000 C.ar  254  TRP254      0.0001
     40  CH2       22.9410   -5.4820   58.6060 C.ar  254  TRP254      0.0015
     41  N         19.7870   -8.6900   63.1390 N.am  255  TYR255     -0.1976
     42  CA        18.9640   -8.3990   64.2920 C.3   255  TYR255      0.1639
     43  C         17.4880   -8.2790   63.8930 C.2   255  TYR255      0.2290
     44  O         17.1560   -7.9100   62.7750 O.2   255  TYR255     -0.2864
     45  CB        19.4580   -7.1340   64.9960 C.3   255  TYR255      0.0560
     46  CG        19.5990   -5.9370   64.0710 C.ar  255  TYR255     -0.0198
     47  CD1       18.5240   -5.0690   63.8540 C.ar  255  TYR255     -0.0009
     48  CD2       20.8240   -5.6520   63.4200 C.ar  255  TYR255     -0.0009
     49  CE1       18.6600   -3.9490   63.0370 C.ar  255  TYR255      0.0417
     50  CE2       20.9590   -4.5360   62.5790 C.ar  255  TYR255      0.0417
     51  CZ        19.8600   -3.6870   62.4060 C.ar  255  TYR255      0.1957
     52  OH        19.9580   -2.5830   61.5860 O.3   255  TYR255     -0.2866
     53  N         14.3090   -3.2740   63.8150 N.3   258  PRO258     -0.2116
     54  CA        14.7810   -2.0650   63.1360 C.3   258  PRO258      0.1372
     55  C         14.1840   -0.8210   63.7770 C.2   258  PRO258      0.2244
     56  O         12.9620   -0.6280   63.7430 O.2   258  PRO258     -0.2868
     57  CB        14.2550   -2.2310   61.7000 C.3   258  PRO258      0.0268
     58  CG        13.0730   -3.1120   61.8280 C.3   258  PRO258      0.0207
     59  CD        13.1760   -3.9040   63.1180 C.3   258  PRO258      0.0892
     60  N         14.6770    3.2370   63.8250 N.3   260  VAL260     -0.1245
     61  CA        15.3100    4.4710   63.3410 C.3   260  VAL260      0.1561
     62  C         15.3790    5.4500   64.4960 C.2   260  VAL260      0.2260
     63  O         14.3840    5.7280   65.1500 O.2   260  VAL260     -0.2867
     64  CB        14.5750    4.9990   62.1190 C.3   260  VAL260      0.0252
     65  CG1       15.0560    6.4150   61.6880 C.3   260  VAL260      0.0019
     66  CG2       14.7430    3.9780   60.9180 C.3   260  VAL260      0.0019
     67  N         11.9030    5.2710   66.7170 N.3   277  PHE277     -0.1227
     68  CA        10.6990    4.5010   66.4200 C.3   277  PHE277      0.1736
     69  C         11.0940    3.2160   65.7060 C.2   277  PHE277      0.2596
     70  O         12.1600    3.1360   65.0970 O.2   277  PHE277     -0.2718
     71  CB         9.6810    5.3520   65.6140 C.3   277  PHE277      0.0547
     72  CG        10.2630    5.9910   64.3560 C.ar  277  PHE277     -0.0202
     73  CD1       10.2210    5.3320   63.1240 C.ar  277  PHE277     -0.0042
     74  CD2       10.8570    7.2610   64.4120 C.ar  277  PHE277     -0.0042
     75  CE1       10.7530    5.9170   61.9710 C.ar  277  PHE277     -0.0003
     76  CE2       11.3960    7.8520   63.2710 C.ar  277  PHE277     -0.0003
     77  CZ        11.3380    7.1730   62.0300 C.ar  277  PHE277     -0.0000
     78  N         10.2520    2.2060   65.8110 N.am  278  SER278     -0.1938
     79  CA        10.5690    0.9110   65.2640 C.3   278  SER278      0.2055
     80  C          9.2870    0.2470   64.7890 C.2   278  SER278      0.2644
     81  O          8.2120    0.4950   65.3230 O.2   278  SER278     -0.2714
     82  CB        11.2170    0.0310   66.3430 C.3   278  SER278      0.2130
     83  OG        10.3600   -0.0720   67.4830 O.3   278  SER278     -0.2179
     84  N          9.4200   -0.6290   63.8030 N.am  279  GLY279     -0.1939
     85  CA         8.3180   -1.4900   63.4060 C.3   279  GLY279      0.2014
     86  C          8.8420   -2.9050   63.2490 C.2   279  GLY279      0.2639
     87  O          9.3320   -3.5080   64.2150 O.2   279  GLY279     -0.2714
     88  N          8.7370   -3.4470   62.0480 N.am  280  TRP280     -0.1959
     89  CA         9.3950   -4.7140   61.7280 C.3   280  TRP280      0.1771
     90  C          9.9540   -4.6900   60.2850 C.2   280  TRP280      0.2620
     91  O          9.6040   -3.8220   59.4830 O.2   280  TRP280     -0.2715
     92  CB         8.4650   -5.9050   61.9620 C.3   280  TRP280      0.0590
     93  CG         7.1000   -5.8100   61.3090 C.ar  280  TRP280      0.0006
     94  CD1        6.7970   -6.0800   59.9920 C.ar  280  TRP280      0.0946
     95  CD2        5.8560   -5.4390   61.9370 C.ar  280  TRP280      0.0152
     96  NE1        5.4460   -5.8890   59.7680 N.ar  280  TRP280     -0.2442
     97  CE2        4.8450   -5.5020   60.9400 C.ar  280  TRP280      0.0810
     98  CE3        5.4970   -5.0600   63.2450 C.ar  280  TRP280      0.0012
     99  CZ2        3.4830   -5.2060   61.2140 C.ar  280  TRP280      0.0191
    100  CZ3        4.1360   -4.7690   63.5240 C.ar  280  TRP280      0.0001
    101  CH2        3.1510   -4.8560   62.5070 C.ar  280  TRP280      0.0015
    102  N         10.8370   -5.6260   59.9700 N.am  281  TYR281     -0.1960
    103  CA        11.5310   -5.5850   58.6900 C.3   281  TYR281      0.1771
    104  C         10.6460   -6.0980   57.5750 C.2   281  TYR281      0.2619
    105  O          9.8460   -7.0250   57.7630 O.2   281  TYR281     -0.2715
    106  CB        12.7780   -6.4740   58.7340 C.3   281  TYR281      0.0574
    107  CG        14.0500   -5.7840   59.1340 C.ar  281  TYR281     -0.0198
    108  CD1       14.7110   -6.1310   60.3120 C.ar  281  TYR281     -0.0009
    109  CD2       14.6250   -4.7940   58.3050 C.ar  281  TYR281     -0.0009
    110  CE1       15.9090   -5.4950   60.6810 C.ar  281  TYR281      0.0417
    111  CE2       15.8180   -4.1410   58.6610 C.ar  281  TYR281      0.0417
    112  CZ        16.4540   -4.5070   59.8610 C.ar  281  TYR281      0.1957
    113  OH        17.6410   -3.8940   60.1980 O.3   281  TYR281     -0.2866
    114  N         10.8040   -5.4850   56.4130 N.am  282  MET282     -0.1977
    115  CA        10.4590   -6.1100   55.1640 C.3   282  MET282      0.1605
    116  C         11.7370   -6.7920   54.6760 C.2   282  MET282      0.2287
    117  O         12.8450   -6.2090   54.7590 O.2   282  MET282     -0.2864
    118  CB         9.9680   -5.0550   54.1540 C.3   282  MET282      0.0413
    119  CG         9.7390   -5.6080   52.7080 C.3   282  MET282      0.0598
    120  SD         8.8320   -4.4250   51.6790 S.3   282  MET282     -0.1393
    121  CE        10.1720   -3.3110   51.2320 C.3   282  MET282      0.0692
    122  N         15.0170   -5.2620   52.8550 N.3   285  GLU285     -0.1245
    123  CA        15.9150   -4.3370   53.5360 C.3   285  GLU285      0.1567
    124  C         17.2130   -5.0400   53.9460 C.2   285  GLU285      0.2260
    125  O         18.3030   -4.4820   53.7840 O.2   285  GLU285     -0.2867
    126  CB        15.2460   -3.7320   54.7690 C.3   285  GLU285      0.0388
    127  CG        13.9660   -2.9190   54.4500 C.3   285  GLU285      0.1160
    128  CD        13.3340   -2.3800   55.7250 C.2   285  GLU285      0.3649
    129  OE1       13.9220   -1.4330   56.2580 O.co2 285  GLU285     -0.2457
    130  OE2       12.2730   -2.8870   56.1790 O.co2 285  GLU285     -0.2457
    131  N         19.4850   -4.9640   50.3790 N.3   289  ARG289     -0.1231
    132  CA        20.2900   -3.7930   50.6490 C.3   289  ARG289      0.1694
    133  C         21.4410   -4.0880   51.6050 C.2   289  ARG289      0.2592
    134  O         22.5810   -3.8600   51.2590 O.2   289  ARG289     -0.2718
    135  CB        19.4100   -2.6230   51.1770 C.3   289  ARG289      0.0321
    136  CG        18.1770   -2.2430   50.2660 C.3   289  ARG289      0.0489
    137  CD        18.5540   -1.7310   48.8570 C.3   289  ARG289      0.2205
    138  NE        19.6900   -0.8220   48.8660 N.pl3 289  ARG289     -0.0865
    139  CZ        19.6260    0.4540   49.2390 C.cat 289  ARG289      0.5346
    140  NH1       18.4460    1.0010   49.6160 N.pl3 289  ARG289      0.1354
    141  NH2       20.7430    1.1740   49.2350 N.pl3 289  ARG289      0.1354
    142  N         21.1250   -4.5860   52.7980 N.am  290  ASP290     -0.1974
    143  CA        22.1200   -4.7640   53.8540 C.3   290  ASP290      0.1709
    144  C         23.1610   -5.8140   53.4780 C.2   290  ASP290      0.2293
    145  O         24.3470   -5.6370   53.7760 O.2   290  ASP290     -0.2864
    146  CB        21.4640   -5.0300   55.2380 C.3   290  ASP290      0.1436
    147  CG        20.5190   -3.9040   55.6620 C.2   290  ASP290      0.3671
    148  OD1       20.6950   -2.7820   55.1660 O.co2 290  ASP290     -0.2456
    149  OD2       19.5650   -4.1310   56.4600 O.co2 290  ASP290     -0.2456
    150  N         27.8310   -2.3320   51.3930 N.3   296  ARG296     -0.1245
    151  CA        27.4390   -2.9850   52.6590 C.3   296  ARG296      0.1563
    152  C         28.1210   -4.3510   52.8020 C.2   296  ARG296      0.2260
    153  O         29.3040   -4.4640   52.5310 O.2   296  ARG296     -0.2867
    154  CB        25.9050   -3.0870   52.7650 C.3   296  ARG296      0.0307
    155  CG        25.1530   -1.7530   52.5530 C.3   296  ARG296      0.0489
    156  CD        25.2530   -0.7390   53.7330 C.3   296  ARG296      0.2205
    157  NE        24.8680   -1.2540   55.0780 N.pl3 296  ARG296     -0.0865
    158  CZ        23.6170   -1.3490   55.5350 C.cat 296  ARG296      0.5346
    159  NH1       22.6000   -1.0110   54.7460 N.pl3 296  ARG296      0.1354
    160  NH2       23.3670   -1.7830   56.7800 N.pl3 296  ARG296      0.1354
@<TRIPOS>BOND
     1   137   138    1
     2   137   136    1
     3   138   139    2
     4   141   139    1
     5   139   140    1
     6   136   135    1
     7   131   132    1
     8   132   135    1
     9   132   133    1
    10   121   120    1
    11   134   133    2
    12   150   151    1
    13   133   142   am
    14   120   119    1
    15   153   152    2
    16   155   154    1
    17   155   156    1
    18   151   154    1
    19   151   152    1
    20   119   118    1
    21   142   143    1
    22   122   123    1
    23   144   145    2
    24   144   143    1
    25   123   124    1
    26   123   126    1
    27     4     3    2
    28     1     2    1
    29   156   157    1
    30     3     2    1
    31   125   124    2
    32   143   146    1
    33   118   115    1
    34     2     5    1
    35   127   126    1
    36   127   128    1
    37   116   117    2
    38   116   115    1
    39   159   158    1
    40   157   158    2
    41   115   114    1
    42   148   147   ar
    43   146   147    1
    44   158   160    1
    45   147   149   ar
    46   128   130   ar
    47   128   129   ar
    48     5     6    1
    49   114   104   am
    50   104   105    2
    51   104   103    1
    52    26    24    1
    53   109   111   ar
    54   109   107   ar
    55    40    39   ar
    56    40    38   ar
    57   111   112   ar
    58   103   106    1
    59   103   102    1
    60    39    37   ar
    61   106   107    1
    62    38    36   ar
    63   107   108   ar
    64    37    34   ar
    65    24    25    1
    66    24    23    2
    67    36    34   ar
    68    36    35   ar
    69    91    90    2
    70    34    32   ar
    71    96    94   ar
    72    96    97   ar
    73    35    33   ar
    74   112   113    1
    75   112   110   ar
    76   102    90   am
    77    94    93   ar
    78    32    33   ar
    79    32    31    1
    80    15    13   am
    81    31    28    1
    82    90    89    1
    83   108   110   ar
    84    23    22    1
    85    66    64    1
    86    97    99   ar
    87    97    95   ar
    88    99   101   ar
    89    93    95   ar
    90    93    92    1
    91    13    14    2
    92    13    12    1
    93    27    28    1
    94    28    29    1
    95    52    51    1
    96    65    64    1
    97    57    58    1
    98    57    54    1
    99    89    92    1
   100    89    88    1
   101    22    21    1
   102    58    59    1
   103    95    98   ar
   104    75    77   ar
   105    75    73   ar
   106    77    76   ar
   107    88    86   am
   108    64    61    1
   109    12    11    1
   110    51    50   ar
   111    51    49   ar
   112   101   100   ar
   113    50    48   ar
   114    21    20    1
   115    29    41   am
   116    29    30    2
   117    44    43    2
   118    49    47   ar
   119    59    53    1
   120    73    72   ar
   121    54    55    1
   122    54    53    1
   123    41    42    1
   124    98   100   ar
   125    86    85    1
   126    86    87    2
   127    76    74   ar
   128    61    60    1
   129    61    62    1
   130    85    84    1
   131    48    46   ar
   132    11     8    1
   133    20    17    1
   134    56    55    2
   135    84    80   am
   136    47    46   ar
   137    43    42    1
   138    46    45    1
   139     7     8    1
   140    17    18    1
   141    17    16    1
   142    42    45    1
   143    72    74   ar
   144    72    71    1
   145    62    63    2
   146     8     9    1
   147    18    19    2
   148    80    79    1
   149    80    81    2
   150    70    69    2
   151    79    78    1
   152    79    82    1
   153    71    68    1
   154    69    78   am
   155    69    68    1
   156     9    10    2
   157    82    83    1
   158    68    67    1
