@<TRIPOS>MOLECULE
tmp/3q9bH00.pdb
 156 153 0 0 0
SMALL
GASTEIGER

@<TRIPOS>ATOM
      1  N         88.5550  -19.8550   51.8570 N.3    17  GLU17      -0.1245
      2  CA        88.8030  -19.0150   50.7050 C.3    17  GLU17       0.1567
      3  C         87.5960  -19.1420   49.7790 C.2    17  GLU17       0.2260
      4  O         87.0370  -20.2340   49.6200 O.2    17  GLU17      -0.2867
      5  CB        90.0570  -19.4700   49.9580 C.3    17  GLU17       0.0388
      6  CG        90.3740  -18.6040   48.7510 C.3    17  GLU17       0.1160
      7  CD        91.6010  -19.0710   47.9700 C.2    17  GLU17       0.3649
      8  OE1       92.5790  -19.5430   48.5920 O.co2  17  GLU17      -0.2457
      9  OE2       91.5920  -18.9410   46.7290 O.co2  17  GLU17      -0.2457
     10  N         86.0110  -19.5050   46.3640 N.3    19  TYR19      -0.1241
     11  CA        86.3810  -19.9830   45.0420 C.3    19  TYR19       0.1605
     12  C         85.2320  -20.7470   44.4030 C.2    19  TYR19       0.2264
     13  O         84.6820  -21.6690   45.0010 O.2    19  TYR19      -0.2867
     14  CB        87.6150  -20.8860   45.1300 C.3    19  TYR19       0.0534
     15  CG        87.9740  -21.5090   43.8040 C.ar   19  TYR19      -0.0201
     16  CD1       88.5070  -20.7420   42.7690 C.ar   19  TYR19      -0.0009
     17  CD2       87.7360  -22.8590   43.5670 C.ar   19  TYR19      -0.0009
     18  CE1       88.7890  -21.3070   41.5310 C.ar   19  TYR19       0.0417
     19  CE2       88.0140  -23.4340   42.3330 C.ar   19  TYR19       0.0417
     20  CZ        88.5380  -22.6530   41.3190 C.ar   19  TYR19       0.1957
     21  OH        88.7980  -23.2070   40.0900 O.3    19  TYR19      -0.2866
     22  N         94.3480  -21.8310   48.9160 N.3    27  PHE27      -0.1241
     23  CA        95.3310  -22.4500   48.0320 C.3    27  PHE27       0.1605
     24  C         96.7290  -21.9510   48.3840 C.2    27  PHE27       0.2264
     25  O         97.7310  -22.5650   48.0160 O.2    27  PHE27      -0.2867
     26  CB        95.0000  -22.1370   46.5670 C.3    27  PHE27       0.0534
     27  CG        93.6390  -22.6140   46.1410 C.ar   27  PHE27      -0.0203
     28  CD1       93.3240  -23.9690   46.1630 C.ar   27  PHE27      -0.0042
     29  CD2       92.6590  -21.7040   45.7560 C.ar   27  PHE27      -0.0042
     30  CE1       92.0480  -24.4100   45.8130 C.ar   27  PHE27      -0.0003
     31  CE2       91.3780  -22.1370   45.4050 C.ar   27  PHE27      -0.0003
     32  CZ        91.0730  -23.4920   45.4350 C.ar   27  PHE27      -0.0000
     33  N         88.2330  -12.9260   47.7620 N.3   117  GLU117     -0.1245
     34  CA        88.6010  -14.3230   47.9570 C.3   117  GLU117      0.1567
     35  C         89.6020  -14.4750   49.0990 C.2   117  GLU117      0.2260
     36  O         89.8320  -15.5750   49.5910 O.2   117  GLU117     -0.2867
     37  CB        89.1960  -14.9270   46.6820 C.3   117  GLU117      0.0388
     38  CG        90.6670  -14.6280   46.4530 C.3   117  GLU117      0.1160
     39  CD        90.9200  -13.1710   46.1300 C.2   117  GLU117      0.3649
     40  OE1       90.3370  -12.6690   45.1480 O.co2 117  GLU117     -0.2457
     41  OE2       91.7030  -12.5290   46.8550 O.co2 117  GLU117     -0.2457
     42  N        102.3990  -13.6510   50.3610 N.3   156  PRO156     -0.2116
     43  CA       102.9460  -12.8230   49.2820 C.3   156  PRO156      0.1372
     44  C        102.4510  -11.3830   49.4260 C.2   156  PRO156      0.2244
     45  O        101.7350  -11.0560   50.3820 O.2   156  PRO156     -0.2868
     46  CB       102.4200  -13.5070   48.0230 C.3   156  PRO156      0.0268
     47  CG       101.0950  -14.0340   48.4700 C.3   156  PRO156      0.0207
     48  CD       101.4000  -14.6030   49.8440 C.3   156  PRO156      0.0892
     49  N        102.4630   -8.6330   46.2140 N.3   158  HIS158     -0.1226
     50  CA       102.2420   -7.7510   45.0750 C.3   158  HIS158      0.1752
     51  C        100.8000   -7.3500   44.7290 C.2   158  HIS158      0.2596
     52  O        100.5920   -6.4880   43.8740 O.2   158  HIS158     -0.2718
     53  CB       102.9560   -8.2820   43.8220 C.3   158  HIS158      0.0759
     54  CG       102.2990   -9.4650   43.1830 C.ar  158  HIS158      0.0818
     55  ND1      102.4840   -9.7790   41.8530 N.ar  158  HIS158     -0.2268
     56  CD2      101.4850  -10.4230   43.6850 C.ar  158  HIS158      0.1154
     57  CE1      101.8090  -10.8760   41.5620 C.ar  158  HIS158      0.1986
     58  NE2      101.1940  -11.2880   42.6560 N.ar  158  HIS158     -0.2212
     59  N         99.8070   -7.9650   45.3680 N.am  159  HIS159     -0.1975
     60  CA        98.4180   -7.5930   45.1170 C.3   159  HIS159      0.1656
     61  C         97.9720   -6.5890   46.1770 C.2   159  HIS159      0.2291
     62  O         96.8820   -6.0110   46.0900 O.2   159  HIS159     -0.2864
     63  CB        97.4950   -8.8180   45.1460 C.3   159  HIS159      0.0771
     64  CG        97.6510   -9.7090   43.9570 C.ar  159  HIS159      0.0820
     65  ND1       97.6180   -9.2270   42.6670 N.ar  159  HIS159     -0.2267
     66  CD2       97.8600  -11.0440   43.8550 C.ar  159  HIS159      0.1154
     67  CE1       97.8030  -10.2240   41.8210 C.ar  159  HIS159      0.1986
     68  NE2       97.9520  -11.3360   42.5150 N.ar  159  HIS159     -0.2212
     69  N         94.0170  -10.8880   46.9610 N.3   167  GLY167     -0.1210
     70  CA        94.8750  -11.8930   46.3470 C.3   167  GLY167      0.1956
     71  C         95.8930  -12.5360   47.2790 C.2   167  GLY167      0.2611
     72  O         97.0310  -12.7850   46.8810 O.2   167  GLY167     -0.2717
     73  N         95.4730  -12.8060   48.5150 N.am  168  TYR168     -0.1976
     74  CA        96.3160  -13.4350   49.5410 C.3   168  TYR168      0.1639
     75  C         97.4120  -12.5170   50.0650 C.2   168  TYR168      0.2290
     76  O         98.2640  -12.9450   50.8500 O.2   168  TYR168     -0.2864
     77  CB        96.9890  -14.7040   49.0040 C.3   168  TYR168      0.0560
     78  CG        96.1510  -15.5730   48.0970 C.ar  168  TYR168     -0.0198
     79  CD1       94.7620  -15.6100   48.2070 C.ar  168  TYR168     -0.0009
     80  CD2       96.7640  -16.4060   47.1630 C.ar  168  TYR168     -0.0009
     81  CE1       94.0070  -16.4600   47.4110 C.ar  168  TYR168      0.0417
     82  CE2       96.0210  -17.2610   46.3630 C.ar  168  TYR168      0.0417
     83  CZ        94.6420  -17.2830   46.4960 C.ar  168  TYR168      0.1957
     84  OH        93.9140  -18.1590   45.7210 O.3   168  TYR168     -0.2866
     85  N        105.7320  -12.9460   38.2120 N.3   195  ASP195     -0.1239
     86  CA       104.6210  -13.7830   38.6450 C.3   195  ASP195      0.1674
     87  C        103.5780  -13.7260   37.5330 C.2   195  ASP195      0.2266
     88  O        103.4600  -12.7160   36.8430 O.2   195  ASP195     -0.2867
     89  CB       104.0590  -13.2340   39.9620 C.3   195  ASP195      0.1410
     90  CG       102.8490  -13.9880   40.4450 C.2   195  ASP195      0.3668
     91  OD1      101.8090  -13.9300   39.7500 O.co2 195  ASP195     -0.2456
     92  OD2      102.9420  -14.6280   41.5190 O.co2 195  ASP195     -0.2456
     93  N        100.3870  -13.3630   37.5520 N.3   197  HIS197     -0.1241
     94  CA        99.4040  -12.3020   37.7300 C.3   197  HIS197      0.1621
     95  C        100.0470  -10.9260   37.7810 C.2   197  HIS197      0.2264
     96  O        101.1910  -10.7600   38.2180 O.2   197  HIS197     -0.2867
     97  CB        98.6100  -12.5270   39.0130 C.3   197  HIS197      0.0745
     98  CG        97.8930  -13.8380   39.0450 C.ar  197  HIS197      0.0817
     99  ND1       98.3580  -14.9290   39.7500 N.ar  197  HIS197     -0.2268
    100  CD2       96.7590  -14.2500   38.4270 C.ar  197  HIS197      0.1154
    101  CE1       97.5420  -15.9520   39.5680 C.ar  197  HIS197      0.1986
    102  NE2       96.5630  -15.5670   38.7690 N.ar  197  HIS197     -0.2212
    103  N         92.9650  -12.6100   36.8150 N.3   225  PHE225     -0.1241
    104  CA        93.0890  -11.8480   38.0540 C.3   225  PHE225      0.1605
    105  C         94.3450  -10.9840   37.8440 C.2   225  PHE225      0.2264
    106  O         95.2890  -11.4290   37.1970 O.2   225  PHE225     -0.2867
    107  CB        93.3300  -12.8210   39.2190 C.3   225  PHE225      0.0534
    108  CG        93.2510  -12.1880   40.5720 C.ar  225  PHE225     -0.0203
    109  CD1       92.0160  -12.0150   41.2040 C.ar  225  PHE225     -0.0042
    110  CD2       94.4110  -11.7690   41.2230 C.ar  225  PHE225     -0.0042
    111  CE1       91.9390  -11.4370   42.4670 C.ar  225  PHE225     -0.0003
    112  CE2       94.3430  -11.1870   42.4900 C.ar  225  PHE225     -0.0003
    113  CZ        93.1000  -11.0200   43.1160 C.ar  225  PHE225     -0.0000
    114  N        103.8080  -19.3510   39.2190 N.3   284  ASP284     -0.1239
    115  CA       102.5110  -19.7810   38.7310 C.3   284  ASP284      0.1674
    116  C        102.4240  -19.6250   37.2140 C.2   284  ASP284      0.2266
    117  O        101.3460  -19.7330   36.6330 O.2   284  ASP284     -0.2867
    118  CB       101.3550  -19.0320   39.4360 C.3   284  ASP284      0.1410
    119  CG       101.5790  -17.5320   39.5270 C.2   284  ASP284      0.3668
    120  OD1      102.5460  -17.0360   38.9200 O.co2 284  ASP284     -0.2456
    121  OD2      100.7810  -16.8500   40.1980 O.co2 284  ASP284     -0.2456
    122  N         97.6800  -24.9870   37.6290 N.3   290  PRO290     -0.2102
    123  CA        96.2630  -24.8240   37.2890 C.3   290  PRO290      0.1504
    124  C         95.6470  -23.4290   37.3790 C.2   290  PRO290      0.2575
    125  O         94.4990  -23.2410   36.9780 O.2   290  PRO290     -0.2718
    126  CB        95.5830  -25.8010   38.2360 C.3   290  PRO290      0.0282
    127  CG        96.3920  -25.6190   39.4810 C.3   290  PRO290      0.0208
    128  CD        97.8240  -25.6200   38.9530 C.3   290  PRO290      0.0893
    129  N         96.3800  -22.4490   37.8950 N.am  291  ILE291     -0.1980
    130  CA        95.8020  -21.1120   38.0090 C.3   291  ILE291      0.1595
    131  C         96.1760  -20.1880   36.8590 C.2   291  ILE291      0.2287
    132  O         95.6460  -19.0840   36.7560 O.2   291  ILE291     -0.2864
    133  CB        96.1990  -20.4220   39.3510 C.3   291  ILE291      0.0276
    134  CG1       97.6750  -20.0080   39.3380 C.3   291  ILE291      0.0022
    135  CG2       95.9460  -21.3670   40.5200 C.3   291  ILE291      0.0022
    136  CD1       98.1310  -19.3590   40.6390 C.3   291  ILE291      0.0001
    137  N        103.6150  -15.5170   44.2200 N.3   321  GLY321     -0.1210
    138  CA       102.6950  -16.6360   44.0890 C.3   321  GLY321      0.1956
    139  C        103.1760  -17.9290   43.4520 C.2   321  GLY321      0.2612
    140  O        104.3690  -18.1510   43.2360 O.2   321  GLY321     -0.2717
    141  N        102.2130  -18.7890   43.1460 N.am  322  GLY322     -0.1942
    142  CA       102.5180  -20.0830   42.5680 C.3   322  GLY322      0.2014
    143  C        101.7360  -21.1380   43.3360 C.2   322  GLY322      0.2638
    144  O        101.8940  -21.2890   44.5490 O.2   322  GLY322     -0.2714
    145  N        100.8700  -21.8520   42.6250 N.am  323  TYR323     -0.1973
    146  CA       100.0440  -22.8860   43.2230 C.3   323  TYR323      0.1639
    147  C        100.9230  -23.9540   43.8590 C.2   323  TYR323      0.2290
    148  O        102.0680  -24.1480   43.4570 O.2   323  TYR323     -0.2864
    149  CB        99.1540  -23.5250   42.1570 C.3   323  TYR323      0.0560
    150  CG        98.0330  -24.3610   42.7160 C.ar  323  TYR323     -0.0198
    151  CD1       96.8720  -23.7630   43.1980 C.ar  323  TYR323     -0.0009
    152  CD2       98.1320  -25.7530   42.7660 C.ar  323  TYR323     -0.0009
    153  CE1       95.8310  -24.5300   43.7160 C.ar  323  TYR323      0.0417
    154  CE2       97.0980  -26.5310   43.2830 C.ar  323  TYR323      0.0417
    155  CZ        95.9510  -25.9120   43.7560 C.ar  323  TYR323      0.1957
    156  OH        94.9180  -26.6630   44.2670 O.3   323  TYR323     -0.2866
@<TRIPOS>BOND
     1   117   116    2
     2   132   131    2
     3   103   104    1
     4    88    87    2
     5   131   130    1
     6   125   124    2
     7   106   105    2
     8   116   115    1
     9   123   124    1
    10   123   122    1
    11   123   126    1
    12   124   129   am
    13    87    86    1
    14    93    94    1
    15   122   128    1
    16    94    95    1
    17    94    97    1
    18    95    96    2
    19   105   104    1
    20   129   130    1
    21   130   133    1
    22   104   107    1
    23    85    86    1
    24   126   127    1
    25   100   102   ar
    26   100    98   ar
    27    86    89    1
    28   115   114    1
    29   115   118    1
    30   102   101   ar
    31   120   119   ar
    32   128   127    1
    33    97    98    1
    34    98    99   ar
    35   107   108    1
    36   134   133    1
    37   134   136    1
    38   133   135    1
    39   118   119    1
    40   119   121   ar
    41   101    99   ar
    42    91    90   ar
    43    89    90    1
    44    21    20    1
    45    90    92   ar
    46   108   109   ar
    47   108   110   ar
    48   109   111   ar
    49   110   112   ar
    50    20    18   ar
    51    20    19   ar
    52    18    16   ar
    53    57    55   ar
    54    57    58   ar
    55    67    68   ar
    56    67    65   ar
    57    55    54   ar
    58   149   150    1
    59   149   146    1
    60    19    17   ar
    61   111   113   ar
    62   112   113   ar
    63    68    66   ar
    64   142   141    1
    65   142   143    1
    66   145   146    1
    67   145   143   am
    68    58    56   ar
    69    65    64   ar
    70   150   152   ar
    71   150   151   ar
    72   152   154   ar
    73    16    15   ar
    74   141   139   am
    75    54    56   ar
    76    54    53    1
    77   151   153   ar
    78   146   147    1
    79   140   139    2
    80   154   155   ar
    81   143   144    2
    82   139   138    1
    83   148   147    2
    84    17    15   ar
    85   153   155   ar
    86   155   156    1
    87    15    14    1
    88    53    50    1
    89    66    64   ar
    90    52    51    2
    91    64    63    1
    92   138   137    1
    93    12    13    2
    94    12    11    1
    95    51    50    1
    96    51    59   am
    97    11    14    1
    98    11    10    1
    99    50    49    1
   100    60    63    1
   101    60    59    1
   102    60    61    1
   103    40    39   ar
   104    31    32   ar
   105    31    29   ar
   106    32    30   ar
   107    84    83    1
   108    29    27   ar
   109    30    28   ar
   110    62    61    2
   111    39    38    1
   112    39    41   ar
   113    27    28   ar
   114    27    26    1
   115    70    69    1
   116    70    71    1
   117    82    83   ar
   118    82    80   ar
   119    38    37    1
   120    83    81   ar
   121    26    23    1
   122    37    34    1
   123     9     7   ar
   124    72    71    2
   125    80    78   ar
   126    71    73   am
   127    81    79   ar
   128    33    34    1
   129    34    35    1
   130     7     8   ar
   131     7     6    1
   132    25    24    2
   133    46    47    1
   134    46    43    1
   135    23    24    1
   136    23    22    1
   137    78    79   ar
   138    78    77    1
   139    47    48    1
   140    73    74    1
   141     6     5    1
   142    77    74    1
   143    35    36    2
   144    43    44    1
   145    43    42    1
   146    44    45    2
   147    74    75    1
   148     4     3    2
   149     3     2    1
   150    48    42    1
   151     5     2    1
   152    75    76    2
   153     2     1    1
