@<TRIPOS>MOLECULE
tmp/3q9cD00.pdb
 146 140 0 0 0
SMALL
GASTEIGER

@<TRIPOS>ATOM
      1  N        116.1490   35.1540   58.2220 N.3    17  GLU17      -0.1245
      2  CA       114.7640   34.9900   57.8340 C.3    17  GLU17       0.1567
      3  C        114.5180   36.0450   56.7800 C.2    17  GLU17       0.2260
      4  O        114.8870   37.2040   56.9660 O.2    17  GLU17      -0.2867
      5  CB       113.8270   35.2180   59.0130 C.3    17  GLU17       0.0388
      6  CG       112.3740   34.9230   58.6800 C.3    17  GLU17       0.1160
      7  CD       111.3970   35.3660   59.7580 C.2    17  GLU17       0.3649
      8  OE1      111.6260   35.0490   60.9420 O.co2  17  GLU17      -0.2457
      9  OE2      110.3950   36.0250   59.4100 O.co2  17  GLU17      -0.2457
     10  N        112.5450   38.6310   55.3630 N.3    19  TYR19      -0.1241
     11  CA       111.4390   39.4800   55.8070 C.3    19  TYR19       0.1605
     12  C        111.6340   40.9200   55.3660 C.2    19  TYR19       0.2264
     13  O        112.6900   41.5110   55.6110 O.2    19  TYR19      -0.2867
     14  CB       111.3200   39.4770   57.3330 C.3    19  TYR19       0.0534
     15  CG       110.3490   40.5250   57.8510 C.ar   19  TYR19      -0.0201
     16  CD1      108.9810   40.4040   57.6220 C.ar   19  TYR19      -0.0009
     17  CD2      110.8000   41.6570   58.5260 C.ar   19  TYR19      -0.0009
     18  CE1      108.0840   41.3780   58.0490 C.ar   19  TYR19       0.0417
     19  CE2      109.9050   42.6420   58.9560 C.ar   19  TYR19       0.0417
     20  CZ       108.5470   42.4900   58.7110 C.ar   19  TYR19       0.1957
     21  OH       107.6470   43.4480   59.1230 O.3    19  TYR19      -0.2866
     22  N        112.0480   35.5100   63.7630 N.3    27  PHE27      -0.1241
     23  CA       111.0680   35.9120   64.7690 C.3    27  PHE27       0.1605
     24  C        110.8130   34.7490   65.7240 C.2    27  PHE27       0.2264
     25  O        110.5540   34.9410   66.9160 O.2    27  PHE27      -0.2867
     26  CB       109.7550   36.2930   64.0990 C.3    27  PHE27       0.0534
     27  CG       109.7780   37.6370   63.4530 C.ar   27  PHE27      -0.0203
     28  CD1      109.8150   38.7860   64.2290 C.ar   27  PHE27      -0.0042
     29  CD2      109.7670   37.7600   62.0690 C.ar   27  PHE27      -0.0042
     30  CE1      109.8380   40.0490   63.6400 C.ar   27  PHE27      -0.0003
     31  CE2      109.7900   39.0160   61.4640 C.ar   27  PHE27      -0.0003
     32  CZ       109.8250   40.1640   62.2520 C.ar   27  PHE27      -0.0000
     33  N        110.3290   32.3850   53.6510 N.3   117  GLU117     -0.1245
     34  CA       110.6610   33.1250   54.8590 C.3   117  GLU117      0.1567
     35  C        111.1750   32.2230   55.9820 C.2   117  GLU117      0.2260
     36  O        111.4070   32.6790   57.0980 O.2   117  GLU117     -0.2867
     37  CB       109.4420   33.9180   55.3450 C.3   117  GLU117      0.0388
     38  CG       108.1100   33.1910   55.2440 C.3   117  GLU117      0.1160
     39  CD       107.9760   32.0270   56.2040 C.2   117  GLU117      0.3649
     40  OE1      108.5230   30.9390   55.9190 O.co2 117  GLU117     -0.2457
     41  OE2      107.3190   32.1990   57.2560 O.co2 117  GLU117     -0.2457
     42  N        107.5250   25.4000   66.1660 N.3   156  PRO156     -0.2116
     43  CA       106.0890   25.1140   66.0320 C.3   156  PRO156      0.1372
     44  C        105.8530   24.2170   64.8130 C.2   156  PRO156      0.2244
     45  O        106.8000   23.8860   64.1010 O.2   156  PRO156     -0.2868
     46  CB       105.4770   26.5010   65.8670 C.3   156  PRO156      0.0268
     47  CG       106.5460   27.2190   65.0810 C.3   156  PRO156      0.0207
     48  CD       107.8190   26.7990   65.8010 C.3   156  PRO156      0.0892
     49  N        102.1340   23.9300   63.0730 N.3   158  HIS158     -0.1226
     50  CA       100.8790   24.0570   62.3470 C.3   158  HIS158      0.1752
     51  C        100.9620   24.5280   60.8960 C.2   158  HIS158      0.2595
     52  O         99.9960   24.3870   60.1490 O.2   158  HIS158     -0.2718
     53  CB        99.8520   24.9080   63.1230 C.3   158  HIS158      0.0759
     54  CG        99.9780   26.3860   62.9260 C.ar  158  HIS158      0.0818
     55  ND1       98.9180   27.2460   63.1290 N.ar  158  HIS158     -0.2268
     56  CD2      101.0390   27.1700   62.6150 C.ar  158  HIS158      0.1154
     57  CE1       99.3190   28.4910   62.9540 C.ar  158  HIS158      0.1986
     58  NE2      100.6020   28.4750   62.6420 N.ar  158  HIS158     -0.2212
     59  N        102.0950   25.0700   60.4710 N.am  159  ALA159     -0.1980
     60  CA       102.2020   25.4950   59.0830 C.3   159  ALA159      0.1597
     61  C        102.8580   24.4190   58.2190 C.2   159  ALA159      0.2287
     62  O        102.9020   24.5470   56.9960 O.2   159  ALA159     -0.2864
     63  CB       102.9810   26.8050   58.9720 C.3   159  ALA159      0.0319
     64  N        106.6430   28.7290   57.2460 N.3   167  GLY167     -0.1210
     65  CA       106.0610   29.3850   58.4030 C.3   167  GLY167      0.1956
     66  C        106.7280   29.0040   59.7120 C.2   167  GLY167      0.2612
     67  O        106.0570   28.9020   60.7400 O.2   167  GLY167     -0.2717
     68  N        108.0440   28.7950   59.6690 N.am  168  TYR168     -0.1962
     69  CA       108.8300   28.4290   60.8460 C.3   168  TYR168      0.1771
     70  C        108.5390   27.0050   61.2960 C.2   168  TYR168      0.2619
     71  O        108.9510   26.5960   62.3830 O.2   168  TYR168     -0.2715
     72  CB       108.5280   29.3710   62.0190 C.3   168  TYR168      0.0574
     73  CG       108.4060   30.8430   61.6730 C.ar  168  TYR168     -0.0198
     74  CD1      109.0740   31.3890   60.5660 C.ar  168  TYR168     -0.0009
     75  CD2      107.6660   31.7040   62.4930 C.ar  168  TYR168     -0.0009
     76  CE1      109.0110   32.7550   60.2860 C.ar  168  TYR168      0.0417
     77  CE2      107.6000   33.0720   62.2260 C.ar  168  TYR168      0.0417
     78  CZ       108.2760   33.5870   61.1220 C.ar  168  TYR168      0.1957
     79  OH       108.2290   34.9380   60.8720 O.3   168  TYR168     -0.2866
     80  N        107.8380   26.2510   60.4520 N.am  169  CYS169     -0.1968
     81  CA       107.4400   24.8880   60.7860 C.3   169  CYS169      0.1712
     82  C        108.0380   23.7900   59.8990 C.2   169  CYS169      0.2296
     83  O        108.1650   23.9530   58.6870 O.2   169  CYS169     -0.2864
     84  CB       105.9070   24.8060   60.7580 C.3   169  CYS169      0.0983
     85  SG       105.0400   25.9950   61.8870 S.3   169  CYS169     -0.0798
     86  N         95.9460   30.1100   66.9940 N.3   195  ASP195     -0.1239
     87  CA        97.0840   30.9130   66.5930 C.3   195  ASP195      0.1674
     88  C         96.5420   31.9390   65.5960 C.2   195  ASP195      0.2266
     89  O         95.5360   31.6780   64.9360 O.2   195  ASP195     -0.2867
     90  CB        98.1210   29.9980   65.9330 C.3   195  ASP195      0.1410
     91  CG        99.2930   30.7590   65.3500 C.2   195  ASP195      0.3668
     92  OD1       99.0890   31.5340   64.3880 O.co2 195  ASP195     -0.2456
     93  OD2      100.4250   30.5720   65.8590 O.co2 195  ASP195     -0.2456
     94  N         97.7350   32.9580   62.7100 N.3   197  HIS197     -0.1241
     95  CA        97.8650   32.4840   61.3400 C.3   197  HIS197      0.1621
     96  C         97.0570   31.2180   61.0970 C.2   197  HIS197      0.2264
     97  O         96.8350   30.4260   62.0100 O.2   197  HIS197     -0.2867
     98  CB        99.3320   32.2000   61.0280 C.3   197  HIS197      0.0745
     99  CG       100.1960   33.4140   61.0930 C.ar  197  HIS197      0.0817
    100  ND1      100.9450   33.7410   62.2050 N.ar  197  HIS197     -0.2268
    101  CD2      100.3590   34.4350   60.2190 C.ar  197  HIS197      0.1154
    102  CE1      101.5230   34.9110   62.0150 C.ar  197  HIS197      0.1986
    103  NE2      101.1830   35.3560   60.8160 N.ar  197  HIS197     -0.2212
    104  N         99.4560   36.0900   56.2290 N.3   225  PHE225     -0.1241
    105  CA       100.1460   34.8290   55.9960 C.3   225  PHE225      0.1605
    106  C         99.2080   33.7180   56.4750 C.2   225  PHE225      0.2264
    107  O         98.5090   33.8940   57.4750 O.2   225  PHE225     -0.2867
    108  CB       101.4280   34.8080   56.8300 C.3   225  PHE225      0.0534
    109  CG       102.3700   33.7080   56.4630 C.ar  225  PHE225     -0.0203
    110  CD1      103.2630   33.8700   55.4100 C.ar  225  PHE225     -0.0042
    111  CD2      102.3640   32.5030   57.1660 C.ar  225  PHE225     -0.0042
    112  CE1      104.1370   32.8530   55.0620 C.ar  225  PHE225     -0.0003
    113  CE2      103.2370   31.4750   56.8250 C.ar  225  PHE225     -0.0003
    114  CZ       104.1260   31.6490   55.7710 C.ar  225  PHE225     -0.0000
    115  N         99.8810   34.9350   69.2530 N.3   284  ASP284     -0.1239
    116  CA       100.2010   36.0660   68.4140 C.3   284  ASP284      0.1674
    117  C         98.9370   36.8110   67.9990 C.2   284  ASP284      0.2266
    118  O         98.9670   37.6480   67.1000 O.2   284  ASP284     -0.2867
    119  CB       101.0140   35.6320   67.1850 C.3   284  ASP284      0.1410
    120  CG       100.4360   34.4100   66.4860 C.2   284  ASP284      0.3668
    121  OD1       99.5290   33.7640   67.0430 O.co2 284  ASP284     -0.2456
    122  OD2      100.9000   34.0920   65.3770 O.co2 284  ASP284     -0.2456
    123  N        103.5680   41.0190   64.2170 N.3   291  ILE291     -0.1245
    124  CA       103.1630   40.4860   62.9200 C.3   291  ILE291      0.1561
    125  C        101.7260   39.9910   62.8990 C.2   291  ILE291      0.2260
    126  O        101.4100   39.0180   62.2130 O.2   291  ILE291     -0.2867
    127  CB       104.0960   39.3180   62.4700 C.3   291  ILE291      0.0252
    128  CG1      104.0560   38.1840   63.5110 C.3   291  ILE291      0.0019
    129  CG2      105.5170   39.8360   62.2640 C.3   291  ILE291      0.0019
    130  CD1      104.7390   36.8930   63.0560 C.3   291  ILE291      0.0001
    131  N        102.6000   29.8100   67.4280 N.3   321  GLY321     -0.1225
    132  CA       103.1640   31.1460   67.2790 C.3   321  GLY321      0.1811
    133  C        103.0470   32.0770   68.4810 C.2   321  GLY321      0.2280
    134  O        102.5590   31.6770   69.5370 O.2   321  GLY321     -0.2866
    135  N        105.0710   36.1220   69.1350 N.3   323  TYR323     -0.1241
    136  CA       106.4180   36.6940   69.1200 C.3   323  TYR323      0.1605
    137  C        106.5670   38.0660   69.7410 C.2   323  TYR323      0.2264
    138  O        105.6930   38.5390   70.4570 O.2   323  TYR323     -0.2867
    139  CB       106.8900   36.7740   67.6730 C.3   323  TYR323      0.0534
    140  CG       106.5600   35.5300   66.8920 C.ar  323  TYR323     -0.0201
    141  CD1      107.3430   34.3840   67.0180 C.ar  323  TYR323     -0.0009
    142  CD2      105.4300   35.4780   66.0670 C.ar  323  TYR323     -0.0009
    143  CE1      107.0140   33.2180   66.3510 C.ar  323  TYR323      0.0417
    144  CE2      105.0880   34.3100   65.3930 C.ar  323  TYR323      0.0417
    145  CZ       105.8880   33.1860   65.5440 C.ar  323  TYR323      0.1957
    146  OH       105.5700   32.0230   64.8940 O.3   323  TYR323     -0.2866
@<TRIPOS>BOND
     1    33    34    1
     2    34    37    1
     3    34    35    1
     4   112   110   ar
     5   112   114   ar
     6    38    37    1
     7    38    39    1
     8    10    11    1
     9    12    13    2
    10    12    11    1
    11   110   109   ar
    12   114   113   ar
    13    11    14    1
    14    40    39   ar
    15    35    36    2
    16   105   104    1
    17   105   106    1
    18   105   108    1
    19    39    41   ar
    20   109   108    1
    21   109   111   ar
    22   106   107    2
    23     3     4    2
    24     3     2    1
    25   113   111   ar
    26    62    61    2
    27    64    65    1
    28    14    15    1
    29    16    15   ar
    30    16    18   ar
    31     2     1    1
    32     2     5    1
    33    15    17   ar
    34    18    20   ar
    35    61    60    1
    36    65    66    1
    37    17    19   ar
    38     6     5    1
    39     6     7    1
    40    83    82    2
    41    20    19   ar
    42    20    21    1
    43    63    60    1
    44    60    59    1
    45     9     7   ar
    46    68    66   am
    47    68    69    1
    48    66    67    2
    49     7     8   ar
    50    82    81    1
    51    52    51    2
    52   101   103   ar
    53   101    99   ar
    54    76    74   ar
    55    76    78   ar
    56    80    81    1
    57    80    70   am
    58    59    51   am
    59    74    73   ar
    60    84    81    1
    61    84    85    1
    62   103   102   ar
    63    69    70    1
    64    69    72    1
    65    79    78    1
    66    51    50    1
    67    98    99    1
    68    98    95    1
    69    99   100   ar
    70    96    95    1
    71    96    97    2
    72    78    77   ar
    73    70    71    2
    74    95    94    1
    75    31    29   ar
    76    31    32   ar
    77    73    72    1
    78    73    75   ar
    79   102   100   ar
    80    29    27   ar
    81   126   125    2
    82    77    75   ar
    83    32    30   ar
    84   129   127    1
    85    50    49    1
    86    50    53    1
    87   127   124    1
    88   127   128    1
    89    56    58   ar
    90    56    54   ar
    91    58    57   ar
    92   125   124    1
    93   124   123    1
    94    54    53    1
    95    54    55   ar
    96    57    55   ar
    97   130   128    1
    98    27    26    1
    99    27    28   ar
   100    30    28   ar
   101    22    23    1
   102    26    23    1
   103    45    44    2
   104    92    91   ar
   105    23    24    1
   106    44    43    1
   107   146   145    1
   108    89    88    2
   109    47    48    1
   110    47    46    1
   111    91    93   ar
   112    91    90    1
   113   122   120   ar
   114   144   145   ar
   115   144   142   ar
   116   145   143   ar
   117    88    87    1
   118    24    25    2
   119    48    42    1
   120    46    43    1
   121    90    87    1
   122    43    42    1
   123   142   140   ar
   124   143   141   ar
   125   120   121   ar
   126   120   119    1
   127    87    86    1
   128   140   141   ar
   129   140   139    1
   130   118   117    2
   131   119   116    1
   132   132   131    1
   133   132   133    1
   134   139   136    1
   135   117   116    1
   136   116   115    1
   137   133   134    2
   138   136   135    1
   139   136   137    1
   140   137   138    2
