@<TRIPOS>MOLECULE
tmp/3q9eL00.pdb
 163 158 0 0 0
SMALL
GASTEIGER

@<TRIPOS>ATOM
      1  N         59.2260   30.7780  119.1250 N.3    17  GLU17      -0.1245
      2  CA        58.3580   31.8290  118.6200 C.3    17  GLU17       0.1567
      3  C         59.1910   33.1020  118.4560 C.2    17  GLU17       0.2260
      4  O         59.8860   33.5290  119.3870 O.2    17  GLU17      -0.2867
      5  CB        57.2030   32.1280  119.5790 C.3    17  GLU17       0.0388
      6  CG        56.2550   33.1830  119.0020 C.3    17  GLU17       0.1160
      7  CD        55.1180   33.5860  119.9390 C.2    17  GLU17       0.3649
      8  OE1       54.5210   32.6970  120.5850 O.co2  17  GLU17      -0.2457
      9  OE2       54.8090   34.7960  120.0080 O.co2  17  GLU17      -0.2457
     10  N         59.6840   36.5710  118.7910 N.3    19  TYR19      -0.1241
     11  CA        59.1150   37.6880  119.5330 C.3    19  TYR19       0.1605
     12  C         60.2060   38.6550  119.9980 C.2    19  TYR19       0.2264
     13  O         61.1000   38.2700  120.7510 O.2    19  TYR19      -0.2867
     14  CB        58.3460   37.1630  120.7470 C.3    19  TYR19       0.0534
     15  CG        57.8140   38.2640  121.6230 C.ar   19  TYR19      -0.0201
     16  CD1       56.7480   39.0520  121.2080 C.ar   19  TYR19      -0.0009
     17  CD2       58.4180   38.5660  122.8330 C.ar   19  TYR19      -0.0009
     18  CE1       56.3020   40.1200  121.9790 C.ar   19  TYR19       0.0417
     19  CE2       57.9820   39.6300  123.6100 C.ar   19  TYR19       0.0417
     20  CZ        56.9330   40.4020  123.1830 C.ar   19  TYR19       0.1957
     21  OH        56.5230   41.4650  123.9460 O.3    19  TYR19      -0.2866
     22  N         53.7840   31.5970  123.1670 N.3    27  PHE27      -0.1241
     23  CA        52.7930   32.0190  124.1650 C.3    27  PHE27       0.1605
     24  C         51.5180   31.2200  123.9640 C.2    27  PHE27       0.2264
     25  O         50.6930   31.0950  124.8720 O.2    27  PHE27      -0.2867
     26  CB        52.4470   33.5170  124.0470 C.3    27  PHE27       0.0534
     27  CG        53.6330   34.4280  124.1500 C.ar   27  PHE27      -0.0203
     28  CD1       54.4000   34.4710  125.3090 C.ar   27  PHE27      -0.0042
     29  CD2       54.0250   35.1930  123.0620 C.ar   27  PHE27      -0.0042
     30  CE1       55.5480   35.2640  125.3760 C.ar   27  PHE27      -0.0003
     31  CE2       55.1680   35.9860  123.1210 C.ar   27  PHE27      -0.0003
     32  CZ        55.9330   36.0180  124.2800 C.ar   27  PHE27      -0.0000
     33  N         55.8930   35.3360  113.2100 N.3   117  GLU117     -0.1245
     34  CA        55.8540   35.1010  114.6500 C.3   117  GLU117      0.1567
     35  C         55.1650   33.7700  114.9540 C.2   117  GLU117      0.2260
     36  O         54.7790   33.4940  116.0970 O.2   117  GLU117     -0.2867
     37  CB        55.1170   36.2340  115.3750 C.3   117  GLU117      0.0388
     38  CG        53.8520   36.7560  114.6860 C.3   117  GLU117      0.1160
     39  CD        52.6940   35.7710  114.6850 C.2   117  GLU117      0.3649
     40  OE1       52.7000   34.8230  113.8700 O.co2 117  GLU117     -0.2457
     41  OE2       51.7730   35.9510  115.5050 O.co2 117  GLU117     -0.2457
     42  N         44.1690   28.0540  117.6750 N.3   156  PRO156     -0.2116
     43  CA        43.0910   28.9410  117.2150 C.3   156  PRO156      0.1372
     44  C         43.1810   29.1110  115.7020 C.2   156  PRO156      0.2244
     45  O         44.1350   28.6380  115.0860 O.2   156  PRO156     -0.2868
     46  CB        43.3810   30.2370  117.9580 C.3   156  PRO156      0.0268
     47  CG        44.8890   30.2490  117.9700 C.3   156  PRO156      0.0207
     48  CD        45.2160   28.8210  118.3790 C.3   156  PRO156      0.0892
     49  N         41.3910   32.2240  113.7640 N.3   158  HIS158     -0.1226
     50  CA        40.8630   33.4150  113.1290 C.3   158  HIS158      0.1752
     51  C         41.8770   34.2350  112.3240 C.2   158  HIS158      0.2595
     52  O         41.4880   35.1000  111.5270 O.2   158  HIS158     -0.2718
     53  CB        40.1200   34.3000  114.1480 C.3   158  HIS158      0.0759
     54  CG        41.0090   35.1320  115.0180 C.ar  158  HIS158      0.0818
     55  ND1       40.5600   36.2710  115.6510 N.ar  158  HIS158     -0.2268
     56  CD2       42.3170   35.0120  115.3490 C.ar  158  HIS158      0.1154
     57  CE1       41.5520   36.8200  116.3300 C.ar  158  HIS158      0.1986
     58  NE2       42.6310   36.0760  116.1630 N.ar  158  HIS158     -0.2212
     59  N         43.1680   33.9650  112.5020 N.am  159  ALA159     -0.1980
     60  CA        44.1840   34.7010  111.7500 C.3   159  ALA159      0.1597
     61  C         44.5550   33.9880  110.4470 C.2   159  ALA159      0.2287
     62  O         45.2290   34.5560  109.5940 O.2   159  ALA159     -0.2864
     63  CB        45.4330   34.9170  112.6020 C.3   159  ALA159      0.0319
     64  N         49.8170   34.3540  113.0420 N.3   167  GLY167     -0.1210
     65  CA        49.1090   34.6820  114.2670 C.3   167  GLY167      0.1956
     66  C         48.7300   33.4790  115.1080 C.2   167  GLY167      0.2612
     67  O         47.6880   33.4810  115.7580 O.2   167  GLY167     -0.2717
     68  N         49.5700   32.4440  115.0840 N.am  168  TYR168     -0.1962
     69  CA        49.3520   31.2110  115.8610 C.3   168  TYR168      0.1771
     70  C         48.2810   30.3150  115.2430 C.2   168  TYR168      0.2619
     71  O         47.9630   29.2500  115.7820 O.2   168  TYR168     -0.2715
     72  CB        48.9240   31.5360  117.3020 C.3   168  TYR168      0.0574
     73  CG        49.7650   32.5610  118.0220 C.ar  168  TYR168     -0.0198
     74  CD1       51.0370   32.9000  117.5600 C.ar  168  TYR168     -0.0009
     75  CD2       49.3070   33.1480  119.2070 C.ar  168  TYR168     -0.0009
     76  CE1       51.8400   33.7950  118.2550 C.ar  168  TYR168      0.0417
     77  CE2       50.1000   34.0430  119.9190 C.ar  168  TYR168      0.0417
     78  CZ        51.3720   34.3620  119.4350 C.ar  168  TYR168      0.1957
     79  OH        52.1870   35.2270  120.1410 O.3   168  TYR168     -0.2866
     80  N         47.7470   30.7510  114.1050 N.am  169  CYS169     -0.1968
     81  CA        46.6820   30.0330  113.4190 C.3   169  CYS169      0.1712
     82  C         47.0890   29.3970  112.0970 C.2   169  CYS169      0.2296
     83  O         47.8970   29.9520  111.3560 O.2   169  CYS169     -0.2864
     84  CB        45.5120   30.9830  113.1890 C.3   169  CYS169      0.0983
     85  SG        45.0250   31.8660  114.6810 S.3   169  CYS169     -0.0798
     86  N         37.6850   38.5680  119.9530 N.3   195  ASP195     -0.1239
     87  CA        39.1020   38.4380  120.2920 C.3   195  ASP195      0.1674
     88  C         39.7490   39.8170  120.1590 C.2   195  ASP195      0.2266
     89  O         39.3380   40.6120  119.3190 O.2   195  ASP195     -0.2867
     90  CB        39.7480   37.4470  119.3170 C.3   195  ASP195      0.1410
     91  CG        41.2140   37.1860  119.6090 C.2   195  ASP195      0.3668
     92  OD1       42.0350   38.1210  119.4910 O.co2 195  ASP195     -0.2456
     93  OD2       41.5510   36.0320  119.9440 O.co2 195  ASP195     -0.2456
     94  N         42.4620   40.7250  118.8500 N.3   197  HIS197     -0.1241
     95  CA        43.0170   40.9010  117.5180 C.3   197  HIS197      0.1621
     96  C         41.9270   40.7620  116.4710 C.2   197  HIS197      0.2264
     97  O         40.9380   40.0620  116.6750 O.2   197  HIS197     -0.2867
     98  CB        44.1090   39.8670  117.2450 C.3   197  HIS197      0.0745
     99  CG        45.2740   39.9660  118.1740 C.ar  197  HIS197      0.0817
    100  ND1       45.5770   38.9890  119.0970 N.ar  197  HIS197     -0.2268
    101  CD2       46.1920   40.9440  118.3510 C.ar  197  HIS197      0.1154
    102  CE1       46.6280   39.3610  119.8030 C.ar  197  HIS197      0.1986
    103  NE2       47.0220   40.5450  119.3700 N.ar  197  HIS197     -0.2212
    104  N         48.4860   44.0070  116.3320 N.3   225  PHE225     -0.1241
    105  CA        48.4760   42.8620  115.4370 C.3   225  PHE225      0.1605
    106  C         47.0190   42.6790  114.9710 C.2   225  PHE225      0.2264
    107  O         46.0960   42.9680  115.7290 O.2   225  PHE225     -0.2867
    108  CB        48.9260   41.6130  116.2100 C.3   225  PHE225      0.0534
    109  CG        49.2970   40.4680  115.3340 C.ar  225  PHE225     -0.0203
    110  CD1       50.5720   40.3910  114.7770 C.ar  225  PHE225     -0.0042
    111  CD2       48.3550   39.4930  115.0150 C.ar  225  PHE225     -0.0042
    112  CE1       50.8990   39.3570  113.9150 C.ar  225  PHE225     -0.0003
    113  CE2       48.6720   38.4580  114.1550 C.ar  225  PHE225     -0.0003
    114  CZ        49.9460   38.3870  113.5980 C.ar  225  PHE225     -0.0000
    115  N         48.0290   44.2660  112.2410 N.3   227  HIS227     -0.1241
    116  CA        48.5950   45.4650  111.6100 C.3   227  HIS227      0.1621
    117  C         48.1700   45.8790  110.2000 C.2   227  HIS227      0.2264
    118  O         48.1640   47.0730  109.8940 O.2   227  HIS227     -0.2867
    119  CB        50.1290   45.3890  111.6170 C.3   227  HIS227      0.0745
    120  CG        50.7280   45.3580  112.9850 C.ar  227  HIS227      0.0817
    121  ND1       50.6440   46.4190  113.8630 N.ar  227  HIS227     -0.2268
    122  CD2       51.3950   44.3800  113.6400 C.ar  227  HIS227      0.1154
    123  CE1       51.2310   46.0930  115.0010 C.ar  227  HIS227      0.1986
    124  NE2       51.6950   44.8610  114.8920 N.ar  227  HIS227     -0.2212
    125  N         41.7680   37.5830  125.3010 N.3   284  ASP284     -0.1239
    126  CA        42.9300   38.4430  125.3830 C.3   284  ASP284      0.1674
    127  C         42.5760   39.9240  125.3960 C.2   284  ASP284      0.2266
    128  O         43.4440   40.7770  125.2840 O.2   284  ASP284     -0.2867
    129  CB        43.9670   38.1230  124.2750 C.3   284  ASP284      0.1410
    130  CG        43.3770   38.0680  122.8640 C.2   284  ASP284      0.3668
    131  OD1       44.1720   37.8490  121.9300 O.co2 284  ASP284     -0.2456
    132  OD2       42.1550   38.2310  122.6730 O.co2 284  ASP284     -0.2456
    133  N         48.7010   40.3510  128.9620 N.3   290  PRO290     -0.2102
    134  CA        49.9200   41.0350  128.5290 C.3   290  PRO290      0.1504
    135  C         49.7870   41.7690  127.1920 C.2   290  PRO290      0.2575
    136  O         49.6090   42.9910  127.1660 O.2   290  PRO290     -0.2718
    137  CB        50.9530   39.9040  128.4850 C.3   290  PRO290      0.0282
    138  CG        50.1210   38.6780  128.2240 C.3   290  PRO290      0.0208
    139  CD        48.9480   38.9090  129.1330 C.3   290  PRO290      0.0893
    140  N         49.8730   41.0190  126.0930 N.am  291  ILE291     -0.1980
    141  CA        49.7710   41.5890  124.7480 C.3   291  ILE291      0.1595
    142  C         48.3510   42.0170  124.3670 C.2   291  ILE291      0.2287
    143  O         47.6740   41.3260  123.6010 O.2   291  ILE291     -0.2864
    144  CB        50.3300   40.5980  123.6490 C.3   291  ILE291      0.0276
    145  CG1       49.6430   39.2270  123.7390 C.3   291  ILE291      0.0022
    146  CG2       51.8440   40.4550  123.8030 C.3   291  ILE291      0.0022
    147  CD1       50.0980   38.2190  122.6620 C.3   291  ILE291      0.0001
    148  N         42.1020   33.4160  120.8520 N.3   321  GLY321     -0.1225
    149  CA        43.2090   33.9020  121.6610 C.3   321  GLY321      0.1811
    150  C         42.9840   34.0110  123.1620 C.2   321  GLY321      0.2280
    151  O         41.9360   33.6270  123.6740 O.2   321  GLY321     -0.2866
    152  N         46.1290   34.8740  126.3670 N.3   323  TYR323     -0.1241
    153  CA        47.3860   34.3310  126.8870 C.3   323  TYR323      0.1605
    154  C         47.7600   34.9020  128.2340 C.2   323  TYR323      0.2264
    155  O         47.0850   35.7830  128.7620 O.2   323  TYR323     -0.2867
    156  CB        48.5360   34.6080  125.9060 C.3   323  TYR323      0.0534
    157  CG        48.1220   34.4650  124.4600 C.ar  323  TYR323     -0.0201
    158  CD1       47.8970   33.2020  123.8970 C.ar  323  TYR323     -0.0009
    159  CD2       47.8230   35.5970  123.6910 C.ar  323  TYR323     -0.0009
    160  CE1       47.3710   33.0730  122.6160 C.ar  323  TYR323      0.0417
    161  CE2       47.2980   35.4770  122.4140 C.ar  323  TYR323      0.0417
    162  CZ        47.0720   34.2120  121.8910 C.ar  323  TYR323      0.1957
    163  OH        46.5090   34.0860  120.6610 O.3   323  TYR323     -0.2866
@<TRIPOS>BOND
     1    62    61    2
     2   118   117    2
     3   117   116    1
     4    61    60    1
     5    83    82    2
     6    52    51    2
     7   116   119    1
     8   116   115    1
     9   119   120    1
    10    60    59    1
    11    60    63    1
    12    82    81    1
    13    51    59   am
    14    51    50    1
    15   120   122   ar
    16   120   121   ar
    17    64    65    1
    18    50    49    1
    19    50    53    1
    20    84    81    1
    21    84    85    1
    22    33    34    1
    23    81    80    1
    24   114   112   ar
    25   114   113   ar
    26   122   124   ar
    27   121   123   ar
    28    40    39   ar
    29   112   110   ar
    30    80    70   am
    31    53    54    1
    32   113   111   ar
    33    65    66    1
    34    34    35    1
    35    34    37    1
    36    39    38    1
    37    39    41   ar
    38    38    37    1
    39   110   109   ar
    40   124   123   ar
    41    35    36    2
    42   106   105    1
    43   106   107    2
    44   111   109   ar
    45    54    56   ar
    46    54    55   ar
    47    68    66   am
    48    68    69    1
    49    45    44    2
    50    66    67    2
    51    70    71    2
    52    70    69    1
    53   109   108    1
    54    56    58   ar
    55   105   108    1
    56   105   104    1
    57    55    57   ar
    58    44    43    1
    59    69    72    1
    60    58    57   ar
    61    96    97    2
    62    96    95    1
    63    43    42    1
    64    43    46    1
    65    98    95    1
    66    98    99    1
    67    72    73    1
    68    95    94    1
    69    74    73   ar
    70    74    76   ar
    71    42    48    1
    72    46    47    1
    73    47    48    1
    74    73    75   ar
    75    99   101   ar
    76    99   100   ar
    77    76    78   ar
    78   101   103   ar
    79     3     2    1
    80     3     4    2
    81     2     1    1
    82     2     5    1
    83    10    11    1
    84     6     5    1
    85     6     7    1
    86   100   102   ar
    87    75    77   ar
    88    90    91    1
    89    90    87    1
    90    89    88    2
    91   103   102   ar
    92    78    77   ar
    93    78    79    1
    94    92    91   ar
    95    11    12    1
    96    11    14    1
    97    91    93   ar
    98     7     9   ar
    99     7     8   ar
   100    86    87    1
   101    12    13    2
   102    88    87    1
   103   163   162    1
   104    14    15    1
   105   148   149    1
   106    16    15   ar
   107    16    18   ar
   108    15    17   ar
   109   149   150    1
   110   162   161   ar
   111   162   160   ar
   112   131   130   ar
   113    18    20   ar
   114   161   159   ar
   115   160   158   ar
   116   147   145    1
   117   132   130   ar
   118    17    19   ar
   119   130   129    1
   120    29    31   ar
   121    29    27   ar
   122    31    32   ar
   123   150   151    2
   124    22    23    1
   125    20    19   ar
   126    20    21    1
   127   143   142    2
   128   144   145    1
   129   144   146    1
   130   144   141    1
   131   159   157   ar
   132   158   157   ar
   133    24    23    1
   134    24    25    2
   135    26    27    1
   136    26    23    1
   137    27    28   ar
   138   129   126    1
   139    32    30   ar
   140   142   141    1
   141   157   156    1
   142   141   140    1
   143   128   127    2
   144   125   126    1
   145    28    30   ar
   146   126   127    1
   147   156   153    1
   148   140   135   am
   149   152   153    1
   150   153   154    1
   151   136   135    2
   152   135   134    1
   153   138   137    1
   154   138   139    1
   155   154   155    2
   156   137   134    1
   157   134   133    1
   158   133   139    1
