@<TRIPOS>MOLECULE
tmp/3q9fA00.pdb
 155 151 0 0 0
SMALL
GASTEIGER

@<TRIPOS>ATOM
      1  N         67.6280   38.2430   11.1640 N.3    17  GLU17      -0.1231
      2  CA        67.7060   37.6500   12.4850 C.3    17  GLU17       0.1699
      3  C         66.9330   36.3430   12.3900 C.2    17  GLU17       0.2592
      4  O         65.8260   36.3140   11.8610 O.2    17  GLU17      -0.2718
      5  CB        67.0640   38.5320   13.5620 C.3    17  GLU17       0.0402
      6  CG        67.1270   37.8470   14.9170 C.3    17  GLU17       0.1161
      7  CD        66.4570   38.6080   16.0540 C.2    17  GLU17       0.3649
      8  OE1       66.6190   39.8350   16.1600 O.co2  17  GLU17      -0.2457
      9  OE2       65.7870   37.9580   16.8740 O.co2  17  GLU17      -0.2457
     10  N         67.5180   35.2580   12.8820 N.am   18  LEU18      -0.1966
     11  CA        66.8270   33.9830   12.8370 C.3    18  LEU18       0.1728
     12  C         65.9080   33.9220   14.0570 C.2    18  LEU18       0.2616
     13  O         66.3750   33.9400   15.1980 O.2    18  LEU18      -0.2715
     14  CB        67.8300   32.8300   12.8510 C.3    18  LEU18       0.0311
     15  CG        67.2480   31.4160   12.7530 C.3    18  LEU18       0.0022
     16  CD1       66.3480   31.2850   11.5250 C.3    18  LEU18       0.0001
     17  CD2       68.3800   30.4060   12.6950 C.3    18  LEU18       0.0001
     18  N         64.5980   33.8910   13.8060 N.am   19  TYR19      -0.1974
     19  CA        63.5770   33.8300   14.8630 C.3    19  TYR19       0.1639
     20  C         62.3880   32.9840   14.4120 C.2    19  TYR19       0.2290
     21  O         61.8580   33.1860   13.3250 O.2    19  TYR19      -0.2864
     22  CB        63.0680   35.2400   15.2080 C.3    19  TYR19       0.0560
     23  CG        61.8520   35.2560   16.1250 C.ar   19  TYR19      -0.0198
     24  CD1       61.9830   35.1070   17.5060 C.ar   19  TYR19      -0.0009
     25  CD2       60.5650   35.3600   15.5940 C.ar   19  TYR19      -0.0009
     26  CE1       60.8550   35.0550   18.3370 C.ar   19  TYR19       0.0417
     27  CE2       59.4290   35.3070   16.4070 C.ar   19  TYR19       0.0417
     28  CZ        59.5840   35.1510   17.7830 C.ar   19  TYR19       0.1957
     29  OH        58.4740   35.0610   18.5970 O.3    19  TYR19      -0.2866
     30  N         65.3260   42.5110   15.9610 N.3    27  PHE27      -0.1241
     31  CA        64.5410   43.1620   16.9930 C.3    27  PHE27       0.1605
     32  C         65.3670   44.2650   17.6390 C.2    27  PHE27       0.2264
     33  O         64.8240   45.2190   18.2000 O.2    27  PHE27      -0.2867
     34  CB        64.0970   42.1430   18.0430 C.3    27  PHE27       0.0534
     35  CG        63.0540   41.1900   17.5470 C.ar   27  PHE27      -0.0203
     36  CD1       61.9030   41.6700   16.9340 C.ar   27  PHE27      -0.0042
     37  CD2       63.2170   39.8160   17.6800 C.ar   27  PHE27      -0.0042
     38  CE1       60.9220   40.7950   16.4570 C.ar   27  PHE27      -0.0003
     39  CE2       62.2410   38.9310   17.2060 C.ar   27  PHE27      -0.0003
     40  CZ        61.0920   39.4240   16.5940 C.ar   27  PHE27      -0.0000
     41  N         70.8990   33.2750   16.4940 N.3   117  GLU117     -0.1245
     42  CA        69.9500   34.2870   16.0760 C.3   117  GLU117      0.1567
     43  C         70.6130   35.6390   15.8320 C.2   117  GLU117      0.2260
     44  O         69.9510   36.5850   15.4220 O.2   117  GLU117     -0.2867
     45  CB        68.8150   34.4540   17.0890 C.3   117  GLU117      0.0388
     46  CG        69.0800   35.4880   18.1550 C.3   117  GLU117      0.1160
     47  CD        70.1040   35.0150   19.1580 C.2   117  GLU117      0.3649
     48  OE1       69.8130   34.0050   19.8330 O.co2 117  GLU117     -0.2457
     49  OE2       71.1790   35.6420   19.2720 O.co2 117  GLU117     -0.2457
     50  N         74.1090   46.2010   22.3360 N.3   156  PRO156     -0.2116
     51  CA        74.2660   45.8820   23.7530 C.3   156  PRO156      0.1372
     52  C         75.4440   44.9530   23.9430 C.2   156  PRO156      0.2244
     53  O         76.1120   44.5990   22.9680 O.2   156  PRO156     -0.2868
     54  CB        72.9420   45.2280   24.1030 C.3   156  PRO156      0.0268
     55  CG        72.6230   44.4820   22.8550 C.3   156  PRO156      0.0207
     56  CD        72.9550   45.4830   21.7650 C.3   156  PRO156      0.0892
     57  N         75.7910   42.5550   27.3200 N.3   158  HIS158     -0.1226
     58  CA        75.7760   41.5200   28.3290 C.3   158  HIS158      0.1752
     59  C         75.6760   40.0440   27.8960 C.2   158  HIS158      0.2596
     60  O         75.7910   39.1430   28.7390 O.2   158  HIS158     -0.2718
     61  CB        74.7390   41.8320   29.4140 C.3   158  HIS158      0.0759
     62  CG        73.3290   41.5370   29.0260 C.ar  158  HIS158      0.0818
     63  ND1       72.3610   41.2080   29.9520 N.ar  158  HIS158     -0.2268
     64  CD2       72.7150   41.5260   27.8200 C.ar  158  HIS158      0.1154
     65  CE1       71.2130   41.0000   29.3320 C.ar  158  HIS158      0.1986
     66  NE2       71.4010   41.1870   28.0370 N.ar  158  HIS158     -0.2212
     67  N         75.4850   39.7640   26.6090 N.am  159  HIS159     -0.1975
     68  CA        75.4250   38.3700   26.1660 C.3   159  HIS159      0.1656
     69  C         76.7490   37.9460   25.5500 C.2   159  HIS159      0.2291
     70  O         76.9180   36.7900   25.1480 O.2   159  HIS159     -0.2864
     71  CB        74.2850   38.1470   25.1620 C.3   159  HIS159      0.0771
     72  CG        72.9260   38.1180   25.7930 C.ar  159  HIS159      0.0820
     73  ND1       72.5990   37.2610   26.8250 N.ar  159  HIS159     -0.2267
     74  CD2       71.8210   38.8680   25.5660 C.ar  159  HIS159      0.1154
     75  CE1       71.3560   37.4880   27.2090 C.ar  159  HIS159      0.1986
     76  NE2       70.8610   38.4590   26.4610 N.ar  159  HIS159     -0.2212
     77  N         73.1010   36.8700   21.3090 N.3   167  GLY167     -0.1210
     78  CA        72.0690   37.6960   21.9180 C.3   167  GLY167      0.1956
     79  C         72.1360   39.1680   21.5450 C.2   167  GLY167      0.2611
     80  O         71.8060   40.0070   22.3770 O.2   167  GLY167     -0.2717
     81  N         72.5740   39.4610   20.3140 N.am  168  TYR168     -0.1976
     82  CA        72.6730   40.8200   19.7750 C.3   168  TYR168      0.1639
     83  C         73.8940   41.5570   20.3210 C.2   168  TYR168      0.2290
     84  O         74.0560   42.7590   20.1000 O.2   168  TYR168     -0.2864
     85  CB        71.4080   41.6390   20.1140 C.3   168  TYR168      0.0560
     86  CG        70.0850   40.9300   19.8980 C.ar  168  TYR168     -0.0198
     87  CD1       69.9630   39.9100   18.9430 C.ar  168  TYR168     -0.0009
     88  CD2       68.9390   41.3190   20.6150 C.ar  168  TYR168     -0.0009
     89  CE1       68.7350   39.2950   18.7040 C.ar  168  TYR168      0.0417
     90  CE2       67.7020   40.7160   20.3860 C.ar  168  TYR168      0.0417
     91  CZ        67.6080   39.7070   19.4270 C.ar  168  TYR168      0.1957
     92  OH        66.3820   39.1230   19.1680 O.3   168  TYR168     -0.2866
     93  N         68.3490   43.5610   33.3090 N.3   195  ASP195     -0.1239
     94  CA        67.7730   43.1900   32.0220 C.3   195  ASP195      0.1674
     95  C         66.9910   41.8800   32.2740 C.2   195  ASP195      0.2266
     96  O         67.4260   41.0520   33.0700 O.2   195  ASP195     -0.2867
     97  CB        68.9230   42.9510   31.0320 C.3   195  ASP195      0.1410
     98  CG        68.4420   42.6090   29.6460 C.2   195  ASP195      0.3668
     99  OD1       67.8580   41.5090   29.4970 O.co2 195  ASP195     -0.2456
    100  OD2       68.6700   43.4490   28.7340 O.co2 195  ASP195     -0.2456
    101  N         66.7640   39.1790   30.6600 N.3   197  HIS197     -0.1241
    102  CA        67.5600   37.9840   30.4300 C.3   197  HIS197      0.1621
    103  C         68.8090   37.9660   31.2810 C.2   197  HIS197      0.2264
    104  O         69.3390   39.0140   31.6640 O.2   197  HIS197     -0.2867
    105  CB        68.0040   37.8770   28.9770 C.3   197  HIS197      0.0745
    106  CG        66.8780   37.7950   28.0030 C.ar  197  HIS197      0.0817
    107  ND1       66.2620   38.9130   27.4850 N.ar  197  HIS197     -0.2268
    108  CD2       66.2210   36.7280   27.4900 C.ar  197  HIS197      0.1154
    109  CE1       65.2710   38.5390   26.6970 C.ar  197  HIS197      0.1986
    110  NE2       65.2250   37.2200   26.6830 N.ar  197  HIS197     -0.2212
    111  N         65.7260   32.5310   27.3260 N.3   225  PHE225     -0.1241
    112  CA        67.0440   32.8030   26.7500 C.3   225  PHE225      0.1605
    113  C         67.8900   33.3920   27.8920 C.2   225  PHE225      0.2264
    114  O         67.3730   34.1460   28.7180 O.2   225  PHE225     -0.2867
    115  CB        66.8980   33.8470   25.6450 C.3   225  PHE225      0.0534
    116  CG        68.1680   34.1360   24.9090 C.ar  225  PHE225     -0.0203
    117  CD1       68.5350   33.3730   23.8110 C.ar  225  PHE225     -0.0042
    118  CD2       68.9880   35.1890   25.2930 C.ar  225  PHE225     -0.0042
    119  CE1       69.6940   33.6580   23.0980 C.ar  225  PHE225     -0.0003
    120  CE2       70.1540   35.4780   24.5820 C.ar  225  PHE225     -0.0003
    121  CZ        70.5040   34.7110   23.4820 C.ar  225  PHE225     -0.0000
    122  N         69.0260   30.3300   28.2560 N.3   227  HIS227     -0.1241
    123  CA        68.7450   28.9120   28.5220 C.3   227  HIS227      0.1621
    124  C         69.8120   28.0480   29.2050 C.2   227  HIS227      0.2264
    125  O         69.4700   27.0550   29.8440 O.2   227  HIS227     -0.2867
    126  CB        68.3830   28.2010   27.2190 C.3   227  HIS227      0.0745
    127  CG        67.2470   28.8230   26.4690 C.ar  227  HIS227      0.0817
    128  ND1       65.9470   28.8130   26.9340 N.ar  227  HIS227     -0.2268
    129  CD2       67.2160   29.4510   25.2680 C.ar  227  HIS227      0.1154
    130  CE1       65.1640   29.4100   26.0490 C.ar  227  HIS227      0.1986
    131  NE2       65.9080   29.8040   25.0310 N.ar  227  HIS227     -0.2212
    132  N         63.3090   45.2210   29.1900 N.3   284  ASP284     -0.1239
    133  CA        62.4480   44.2000   28.6320 C.3   284  ASP284      0.1674
    134  C         61.7400   43.4310   29.7410 C.2   284  ASP284      0.2266
    135  O         61.0880   42.4180   29.4890 O.2   284  ASP284     -0.2867
    136  CB        63.2080   43.2470   27.6790 C.3   284  ASP284      0.1410
    137  CG        64.6140   42.9070   28.1450 C.2   284  ASP284      0.3668
    138  OD1       65.1750   43.6000   29.0230 O.co2 284  ASP284     -0.2456
    139  OD2       65.1810   41.9370   27.6000 O.co2 284  ASP284     -0.2456
    140  N         58.6490   39.8420   24.6950 N.3   291  ILE291     -0.1245
    141  CA        59.5480   38.7200   24.9570 C.3   291  ILE291      0.1561
    142  C         59.7120   38.2480   26.3950 C.2   291  ILE291      0.2260
    143  O         60.2500   37.1690   26.6280 O.2   291  ILE291     -0.2867
    144  CB        60.9450   39.0050   24.3830 C.3   291  ILE291      0.0252
    145  CG1       61.5480   40.2290   25.0700 C.3   291  ILE291      0.0019
    146  CG2       60.8440   39.2380   22.8720 C.3   291  ILE291      0.0019
    147  CD1       62.9430   40.5910   24.5820 C.3   291  ILE291      0.0001
    148  N         69.2680   45.4130   26.7600 N.3   321  GLY321     -0.1210
    149  CA        68.0920   45.0520   25.9960 C.3   321  GLY321      0.1956
    150  C         66.8080   45.8160   26.2590 C.2   321  GLY321      0.2612
    151  O         66.7580   46.8000   27.0030 O.2   321  GLY321     -0.2717
    152  N         65.7450   45.3270   25.6360 N.am  322  GLY322     -0.1956
    153  CA        64.4430   45.9530   25.7550 C.3   322  GLY322      0.1869
    154  C         63.8260   46.0320   24.3690 C.2   322  GLY322      0.2309
    155  O         64.3200   46.7560   23.5020 O.2   322  GLY322     -0.2863
@<TRIPOS>BOND
     1     1     2    1
     2    16    15    1
     3     4     3    2
     4     3     2    1
     5     3    10   am
     6     2     5    1
     7    17    15    1
     8    15    14    1
     9    11    14    1
    10    11    10    1
    11    11    12    1
    12    21    20    2
    13     5     6    1
    14    18    12   am
    15    18    19    1
    16    12    13    2
    17    20    19    1
    18    19    22    1
    19     6     7    1
    20    22    23    1
    21    44    43    2
    22    25    23   ar
    23    25    27   ar
    24    43    42    1
    25    30    31    1
    26     7     8   ar
    27     7     9   ar
    28    42    41    1
    29    42    45    1
    30    23    24   ar
    31    27    28   ar
    32    38    40   ar
    33    38    36   ar
    34    40    39   ar
    35    36    35   ar
    36    31    32    1
    37    31    34    1
    38    45    46    1
    39    39    37   ar
    40    24    26   ar
    41    35    37   ar
    42    35    34    1
    43    32    33    2
    44    28    26   ar
    45    28    29    1
    46    46    47    1
    47    89    87   ar
    48    89    91   ar
    49    87    86   ar
    50    47    49   ar
    51    47    48   ar
    52    92    91    1
    53    91    90   ar
    54    82    85    1
    55    82    81    1
    56    82    83    1
    57    86    85    1
    58    86    88   ar
    59    84    83    2
    60    81    79   am
    61    90    88   ar
    62    77    78    1
    63    79    78    1
    64    79    80    2
    65    56    50    1
    66    56    55    1
    67    50    51    1
    68    55    54    1
    69   146   144    1
    70    53    52    2
    71   119   121   ar
    72   119   117   ar
    73   121   120   ar
    74   155   154    2
    75    51    52    1
    76    51    54    1
    77   117   116   ar
    78   154   153    1
    79   144   141    1
    80   144   145    1
    81   120   118   ar
    82   147   145    1
    83   140   141    1
    84   116   118   ar
    85   116   115    1
    86   141   142    1
    87   131   129   ar
    88   131   130   ar
    89    70    69    2
    90    71    72    1
    91    71    68    1
    92   129   127   ar
    93    69    68    1
    94    74    72   ar
    95    74    76   ar
    96   152   153    1
    97   152   150   am
    98   115   112    1
    99    72    73   ar
   100   149   150    1
   101   149   148    1
   102   130   128   ar
   103    68    67    1
   104   150   151    2
   105   142   143    2
   106    76    75   ar
   107   127   128   ar
   108   127   126    1
   109    67    59   am
   110   110   109   ar
   111   110   108   ar
   112   109   107   ar
   113   112   111    1
   114   112   113    1
   115    73    75   ar
   116   126   123    1
   117    57    58    1
   118   107   106   ar
   119   108   106   ar
   120   139   137   ar
   121   136   137    1
   122   136   133    1
   123    64    66   ar
   124    64    62   ar
   125   113   114    2
   126    59    58    1
   127    59    60    2
   128   106   105    1
   129    66    65   ar
   130   137   138   ar
   131   122   123    1
   132    58    61    1
   133   123   124    1
   134   133   132    1
   135   133   134    1
   136   100    98   ar
   137   105   102    1
   138    62    61    1
   139    62    63   ar
   140   124   125    2
   141    65    63   ar
   142   135   134    2
   143    99    98   ar
   144    98    97    1
   145   102   101    1
   146   102   103    1
   147    97    94    1
   148   103   104    2
   149    94    95    1
   150    94    93    1
   151    95    96    2
