@<TRIPOS>MOLECULE
tmp/3q9kA05.pdb
 101 99 0 0 0
SMALL
GASTEIGER

@<TRIPOS>ATOM
      1  N          9.6850    1.6170   19.5600 N.3   105  GLN105     -0.1245
      2  CA         8.6650    1.7020   20.6450 C.3   105  GLN105      0.1566
      3  C          7.2630    1.2590   20.1630 C.2   105  GLN105      0.2260
      4  O          6.5230    0.5750   20.8850 O.2   105  GLN105     -0.2867
      5  CB         8.5840    3.1180   21.2420 C.3   105  GLN105      0.0367
      6  CG         7.8310    3.1630   22.5850 C.3   105  GLN105      0.0905
      7  CD         7.7450    4.5820   23.1340 C.2   105  GLN105      0.2608
      8  OE1        7.7820    5.5700   22.3770 O.2   105  GLN105     -0.2717
      9  NE2        7.6170    4.6910   24.4480 N.am  105  GLN105     -0.0878
     10  N          5.2500   -1.9840   21.5600 N.3   109  HIS109     -0.1241
     11  CA         3.8800   -1.8400   22.0980 C.3   109  HIS109      0.1621
     12  C          2.8370   -2.7490   21.4740 C.2   109  HIS109      0.2264
     13  O          1.9000   -3.1350   22.0890 O.2   109  HIS109     -0.2867
     14  CB         3.4340   -0.4090   22.1540 C.3   109  HIS109      0.0745
     15  CG         4.1710    0.3770   23.1680 C.ar  109  HIS109      0.0817
     16  ND1        3.8470    1.6670   23.5020 N.ar  109  HIS109     -0.2268
     17  CD2        5.2150    0.0400   23.9420 C.ar  109  HIS109      0.1154
     18  CE1        4.6600    2.0900   24.4380 C.ar  109  HIS109      0.1986
     19  NE2        5.5100    1.1280   24.7080 N.ar  109  HIS109     -0.2212
     20  N          2.9110   -6.0270   26.8520 N.3   113  PHE113     -0.1241
     21  CA         2.5930   -5.0720   27.8940 C.3   113  PHE113      0.1605
     22  C          2.3240   -5.8820   29.1570 C.2   113  PHE113      0.2264
     23  O          1.4210   -6.6990   29.1930 O.2   113  PHE113     -0.2867
     24  CB         1.3600   -4.2400   27.5060 C.3   113  PHE113      0.0534
     25  CG         0.9560   -3.1890   28.5090 C.ar  113  PHE113     -0.0203
     26  CD1        1.8940   -2.5450   29.3040 C.ar  113  PHE113     -0.0042
     27  CD2       -0.3840   -2.8210   28.6220 C.ar  113  PHE113     -0.0042
     28  CE1        1.5020   -1.5600   30.2090 C.ar  113  PHE113     -0.0003
     29  CE2       -0.7930   -1.8320   29.5230 C.ar  113  PHE113     -0.0003
     30  CZ         0.1520   -1.1930   30.3140 C.ar  113  PHE113     -0.0000
     31  N         -3.0650   11.9740   33.4900 N.3   235  PRO235     -0.2116
     32  CA        -1.7040   12.5030   33.6310 C.3   235  PRO235      0.1372
     33  C         -1.4160   13.6210   32.6180 C.2   235  PRO235      0.2244
     34  O         -0.6320   14.5380   32.9060 O.2   235  PRO235     -0.2868
     35  CB        -0.7940   11.2700   33.4510 C.3   235  PRO235      0.0268
     36  CG        -1.5710   10.3240   32.6660 C.3   235  PRO235      0.0207
     37  CD        -3.0670   10.6130   32.9210 C.3   235  PRO235      0.0892
     38  N         -2.7700    1.3750   25.8510 N.3   253  PHE253     -0.1227
     39  CA        -2.8630    2.1830   27.0660 C.3   253  PHE253      0.1736
     40  C         -1.7650    3.2400   27.1500 C.2   253  PHE253      0.2595
     41  O         -1.9270    4.2990   27.7440 O.2   253  PHE253     -0.2718
     42  CB        -2.7840    1.2180   28.2920 C.3   253  PHE253      0.0547
     43  CG        -2.9690    1.8830   29.6370 C.ar  253  PHE253     -0.0202
     44  CD1       -4.1700    2.5170   29.9670 C.ar  253  PHE253     -0.0042
     45  CD2       -1.9420    1.8760   30.5800 C.ar  253  PHE253     -0.0042
     46  CE1       -4.3490    3.1320   31.2340 C.ar  253  PHE253     -0.0003
     47  CE2       -2.1030    2.4840   31.8370 C.ar  253  PHE253     -0.0003
     48  CZ        -3.3100    3.1180   32.1620 C.ar  253  PHE253     -0.0000
     49  N         -0.6690    2.9780   26.4530 N.am  254  ARG254     -0.1980
     50  CA         0.5560    3.7800   26.5720 C.3   254  ARG254      0.1597
     51  C          0.7670    4.8820   25.5740 C.2   254  ARG254      0.2287
     52  O          1.7910    5.5700   25.6270 O.2   254  ARG254     -0.2864
     53  CB         1.7500    2.8140   26.4530 C.3   254  ARG254      0.0334
     54  CG         1.8300    1.8010   27.5940 C.3   254  ARG254      0.0492
     55  CD         2.7370    0.6230   27.3020 C.3   254  ARG254      0.2205
     56  NE         2.2070   -0.2470   26.2680 N.pl3 254  ARG254     -0.0865
     57  CZ         2.7790   -1.3850   25.8910 C.cat 254  ARG254      0.5346
     58  NH1        3.9030   -1.8000   26.4850 N.pl3 254  ARG254      0.1354
     59  NH2        2.2080   -2.1030   24.9270 N.pl3 254  ARG254      0.1354
     60  N          0.1150    7.8750   25.0020 N.3   256  SER256     -0.1202
     61  CA         0.4670    9.2440   25.3450 C.3   256  SER256      0.2020
     62  C          1.7140    9.4470   26.1970 C.2   256  SER256      0.2618
     63  O          2.0040   10.5280   26.6180 O.2   256  SER256     -0.2717
     64  CB        -0.7310    9.9520   25.9830 C.3   256  SER256      0.2103
     65  OG        -1.7820    9.9520   25.0900 O.3   256  SER256     -0.2182
     66  N          2.4670    8.3870   26.4100 N.am  257  GLU257     -0.1979
     67  CA         3.6060    8.4680   27.2890 C.3   257  GLU257      0.1602
     68  C          4.5800    9.5320   26.8530 C.2   257  GLU257      0.2287
     69  O          5.1960   10.1480   27.6480 O.2   257  GLU257     -0.2864
     70  CB         4.3400    7.1360   27.3860 C.3   257  GLU257      0.0415
     71  CG         5.5040    7.1290   28.2970 C.3   257  GLU257      0.1163
     72  CD         6.8240    7.1590   27.5810 C.2   257  GLU257      0.3649
     73  OE1        6.7980    7.0850   26.3730 O.co2 257  GLU257     -0.2457
     74  OE2        7.8500    7.2290   28.2440 O.co2 257  GLU257     -0.2457
     75  N          3.5910   12.4690   28.6280 N.3   380  PHE380     -0.1241
     76  CA         2.1370   12.6610   28.8000 C.3   380  PHE380      0.1605
     77  C          1.6640   14.0260   28.3140 C.2   380  PHE380      0.2264
     78  O          0.7160   14.6240   28.8350 O.2   380  PHE380     -0.2867
     79  CB         1.7710   12.3750   30.2610 C.3   380  PHE380      0.0534
     80  CG         2.3200   11.0730   30.7030 C.ar  380  PHE380     -0.0203
     81  CD1        1.4700    9.9810   30.8850 C.ar  380  PHE380     -0.0042
     82  CD2        3.6910   10.8950   30.8780 C.ar  380  PHE380     -0.0042
     83  CE1        1.9770    8.7260   31.1970 C.ar  380  PHE380     -0.0003
     84  CE2        4.2040    9.6340   31.1950 C.ar  380  PHE380     -0.0003
     85  CZ         3.3380    8.5570   31.3650 C.ar  380  PHE380     -0.0000
     86  N          5.8830    9.4510   35.9130 N.3   422  GLN422     -0.1231
     87  CA         4.9650    8.3040   35.9830 C.3   422  GLN422      0.1683
     88  C          3.5990    8.7550   36.5050 C.2   422  GLN422      0.2434
     89  O          3.5280    9.4820   37.4970 O.2   422  GLN422     -0.2733
     90  CB         5.5280    7.2300   36.8920 C.3   422  GLN422      0.0380
     91  CG         6.9280    6.7970   36.4780 C.3   422  GLN422      0.0905
     92  CD         6.9740    5.3240   36.2650 C.2   422  GLN422      0.2608
     93  OE1        7.0070    4.5470   37.2200 O.2   422  GLN422     -0.2717
     94  NE2        6.9350    4.9130   35.0090 N.am  422  GLN422     -0.0878
     95  N          2.5140    8.3080   35.9100 N.am  423  PRO423     -0.2729
     96  CA         1.2100    8.7460   36.4080 C.3   423  PRO423      0.1401
     97  C          1.0490    8.4460   37.8820 C.2   423  PRO423      0.2269
     98  O          1.6740    7.6120   38.4690 O.2   423  PRO423     -0.2865
     99  CB         0.2630    8.1130   35.4440 C.3   423  PRO423      0.0296
    100  CG         1.0360    7.9230   34.2640 C.3   423  PRO423      0.0237
    101  CD         2.3430    7.5600   34.6750 C.3   423  PRO423      0.0939
@<TRIPOS>BOND
     1     1     2    1
     2     3     2    1
     3     3     4    2
     4     2     5    1
     5     5     6    1
     6    12    13    2
     7    12    11    1
     8    10    11    1
     9    11    14    1
    10    14    15    1
    11     8     7    2
    12     6     7    1
    13     7     9   am
    14    15    16   ar
    15    15    17   ar
    16    16    18   ar
    17    17    19   ar
    18    18    19   ar
    19    59    57    1
    20    60    61    1
    21    65    64    1
    22    61    64    1
    23    61    62    1
    24    51    52    2
    25    51    50    1
    26    38    39    1
    27    57    56    2
    28    57    58    1
    29    62    66   am
    30    62    63    2
    31    56    55    1
    32    73    72   ar
    33    66    67    1
    34    53    50    1
    35    53    54    1
    36    49    50    1
    37    49    40   am
    38    20    21    1
    39    68    67    1
    40    68    69    2
    41    39    40    1
    42    39    42    1
    43    40    41    2
    44    67    70    1
    45    55    54    1
    46    70    71    1
    47    24    21    1
    48    24    25    1
    49    72    74   ar
    50    72    71    1
    51    21    22    1
    52    42    43    1
    53    77    76    1
    54    77    78    2
    55    25    27   ar
    56    25    26   ar
    57    27    29   ar
    58    75    76    1
    59    76    79    1
    60    22    23    2
    61    26    28   ar
    62    29    30   ar
    63    43    44   ar
    64    43    45   ar
    65    44    46   ar
    66    28    30   ar
    67    79    80    1
    68    45    47   ar
    69    80    82   ar
    70    80    81   ar
    71    82    84   ar
    72    81    83   ar
    73    84    85   ar
    74    83    85   ar
    75    46    48   ar
    76    47    48   ar
    77    33    34    2
    78    33    32    1
    79    36    37    1
    80    36    35    1
    81    37    31    1
    82    35    32    1
    83    31    32    1
    84   100   101    1
    85   100    99    1
    86   101    95    1
    87    94    92   am
    88    99    96    1
    89    95    96    1
    90    95    88   am
    91    86    87    1
    92    87    88    1
    93    87    90    1
    94    92    91    1
    95    92    93    2
    96    96    97    1
    97    91    90    1
    98    88    89    2
    99    97    98    2
