@<TRIPOS>MOLECULE
tmp/3q9lA00.pdb
 173 166 0 0 0
SMALL
GASTEIGER

@<TRIPOS>ATOM
      1  N         43.7870   47.2390   15.4850 N.3    11  GLY11      -0.1210
      2  CA        43.3350   48.5910   15.7650 C.3    11  GLY11       0.1956
      3  C         43.4480   48.9690   17.2360 C.2    11  GLY11       0.2612
      4  O         43.4770   48.0910   18.1090 O.2    11  GLY11      -0.2717
      5  N         43.5220   50.2740   17.5040 N.am   12  GLY12      -0.1942
      6  CA        43.4700   50.8170   18.8540 C.3    12  GLY12       0.2014
      7  C         44.5340   50.3800   19.8650 C.2    12  GLY12       0.2639
      8  O         44.2890   50.4010   21.0620 O.2    12  GLY12      -0.2714
      9  N         45.7210   49.9940   19.4120 N.am   13  VAL13      -0.1963
     10  CA        46.7650   49.5700   20.3540 C.3    13  VAL13       0.1727
     11  C         47.5790   50.7300   20.9100 C.2    13  VAL13       0.2617
     12  O         48.2570   50.5730   21.9170 O.2    13  VAL13      -0.2715
     13  CB        47.7310   48.5620   19.7260 C.3    13  VAL13       0.0290
     14  CG1       46.9880   47.3060   19.3130 C.3    13  VAL13       0.0023
     15  CG2       48.4180   49.1790   18.5430 C.3    13  VAL13       0.0023
     16  N         47.5240   51.8840   20.2410 N.am   14  GLY14      -0.1940
     17  CA        48.2330   53.0810   20.6780 C.3    14  GLY14       0.2014
     18  C         49.2300   53.6830   19.6810 C.2    14  GLY14       0.2639
     19  O         50.2130   54.3380   20.0870 O.2    14  GLY14      -0.2714
     20  N         48.9920   53.4890   18.3840 N.am   15  LYS15      -0.1963
     21  CA        49.9450   53.9740   17.3800 C.3    15  LYS15       0.1728
     22  C         50.1270   55.4970   17.4490 C.2    15  LYS15       0.2617
     23  O         51.2530   56.0180   17.4470 O.2    15  LYS15      -0.2715
     24  CB        49.5510   53.5400   15.9630 C.3    15  LYS15       0.0311
     25  CG        49.6660   52.0270   15.6940 C.3    15  LYS15       0.0038
     26  CD        49.0130   51.6400   14.3630 C.3    15  LYS15       0.0206
     27  CE        47.5560   52.0920   14.3140 C.3    15  LYS15       0.1093
     28  NZ        46.6320   51.1900   15.0550 N.3    15  LYS15      -0.1314
     29  N         49.0110   56.2040   17.5270 N.am   16  THR16      -0.1937
     30  CA        49.0340   57.6490   17.4790 C.3    16  THR16       0.2028
     31  C         49.5910   58.2300   18.7680 C.2    16  THR16       0.2642
     32  O         50.3220   59.2230   18.7500 O.2    16  THR16      -0.2714
     33  CB        47.6410   58.1780   17.2420 C.3    16  THR16       0.1808
     34  OG1       47.1980   57.7120   15.9680 O.3    16  THR16      -0.2208
     35  CG2       47.6280   59.6950   17.2820 C.3    16  THR16       0.0379
     36  N         49.2430   57.5980   19.8850 N.am   17  THR17      -0.1950
     37  CA        49.7790   57.9800   21.1700 C.3    17  THR17       0.1897
     38  C         51.2910   57.9040   21.0610 C.2    17  THR17       0.2313
     39  O         52.0020   58.8460   21.4280 O.2    17  THR17      -0.2863
     40  CB        49.2970   57.0320   22.2790 C.3    17  THR17       0.1794
     41  OG1       47.8840   57.1390   22.4010 O.3    17  THR17      -0.2208
     42  CG2       49.9140   57.4040   23.6000 C.3    17  THR17       0.0378
     43  N         46.7750   58.5420    8.4790 N.3    39  ALA39      -0.1245
     44  CA        45.4600   57.9700    8.7150 C.3    39  ALA39       0.1562
     45  C         44.4140   58.7980    8.0300 C.2    39  ALA39       0.2260
     46  O         43.5770   59.4130    8.6880 O.2    39  ALA39      -0.2867
     47  CB        45.1680   57.8800   10.1990 C.3    39  ALA39       0.0290
     48  N         43.6670   61.9680   13.3140 N.3    44  ASN44      -0.1240
     49  CA        43.7210   61.9450   14.7610 C.3    44  ASN44       0.1653
     50  C         45.0030   62.5710   15.3360 C.2    44  ASN44       0.2266
     51  O         45.0020   63.0760   16.4590 O.2    44  ASN44      -0.2867
     52  CB        43.5720   60.5060   15.2400 C.3    44  ASN44       0.1155
     53  CG        43.1450   60.4290   16.6930 C.2    44  ASN44       0.2627
     54  OD1       42.4710   61.3320   17.1960 O.2    44  ASN44      -0.2716
     55  ND2       43.5420   59.3680   17.3800 N.am   44  ASN44      -0.0877
     56  N         45.8120   64.7290   18.9220 N.3    48  ILE48      -0.1245
     57  CA        46.7470   64.2800   19.9690 C.3    48  ILE48       0.1561
     58  C         47.8720   65.2870   20.2320 C.2    48  ILE48       0.2260
     59  O         48.2820   65.4660   21.3810 O.2    48  ILE48      -0.2867
     60  CB        47.3670   62.8860   19.6470 C.3    48  ILE48       0.0252
     61  CG1       46.2790   61.8130   19.5830 C.3    48  ILE48       0.0019
     62  CG2       48.4210   62.5160   20.6440 C.3    48  ILE48       0.0019
     63  CD1       45.1190   62.0320   20.5280 C.3    48  ILE48       0.0001
     64  N         50.6640   55.2800   11.2960 N.3   120  SER120     -0.1203
     65  CA        49.8650   54.4420   10.4090 C.3   120  SER120      0.2005
     66  C         48.4300   54.2370   10.8710 C.2   120  SER120      0.2461
     67  O         48.1450   54.2040   12.0770 O.2   120  SER120     -0.2732
     68  CB        50.5060   53.0690   10.2190 C.3   120  SER120      0.2103
     69  OG        49.6680   52.2620    9.4070 O.3   120  SER120     -0.2182
     70  N         47.5180   54.0850    9.9060 N.am  121  PRO121     -0.2717
     71  CA        46.1760   53.6020   10.2420 C.3   121  PRO121      0.1535
     72  C         46.2310   52.1400   10.6650 C.2   121  PRO121      0.2598
     73  O         47.2470   51.4830   10.4850 O.2   121  PRO121     -0.2715
     74  CB        45.4000   53.7460    8.9260 C.3   121  PRO121      0.0310
     75  CG        46.4480   53.8720    7.8530 C.3   121  PRO121      0.0237
     76  CD        47.6320   54.5230    8.5020 C.3   121  PRO121      0.0939
     77  N         45.1460   51.6410   11.2370 N.am  122  ALA122     -0.1978
     78  CA        45.0570   50.2320   11.5730 C.3   122  ALA122      0.1597
     79  C         44.9090   49.3950   10.2950 C.2   122  ALA122      0.2287
     80  O         44.7720   49.9350    9.2040 O.2   122  ALA122     -0.2864
     81  CB        43.8720   49.9960   12.5270 C.3   122  ALA122      0.0319
     82  N         52.7220   48.1940   24.4930 N.3   180  THR180     -0.1203
     83  CA        51.9710   49.3020   25.0520 C.3   180  THR180      0.1994
     84  C         50.8400   48.7870   25.9180 C.2   180  THR180      0.2617
     85  O         50.4200   47.6320   25.7930 O.2   180  THR180     -0.2717
     86  CB        51.3850   50.2130   23.9520 C.3   180  THR180      0.1784
     87  OG1       50.5750   49.4350   23.0600 O.3   180  THR180     -0.2211
     88  CG2       52.5090   50.8990   23.1600 C.3   180  THR180      0.0376
     89  N         50.3430   49.6480   26.8000 N.am  181  ARG181     -0.1979
     90  CA        49.2610   49.2710   27.7060 C.3   181  ARG181      0.1597
     91  C         49.6380   48.0200   28.5000 C.2   181  ARG181      0.2287
     92  O         48.7880   47.1900   28.8000 O.2   181  ARG181     -0.2864
     93  CB        47.9550   49.0500   26.9350 C.3   181  ARG181      0.0334
     94  CG        47.5850   50.1900   25.9900 C.3   181  ARG181      0.0492
     95  CD        46.0720   50.2430   25.7140 C.3   181  ARG181      0.2205
     96  NE        45.2840   50.5640   26.9010 N.pl3 181  ARG181     -0.0865
     97  CZ        43.9700   50.7760   26.8960 C.cat 181  ARG181      0.5346
     98  NH1       43.2920   50.7270   25.7460 N.pl3 181  ARG181      0.1354
     99  NH2       43.3350   51.0460   28.0390 N.pl3 181  ARG181      0.1354
    100  N         55.3860   50.4200   27.2790 N.3   210  ILE210     -0.1231
    101  CA        54.6510   51.5330   27.8450 C.3   210  ILE210      0.1678
    102  C         53.5870   51.0030   28.7790 C.2   210  ILE210      0.2434
    103  O         52.6820   50.2780   28.3540 O.2   210  ILE210     -0.2733
    104  CB        54.0080   52.3910   26.7520 C.3   210  ILE210      0.0265
    105  CG1       55.0350   52.6620   25.6580 C.3   210  ILE210      0.0019
    106  CG2       53.4690   53.7150   27.3420 C.3   210  ILE210      0.0020
    107  CD1       56.2280   53.4650   26.1750 C.3   210  ILE210      0.0001
    108  N         53.6970   51.3460   30.0650 N.am  211  PRO211     -0.2718
    109  CA        52.7390   50.8150   31.0430 C.3   211  PRO211      0.1535
    110  C         51.3480   51.3430   30.7760 C.2   211  PRO211      0.2598
    111  O         51.2280   52.4590   30.2830 O.2   211  PRO211     -0.2715
    112  CB        53.2460   51.3660   32.3750 C.3   211  PRO211      0.0310
    113  CG        54.1020   52.5670   31.9930 C.3   211  PRO211      0.0237
    114  CD        54.7290   52.1980   30.6850 C.3   211  PRO211      0.0939
    115  N         50.3300   50.5350   31.0570 N.am  212  GLU212     -0.1964
    116  CA        48.9700   51.0150   31.0910 C.3   212  GLU212      0.1733
    117  C         48.9830   52.1720   32.0940 C.2   212  GLU212      0.2616
    118  O         49.5200   52.0380   33.1980 O.2   212  GLU212     -0.2715
    119  CB        48.0080   49.8800   31.5240 C.3   212  GLU212      0.0429
    120  CG        46.5380   50.2730   31.6990 C.3   212  GLU212      0.1163
    121  CD        45.8290   50.6800   30.3860 C.2   212  GLU212      0.3649
    122  OE1       44.7980   51.3780   30.4580 O.co2 212  GLU212     -0.2457
    123  OE2       46.2860   50.3000   29.2820 O.co2 212  GLU212     -0.2457
    124  N         48.4050   53.3050   31.7100 N.am  213  ASP213     -0.1957
    125  CA        48.5630   54.5390   32.4830 C.3   213  ASP213      0.1840
    126  C         47.4080   55.5090   32.2530 C.2   213  ASP213      0.2621
    127  O         47.1640   55.9290   31.1240 O.2   213  ASP213     -0.2715
    128  CB        49.8750   55.2380   32.0860 C.3   213  ASP213      0.1450
    129  CG        50.2620   56.3760   33.0420 C.2   213  ASP213      0.3671
    130  OD1       49.4410   56.7230   33.9310 O.co2 213  ASP213     -0.2456
    131  OD2       51.3930   56.9240   32.8950 O.co2 213  ASP213     -0.2456
    132  N         46.7220   55.8890   33.3250 N.am  214  GLN214     -0.1977
    133  CA        45.6300   56.8540   33.2320 C.3   214  GLN214      0.1601
    134  C         46.0700   58.2140   32.6770 C.2   214  GLN214      0.2287
    135  O         45.2330   59.0110   32.2400 O.2   214  GLN214     -0.2864
    136  CB        44.9490   57.0500   34.5950 C.3   214  GLN214      0.0394
    137  CG        44.0610   55.8910   35.0250 C.3   214  GLN214      0.0908
    138  CD        42.9240   56.3210   35.9800 C.2   214  GLN214      0.2608
    139  OE1       42.7780   57.5060   36.3090 O.2   214  GLN214     -0.2717
    140  NE2       42.1150   55.3490   36.4190 N.am  214  GLN214     -0.0878
    141  N         47.6390   58.8270   29.9750 N.3   216  VAL216     -0.1231
    142  CA        47.5080   58.8800   28.5220 C.3   216  VAL216      0.1692
    143  C         46.1890   59.4910   28.0730 C.2   216  VAL216      0.2591
    144  O         46.1820   60.4100   27.2520 O.2   216  VAL216     -0.2718
    145  CB        47.6430   57.5040   27.8620 C.3   216  VAL216      0.0266
    146  CG1       47.2570   57.5880   26.3890 C.3   216  VAL216      0.0020
    147  CG2       49.0610   56.9920   28.0260 C.3   216  VAL216      0.0020
    148  N         45.0650   59.0010   28.5840 N.am  217  LEU217     -0.1980
    149  CA        43.7990   59.6600   28.2460 C.3   217  LEU217      0.1596
    150  C         43.8580   61.1350   28.6470 C.2   217  LEU217      0.2287
    151  O         43.3730   62.0130   27.9160 O.2   217  LEU217     -0.2864
    152  CB        42.5940   58.9530   28.8830 C.3   217  LEU217      0.0297
    153  CG        41.2050   59.4790   28.4790 C.3   217  LEU217      0.0022
    154  CD1       41.0990   59.7290   26.9810 C.3   217  LEU217      0.0001
    155  CD2       40.1340   58.5100   28.9060 C.3   217  LEU217      0.0001
    156  N         45.8330   62.9740   26.0110 N.3   220  SER220     -0.1217
    157  CA        44.9740   63.0930   24.8270 C.3   220  SER220      0.1889
    158  C         43.9950   64.2560   24.9580 C.2   220  SER220      0.2288
    159  O         43.9840   65.1680   24.1350 O.2   220  SER220     -0.2866
    160  CB        44.1950   61.7950   24.5810 C.3   220  SER220      0.2089
    161  OG        45.0580   60.6980   24.3380 O.3   220  SER220     -0.2183
    162  N         58.1560   56.4540   27.3690 N.3   238  TYR238     -0.1241
    163  CA        58.3960   56.9590   26.0250 C.3   238  TYR238      0.1605
    164  C         59.7470   57.6410   25.8970 C.2   238  TYR238      0.2264
    165  O         60.4200   57.4640   24.8900 O.2   238  TYR238     -0.2867
    166  CB        57.2790   57.8870   25.5790 C.3   238  TYR238      0.0534
    167  CG        56.0980   57.1590   24.9980 C.ar  238  TYR238     -0.0201
    168  CD1       56.2390   56.3290   23.8840 C.ar  238  TYR238     -0.0009
    169  CD2       54.8340   57.3160   25.5450 C.ar  238  TYR238     -0.0009
    170  CE1       55.1270   55.6540   23.3340 C.ar  238  TYR238      0.0417
    171  CE2       53.7240   56.6620   25.0060 C.ar  238  TYR238      0.0417
    172  CZ        53.8710   55.8370   23.9080 C.ar  238  TYR238      0.1957
    173  OH        52.7620   55.2110   23.4120 O.3   238  TYR238     -0.2866
@<TRIPOS>BOND
     1    75    76    1
     2    75    74    1
     3    45    46    2
     4    45    44    1
     5    43    44    1
     6    76    70    1
     7    44    47    1
     8    74    71    1
     9    80    79    2
    10    69    68    1
    11    70    71    1
    12    70    66   am
    13    68    65    1
    14    71    72    1
    15    79    78    1
    16    65    66    1
    17    65    64    1
    18    73    72    2
    19    72    77   am
    20    66    67    2
    21    77    78    1
    22    78    81    1
    23    48    49    1
    24    27    26    1
    25    27    28    1
    26    26    25    1
    27    49    52    1
    28    49    50    1
    29    52    53    1
    30    50    51    2
    31     1     2    1
    32    25    24    1
    33     2     3    1
    34    24    21    1
    35    34    33    1
    36    53    54    2
    37    53    55   am
    38     3     5   am
    39     3     4    2
    40    33    35    1
    41    33    30    1
    42    21    22    1
    43    21    20    1
    44    23    22    2
    45    22    29   am
    46    30    29    1
    47    30    31    1
    48     5     6    1
    49    20    18   am
    50    15    13    1
    51    32    31    2
    52    31    36   am
    53     6     7    1
    54    56    57    1
    55    14    13    1
    56     9     7   am
    57     9    10    1
    58    61    60    1
    59    61    63    1
    60    60    57    1
    61    60    62    1
    62    18    19    2
    63    18    17    1
    64    13    10    1
    65     7     8    2
    66    36    37    1
    67    57    58    1
    68    58    59    2
    69    16    17    1
    70    16    11   am
    71    10    11    1
    72    11    12    2
    73    38    37    1
    74    38    39    2
    75    37    40    1
    76    40    41    1
    77    40    42    1
    78    87    86    1
    79    88    86    1
    80   170   168   ar
    81   170   172   ar
    82   173   172    1
    83   168   167   ar
    84   172   171   ar
    85    86    83    1
    86   159   158    2
    87   161   160    1
    88    82    83    1
    89   160   157    1
    90   157   158    1
    91   157   156    1
    92   165   164    2
    93   167   169   ar
    94   167   166    1
    95   171   169   ar
    96    83    84    1
    97   166   163    1
    98   105   107    1
    99   105   104    1
   100    95    94    1
   101    95    96    1
   102    98    97    1
   103    85    84    2
   104   164   163    1
   105    84    89   am
   106    94    93    1
   107   163   162    1
   108   146   145    1
   109   104   106    1
   110   104   101    1
   111    89    90    1
   112    97    96    2
   113    97    99    1
   114    93    90    1
   115   154   153    1
   116   144   143    2
   117   100   101    1
   118    90    91    1
   119   101   102    1
   120   145   147    1
   121   145   142    1
   122   151   150    2
   123   143   142    1
   124   143   148   am
   125   149   148    1
   126   149   150    1
   127   149   152    1
   128   103   102    2
   129   153   152    1
   130   153   155    1
   131    91    92    2
   132   142   141    1
   133   102   108   am
   134   123   121   ar
   135   108   114    1
   136   108   109    1
   137   111   110    2
   138   121   122   ar
   139   121   120    1
   140   114   113    1
   141   110   109    1
   142   110   115   am
   143   109   112    1
   144   115   116    1
   145   116   119    1
   146   116   117    1
   147   127   126    2
   148   119   120    1
   149   124   117   am
   150   124   125    1
   151   113   112    1
   152   128   125    1
   153   128   129    1
   154   117   118    2
   155   135   134    2
   156   126   125    1
   157   126   132   am
   158   134   133    1
   159   131   129   ar
   160   129   130   ar
   161   133   132    1
   162   133   136    1
   163   136   137    1
   164   137   138    1
   165   138   139    2
   166   138   140   am
