@<TRIPOS>MOLECULE
tmp/3q9xB01.pdb
 97 91 0 0 0
SMALL
GASTEIGER

@<TRIPOS>ATOM
      1  N         -9.8430   81.0450  -14.9040 N.3    35  GLN35      -0.1231
      2  CA        -9.5910   80.8410  -13.4740 C.3    35  GLN35       0.1698
      3  C         -9.8320   82.0610  -12.5020 C.2    35  GLN35       0.2592
      4  O        -10.1650   81.8530  -11.3180 O.2    35  GLN35      -0.2718
      5  CB        -8.1410   80.4780  -13.3920 C.3    35  GLN35       0.0381
      6  CG        -7.7980   79.6940  -12.2580 C.3    35  GLN35       0.0905
      7  CD        -6.9580   80.3990  -11.2460 C.2    35  GLN35       0.2608
      8  OE1       -7.0480   81.6140  -11.0380 O.2    35  GLN35      -0.2717
      9  NE2       -6.1610   79.6130  -10.5510 N.am   35  GLN35      -0.0878
     10  N         -9.6300   83.2950  -12.9960 N.am   36  ASP36      -0.1974
     11  CA        -9.9020   84.5520  -12.2410 C.3    36  ASP36       0.1709
     12  C        -11.3660   84.8170  -12.0940 C.2    36  ASP36       0.2293
     13  O        -11.7720   85.7290  -11.3870 O.2    36  ASP36      -0.2864
     14  CB        -9.3170   85.7800  -12.9680 C.3    36  ASP36       0.1436
     15  CG        -7.8470   85.6890  -13.1540 C.2    36  ASP36       0.3671
     16  OD1       -7.2140   84.9800  -12.3520 O.co2  36  ASP36      -0.2456
     17  OD2       -7.3010   86.3140  -14.0930 O.co2  36  ASP36      -0.2456
     18  N        -13.2250   82.8640  -10.4330 N.3    38  TYR38      -0.1227
     19  CA       -13.6740   82.1710   -9.2130 C.3    38  TYR38       0.1736
     20  C        -12.8180   82.5860   -8.0420 C.2    38  TYR38       0.2595
     21  O        -11.5940   82.7210   -8.1580 O.2    38  TYR38      -0.2718
     22  CB       -13.7170   80.6350   -9.4090 C.3    38  TYR38       0.0548
     23  CG       -14.5540   80.2390  -10.6120 C.ar   38  TYR38      -0.0200
     24  CD1      -14.0230   80.0430  -11.8120 C.ar   38  TYR38      -0.0009
     25  CD2      -15.8730   80.1310  -10.5690 C.ar   38  TYR38      -0.0009
     26  CE1      -14.8020   79.7310  -12.9380 C.ar   38  TYR38       0.0417
     27  CE2      -16.6480   79.8450  -11.7300 C.ar   38  TYR38       0.0417
     28  CZ       -16.0860   79.6430  -12.8900 C.ar   38  TYR38       0.1957
     29  OH       -16.7990   79.3800  -14.0160 O.3    38  TYR38      -0.2866
     30  N        -13.4450   82.8390   -6.9040 N.am   39  GLN39      -0.1965
     31  CA       -12.6580   82.9870   -5.7020 C.3    39  GLN39       0.1733
     32  C        -13.0550   81.9340   -4.6950 C.2    39  GLN39       0.2616
     33  O        -14.2480   81.8050   -4.3820 O.2    39  GLN39      -0.2715
     34  CB       -12.8170   84.4090   -5.1320 C.3    39  GLN39       0.0408
     35  CG       -12.2190   85.4730   -5.9830 C.3    39  GLN39       0.0908
     36  CD       -12.4000   86.8770   -5.4160 C.2    39  GLN39       0.2608
     37  OE1      -13.2730   87.1390   -4.5820 O.2    39  GLN39      -0.2717
     38  NE2      -11.5890   87.7930   -5.8960 N.am   39  GLN39      -0.0878
     39  N        -12.0920   81.1850   -4.1600 N.am   40  LEU40      -0.1977
     40  CA       -12.4100   80.1680   -3.1530 C.3    40  LEU40       0.1596
     41  C        -12.9180   80.8150   -1.8670 C.2    40  LEU40       0.2287
     42  O        -12.3030   81.7900   -1.3880 O.2    40  LEU40      -0.2864
     43  CB       -11.1620   79.3460   -2.8800 C.3    40  LEU40       0.0297
     44  CG       -10.7140   78.5580   -4.1220 C.3    40  LEU40       0.0022
     45  CD1       -9.5470   77.5180   -3.7740 C.3    40  LEU40       0.0001
     46  CD2      -11.9280   77.8320   -4.7550 C.3    40  LEU40       0.0001
     47  N        -16.0230   73.9870   -6.3300 N.3    66  VAL66      -0.1245
     48  CA       -14.7930   73.7600   -7.0430 C.3    66  VAL66       0.1561
     49  C        -14.0140   72.5550   -6.5560 C.2    66  VAL66       0.2260
     50  O        -13.6360   72.4370   -5.3610 O.2    66  VAL66      -0.2867
     51  CB       -13.8660   75.0020   -6.9570 C.3    66  VAL66       0.0252
     52  CG1      -12.5640   74.7100   -7.7470 C.3    66  VAL66       0.0019
     53  CG2      -14.5830   76.2290   -7.5400 C.3    66  VAL66       0.0019
     54  N        -10.6120   70.6980   -6.9500 N.3    68  ILE68      -0.1245
     55  CA        -9.2640   70.8160   -7.4560 C.3    68  ILE68       0.1561
     56  C         -8.6340   69.4500   -7.4260 C.2    68  ILE68       0.2260
     57  O         -8.5550   68.8350   -6.3560 O.2    68  ILE68      -0.2867
     58  CB        -8.4490   71.7950   -6.6050 C.3    68  ILE68       0.0252
     59  CG1       -9.2020   73.1340   -6.4910 C.3    68  ILE68       0.0019
     60  CG2       -6.9540   71.8820   -7.1030 C.3    68  ILE68       0.0019
     61  CD1       -8.4630   74.2260   -5.5320 C.3    68  ILE68       0.0001
     62  N        -11.0320   74.7270  -15.1530 N.3   100  VAL100     -0.1231
     63  CA       -10.0270   75.8020  -15.1000 C.3   100  VAL100      0.1692
     64  C         -8.7230   75.2700  -14.6430 C.2   100  VAL100      0.2592
     65  O         -8.6750   74.1600  -14.1340 O.2   100  VAL100     -0.2718
     66  CB       -10.4540   77.0260  -14.2160 C.3   100  VAL100      0.0266
     67  CG1      -11.7350   77.6080  -14.6970 C.3   100  VAL100      0.0020
     68  CG2      -10.4810   76.6550  -12.7130 C.3   100  VAL100      0.0020
     69  N         -7.6770   76.0490  -14.8440 N.am  101  LYS101     -0.1966
     70  CA        -6.3300   75.6320  -14.5110 C.3   101  LYS101      0.1728
     71  C         -5.5880   76.7420  -13.7830 C.2   101  LYS101      0.2616
     72  O         -5.5640   77.8610  -14.2390 O.2   101  LYS101     -0.2715
     73  CB        -5.5980   75.2740  -15.8070 C.3   101  LYS101      0.0311
     74  CG        -4.1680   74.8050  -15.6300 C.3   101  LYS101      0.0038
     75  CD        -3.5760   74.2350  -16.9290 C.3   101  LYS101      0.0206
     76  CE        -4.1390   72.8350  -17.2090 C.3   101  LYS101      0.1093
     77  NZ        -3.4680   72.1400  -18.3510 N.3   101  LYS101     -0.1314
     78  N         -4.9790   76.4660  -12.6450 N.am  102  ASP102     -0.1971
     79  CA        -4.0320   77.4430  -12.0850 C.3   102  ASP102      0.1709
     80  C         -2.8960   77.7390  -13.1230 C.2   102  ASP102      0.2293
     81  O         -2.0520   76.8480  -13.3390 O.2   102  ASP102     -0.2864
     82  CB        -3.4090   76.8500  -10.8130 C.3   102  ASP102      0.1436
     83  CG        -2.6560   77.8880  -10.0000 C.2   102  ASP102      0.3671
     84  OD1       -1.4130   77.7950   -9.8440 O.co2 102  ASP102     -0.2456
     85  OD2       -3.3190   78.8020   -9.5120 O.co2 102  ASP102     -0.2456
     86  N         -2.3850   72.9310  -12.1280 N.3   107  THR107     -0.1218
     87  CA        -3.3440   71.9700  -11.6260 C.3   107  THR107      0.1862
     88  C         -4.7900   72.2920  -12.0850 C.2   107  THR107      0.2287
     89  O         -5.2780   73.4010  -11.9610 O.2   107  THR107     -0.2866
     90  CB        -3.1140   71.6720  -10.1060 C.3   107  THR107      0.1770
     91  OG1       -3.4550   72.8030   -9.3080 O.3   107  THR107     -0.2211
     92  CG2       -1.6160   71.3630   -9.8570 C.3   107  THR107      0.0375
     93  N         -8.9840   72.1280  -12.1900 N.3   109  ALA109     -0.1245
     94  CA       -10.0680   72.2120  -11.2350 C.3   109  ALA109      0.1562
     95  C        -11.3360   72.0460  -12.0200 C.2   109  ALA109      0.2260
     96  O        -11.4850   72.6510  -13.0890 O.2   109  ALA109     -0.2867
     97  CB       -10.0850   73.5960  -10.5480 C.3   109  ALA109      0.0290
@<TRIPOS>BOND
     1    77    76    1
     2    76    75    1
     3    75    74    1
     4    73    74    1
     5    73    70    1
     6    62    63    1
     7    63    64    1
     8    63    66    1
     9     1     2    1
    10    69    64   am
    11    69    70    1
    12    67    66    1
    13    64    65    2
    14    70    71    1
    15    72    71    2
    16    66    68    1
    17    17    15   ar
    18    29    28    1
    19    71    78   am
    20     2     5    1
    21     2     3    1
    22     5     6    1
    23    81    80    2
    24    15    14    1
    25    15    16   ar
    26    80    79    1
    27    96    95    2
    28    10     3   am
    29    10    11    1
    30    14    11    1
    31    26    28   ar
    32    26    24   ar
    33    28    27   ar
    34    78    79    1
    35     3     4    2
    36     6     7    1
    37    11    12    1
    38    93    94    1
    39    86    87    1
    40    12    13    2
    41    79    82    1
    42    88    89    2
    43    88    87    1
    44    95    94    1
    45    24    23   ar
    46    27    25   ar
    47    87    90    1
    48     7     8    2
    49     7     9   am
    50    94    97    1
    51    82    83    1
    52    23    25   ar
    53    23    22    1
    54    18    19    1
    55    90    92    1
    56    90    91    1
    57    83    84   ar
    58    83    85   ar
    59    22    19    1
    60    19    20    1
    61    21    20    2
    62    20    30   am
    63    52    51    1
    64    53    51    1
    65    55    56    1
    66    55    54    1
    67    55    58    1
    68    56    57    2
    69    60    58    1
    70    48    51    1
    71    48    49    1
    72    48    47    1
    73    30    31    1
    74    58    59    1
    75    49    50    2
    76    59    61    1
    77    35    36    1
    78    35    34    1
    79    38    36   am
    80    31    34    1
    81    31    32    1
    82    36    37    2
    83    46    44    1
    84    32    33    2
    85    32    39   am
    86    39    40    1
    87    44    45    1
    88    44    43    1
    89    40    43    1
    90    40    41    1
    91    41    42    2
