@<TRIPOS>MOLECULE
tmp/3q9xA01.pdb
 107 103 0 0 0
SMALL
GASTEIGER

@<TRIPOS>ATOM
      1  N         26.7010   40.0020   31.2170 N.3   248  LEU248     -0.1231
      2  CA        27.2590   39.3430   30.0000 C.3   248  LEU248      0.1693
      3  C         28.7340   39.5450   29.8050 C.2   248  LEU248      0.2592
      4  O         29.3610   38.8110   28.9790 O.2   248  LEU248     -0.2718
      5  CB        26.5370   39.7560   28.6960 C.3   248  LEU248      0.0284
      6  CG        25.0260   39.6510   28.4630 C.3   248  LEU248      0.0019
      7  CD1       24.6430   39.6140   26.9660 C.3   248  LEU248      0.0001
      8  CD2       24.3830   38.4950   29.1170 C.3   248  LEU248      0.0001
      9  N         29.3080   40.5340   30.4960 N.am  249  GLY249     -0.1957
     10  CA        30.7450   40.7260   30.3940 C.3   249  GLY249      0.1869
     11  C         31.0350   41.8300   29.4180 C.2   249  GLY249      0.2309
     12  O         30.1970   42.1560   28.5940 O.2   249  GLY249     -0.2863
     13  N         34.0300   41.7370   27.5050 N.3   251  GLU251     -0.1231
     14  CA        34.8590   41.2020   26.4250 C.3   251  GLU251      0.1699
     15  C         33.9600   40.9250   25.1930 C.2   251  GLU251      0.2592
     16  O         34.3180   41.2810   24.0760 O.2   251  GLU251     -0.2718
     17  CB        35.6490   39.9490   26.8710 C.3   251  GLU251      0.0402
     18  CG        36.8720   40.2120   27.7430 C.3   251  GLU251      0.1161
     19  CD        37.3280   38.9870   28.5670 C.2   251  GLU251      0.3649
     20  OE1       38.5220   38.6260   28.5340 O.co2 251  GLU251     -0.2457
     21  OE2       36.5110   38.3870   29.2850 O.co2 251  GLU251     -0.2457
     22  N         32.7750   40.3640   25.4110 N.am  252  ASP252     -0.1974
     23  CA        31.8840   40.0180   24.2940 C.3   252  ASP252      0.1709
     24  C         31.2780   41.2720   23.6770 C.2   252  ASP252      0.2293
     25  O         31.0190   41.3310   22.4780 O.2   252  ASP252     -0.2864
     26  CB        30.7540   39.0880   24.7470 C.3   252  ASP252      0.1436
     27  CG        31.2140   37.6610   24.9810 C.2   252  ASP252      0.3671
     28  OD1       32.3240   37.3450   24.5150 O.co2 252  ASP252     -0.2456
     29  OD2       30.4590   36.8490   25.6190 O.co2 252  ASP252     -0.2456
     30  N         34.3430   44.0460   32.9090 N.3   275  HIS275     -0.1226
     31  CA        33.4850   43.1670   33.6630 C.3   275  HIS275      0.1752
     32  C         33.5430   41.7720   33.0710 C.2   275  HIS275      0.2597
     33  O         33.4270   41.5760   31.8540 O.2   275  HIS275     -0.2718
     34  CB        32.0340   43.6740   33.6750 C.3   275  HIS275      0.0759
     35  CG        31.8810   45.0270   34.2910 C.ar  275  HIS275      0.0818
     36  ND1       31.8240   45.2250   35.6560 N.ar  275  HIS275     -0.2268
     37  CD2       31.8200   46.2600   33.7260 C.ar  275  HIS275      0.1154
     38  CE1       31.7170   46.5160   35.9050 C.ar  275  HIS275      0.1986
     39  NE2       31.7230   47.1660   34.7550 N.ar  275  HIS275     -0.2212
     40  N         33.7130   40.8080   33.9570 N.am  276  SER276     -0.1938
     41  CA        33.7140   39.4160   33.5930 C.3   276  SER276      0.2055
     42  C         32.2490   39.0070   33.3170 C.2   276  SER276      0.2643
     43  O         31.3050   39.6700   33.7400 O.2   276  SER276     -0.2714
     44  CB        34.3130   38.5670   34.7290 C.3   276  SER276      0.2130
     45  OG        33.4470   38.6130   35.8200 O.3   276  SER276     -0.2179
     46  N         32.0950   37.9460   32.5510 N.am  277  ARG277     -0.1963
     47  CA        30.8060   37.3850   32.2490 C.3   277  ARG277      0.1729
     48  C         30.4990   36.4660   33.4240 C.2   277  ARG277      0.2616
     49  O         31.2710   35.5670   33.7490 O.2   277  ARG277     -0.2715
     50  CB        30.9030   36.6450   30.9240 C.3   277  ARG277      0.0348
     51  CG        29.6090   35.9960   30.4300 C.3   277  ARG277      0.0492
     52  CD        29.9970   35.1790   29.1770 C.3   277  ARG277      0.2205
     53  NE        29.3450   33.9090   29.3300 N.pl3 277  ARG277     -0.0865
     54  CZ        29.8760   32.7160   29.2720 C.cat 277  ARG277      0.5346
     55  NH1       31.1220   32.4750   28.9240 N.pl3 277  ARG277      0.1354
     56  NH2       29.0570   31.7460   29.5150 N.pl3 277  ARG277      0.1354
     57  N         29.3740   36.7240   34.0630 N.am  278  LYS278     -0.1963
     58  CA        28.8840   35.9960   35.2410 C.3   278  LYS278      0.1728
     59  C         28.1880   34.6460   34.9410 C.2   278  LYS278      0.2616
     60  O         27.5290   34.5160   33.9320 O.2   278  LYS278     -0.2715
     61  CB        27.9130   36.9160   36.0070 C.3   278  LYS278      0.0311
     62  CG        28.5080   38.3010   36.4360 C.3   278  LYS278      0.0038
     63  CD        29.9600   38.2130   36.9950 C.3   278  LYS278      0.0206
     64  CE        30.5090   39.5790   37.4540 C.3   278  LYS278      0.1093
     65  NZ        30.4500   40.6640   36.4450 N.3   278  LYS278     -0.1314
     66  N         28.3350   33.6470   35.8100 N.am  279  ARG279     -0.1977
     67  CA        27.5420   32.4060   35.7290 C.3   279  ARG279      0.1597
     68  C         26.1570   32.6770   36.2590 C.2   279  ARG279      0.2287
     69  O         26.0120   33.3700   37.2850 O.2   279  ARG279     -0.2864
     70  CB        28.2250   31.2980   36.5450 C.3   279  ARG279      0.0334
     71  CG        29.2620   30.6140   35.7060 C.3   279  ARG279      0.0492
     72  CD        30.1110   29.4330   36.3300 C.3   279  ARG279      0.2205
     73  NE        31.3920   30.0620   36.4460 N.pl3 279  ARG279     -0.0865
     74  CZ        32.5670   29.8250   35.8950 C.cat 279  ARG279      0.5346
     75  NH1       33.4680   30.7410   36.1380 N.pl3 279  ARG279      0.1354
     76  NH2       32.9160   28.7620   35.2280 N.pl3 279  ARG279      0.1354
     77  N         24.2570   31.0150   37.9190 N.3   281  GLU281     -0.1231
     78  CA        24.0160   30.5180   39.2770 C.3   281  GLU281      0.1699
     79  C         24.0160   31.6760   40.2870 C.2   281  GLU281      0.2592
     80  O         23.3920   31.5860   41.3200 O.2   281  GLU281     -0.2718
     81  CB        25.0890   29.4790   39.6650 C.3   281  GLU281      0.0402
     82  CG        26.4550   30.1560   40.0140 C.3   281  GLU281      0.1161
     83  CD        27.6970   29.2650   39.9280 C.2   281  GLU281      0.3649
     84  OE1       27.6190   28.1260   39.4600 O.co2 281  GLU281     -0.2457
     85  OE2       28.7750   29.7370   40.3530 O.co2 281  GLU281     -0.2457
     86  N         24.7000   32.7740   39.9950 N.am  282  ARG282     -0.1980
     87  CA        24.7120   33.8600   40.9910 C.3   282  ARG282      0.1597
     88  C         23.3600   34.5620   41.2140 C.2   282  ARG282      0.2287
     89  O         23.2490   35.3190   42.1320 O.2   282  ARG282     -0.2864
     90  CB        25.7720   34.9030   40.6660 C.3   282  ARG282      0.0334
     91  CG        25.2260   36.0310   39.7770 C.3   282  ARG282      0.0492
     92  CD        26.2860   37.0420   39.3360 C.3   282  ARG282      0.2205
     93  NE        26.5930   38.1900   40.2070 N.pl3 282  ARG282     -0.0865
     94  CZ        27.8240   38.4460   40.6520 C.cat 282  ARG282      0.5346
     95  NH1       28.8310   37.5980   40.3790 N.pl3 282  ARG282      0.1354
     96  NH2       28.0460   39.5180   41.3930 N.pl3 282  ARG282      0.1354
     97  N         22.4470   37.3510   23.8390 N.3   305  ARG305     -0.1245
     98  CA        23.7460   37.5530   23.1990 C.3   305  ARG305      0.1563
     99  C         23.7790   38.9360   22.6300 C.2   305  ARG305      0.2260
    100  O         22.8150   39.3850   21.9650 O.2   305  ARG305     -0.2867
    101  CB        23.9950   36.5360   22.0780 C.3   305  ARG305      0.0307
    102  CG        23.8280   35.1190   22.5020 C.3   305  ARG305      0.0489
    103  CD        24.9210   34.6520   23.4710 C.3   305  ARG305      0.2205
    104  NE        24.7030   33.2380   23.7220 N.pl3 305  ARG305     -0.0865
    105  CZ        25.2480   32.2260   23.0530 C.cat 305  ARG305      0.5346
    106  NH1       26.1950   32.4140   22.1270 N.pl3 305  ARG305      0.1354
    107  NH2       24.8750   31.0010   23.3850 N.pl3 305  ARG305      0.1354
@<TRIPOS>BOND
     1   100    99    2
     2   101   102    1
     3   101    98    1
     4   106   105    1
     5    25    24    2
     6   102   103    1
     7    99    98    1
     8   105   107    1
     9   105   104    2
    10    98    97    1
    11   103   104    1
    12    24    23    1
    13    16    15    2
    14    23    26    1
    15    23    22    1
    16    28    27   ar
    17    26    27    1
    18    27    29   ar
    19    15    22   am
    20    15    14    1
    21    14    17    1
    22    14    13    1
    23    17    18    1
    24     7     6    1
    25    18    19    1
    26     6     5    1
    27     6     8    1
    28    20    19   ar
    29    19    21   ar
    30    12    11    2
    31     5     2    1
    32    55    54    1
    33     4     3    2
    34    52    53    1
    35    52    51    1
    36    54    53    2
    37    54    56    1
    38    11    10    1
    39     3     2    1
    40     3     9   am
    41     2     1    1
    42    10     9    1
    43    51    50    1
    44    50    47    1
    45    33    32    2
    46    47    46    1
    47    47    48    1
    48    46    42   am
    49    30    31    1
    50    32    31    1
    51    32    40   am
    52    42    41    1
    53    42    43    2
    54    48    49    2
    55    48    57   am
    56    41    40    1
    57    41    44    1
    58    31    34    1
    59    34    35    1
    60    37    35   ar
    61    37    39   ar
    62    60    59    2
    63    57    58    1
    64    35    36   ar
    65    44    45    1
    66    39    38   ar
    67    59    58    1
    68    59    66   am
    69    76    74    1
    70    58    61    1
    71    36    38   ar
    72    71    72    1
    73    71    70    1
    74    67    66    1
    75    67    68    1
    76    67    70    1
    77    74    75    1
    78    74    73    2
    79    61    62    1
    80    68    69    2
    81    72    73    1
    82    62    63    1
    83    65    64    1
    84    63    64    1
    85    77    78    1
    86    78    81    1
    87    78    79    1
    88    92    91    1
    89    92    93    1
    90    84    83   ar
    91    81    82    1
    92    91    90    1
    93    83    82    1
    94    83    85   ar
    95    86    79   am
    96    86    87    1
    97    93    94    2
    98    79    80    2
    99    95    94    1
   100    94    96    1
   101    90    87    1
   102    87    88    1
   103    88    89    2
