@<TRIPOS>MOLECULE
tmp/3q9zB00.pdb
 166 156 0 0 0
SMALL
GASTEIGER

@<TRIPOS>ATOM
      1  N        -14.7930   72.5070    1.6740 N.3    44  LEU44      -0.1231
      2  CA       -16.0160   71.7240    1.9270 C.3    44  LEU44       0.1693
      3  C        -15.7980   70.2470    2.1630 C.2    44  LEU44       0.2593
      4  O        -16.7310   69.5670    2.6420 O.2    44  LEU44      -0.2718
      5  CB       -17.0030   71.8230    0.7680 C.3    44  LEU44       0.0284
      6  CG       -17.6740   73.1750    0.4500 C.3    44  LEU44       0.0019
      7  CD1      -18.4890   73.1240   -0.8600 C.3    44  LEU44       0.0001
      8  CD2      -18.5270   73.6880    1.6220 C.3    44  LEU44       0.0001
      9  N        -14.6560   69.7130    1.7610 N.am   45  GLY45      -0.1942
     10  CA       -14.4860   68.2630    1.8180 C.3    45  GLY45       0.2014
     11  C        -13.6430   67.6580    0.7100 C.2    45  GLY45       0.2639
     12  O        -12.7790   68.3570    0.1450 O.2    45  GLY45      -0.2714
     13  N        -13.9230   66.3780    0.3960 N.am   46  ARG46      -0.1963
     14  CA       -13.1350   65.5880   -0.5920 C.3    46  ARG46       0.1729
     15  C        -13.9520   64.6740   -1.4950 C.2    46  ARG46       0.2616
     16  O        -14.9260   64.0780   -1.0400 O.2    46  ARG46      -0.2715
     17  CB       -12.1150   64.7060    0.1370 C.3    46  ARG46       0.0348
     18  CG       -11.1090   65.4760    0.8550 C.3    46  ARG46       0.0492
     19  CD        -9.9040   64.6200    0.9890 C.3    46  ARG46       0.2205
     20  NE        -8.7690   65.4950    1.1370 N.pl3  46  ARG46      -0.0865
     21  CZ        -7.9740   65.6550    2.1920 C.cat  46  ARG46       0.5346
     22  NH1       -7.0260   66.5650    2.0610 N.pl3  46  ARG46       0.1354
     23  NH2       -8.0590   64.9350    3.3170 N.pl3  46  ARG46       0.1354
     24  N        -13.5120   64.5300   -2.7520 N.am   47  GLY47      -0.1955
     25  CA       -13.9520   63.4340   -3.6630 C.3    47  GLY47       0.1869
     26  C        -12.9940   62.2620   -3.4810 C.2    47  GLY47       0.2309
     27  O        -12.2550   62.2310   -2.4800 O.2    47  GLY47      -0.2863
     28  N        -12.3610   69.8210   -2.3190 N.3    52  VAL52      -0.1245
     29  CA       -13.5270   70.4900   -2.7950 C.3    52  VAL52       0.1561
     30  C        -13.7660   71.7850   -1.9770 C.2    52  VAL52       0.2260
     31  O        -13.6950   71.8100   -0.7290 O.2    52  VAL52      -0.2867
     32  CB       -14.7530   69.5350   -2.8200 C.3    52  VAL52       0.0252
     33  CG1      -16.0630   70.2640   -3.1890 C.3    52  VAL52       0.0019
     34  CG2      -14.5130   68.3790   -3.8160 C.3    52  VAL52       0.0019
     35  N        -19.0770   75.4440   -6.8220 N.3    65  VAL65      -0.1245
     36  CA       -18.2060   74.4970   -6.1490 C.3    65  VAL65       0.1561
     37  C        -17.0150   74.2650   -7.0490 C.2    65  VAL65       0.2260
     38  O        -17.1970   74.0560   -8.2610 O.2    65  VAL65      -0.2867
     39  CB       -19.0160   73.2190   -5.9090 C.3    65  VAL65       0.0252
     40  CG1      -18.1810   72.0580   -5.4720 C.3    65  VAL65       0.0019
     41  CG2      -20.1250   73.5490   -4.8450 C.3    65  VAL65       0.0019
     42  N        -13.6240   71.8260   -7.5370 N.3    67  LYS67      -0.1245
     43  CA       -12.9480   70.5940   -7.2430 C.3    67  LYS67       0.1561
     44  C        -11.5520   70.6020   -7.8450 C.2    67  LYS67       0.2260
     45  O        -11.3510   70.5050   -9.0750 O.2    67  LYS67      -0.2867
     46  CB       -13.8040   69.4820   -7.8390 C.3    67  LYS67       0.0271
     47  CG       -13.3560   68.0850   -7.7430 C.3    67  LYS67       0.0035
     48  CD       -14.4400   67.1760   -8.5250 C.3    67  LYS67       0.0206
     49  CE       -14.1010   65.6910   -8.3880 C.3    67  LYS67       0.1093
     50  NZ       -15.0240   64.7640   -9.0240 N.3    67  LYS67      -0.1314
     51  N        -13.2840   62.1640  -17.3280 N.3    80  GLU80      -0.1245
     52  CA       -14.3020   62.6590  -16.4240 C.3    80  GLU80       0.1567
     53  C        -14.9670   63.8520  -17.0480 C.2    80  GLU80       0.2260
     54  O        -16.1690   63.9910  -16.8980 O.2    80  GLU80      -0.2867
     55  CB       -13.7170   63.0120  -15.0170 C.3    80  GLU80       0.0388
     56  CG       -14.6910   63.7770  -14.0820 C.3    80  GLU80       0.1160
     57  CD       -14.2070   63.9710  -12.6150 C.2    80  GLU80       0.3649
     58  OE1      -13.0310   63.6300  -12.2640 O.co2  80  GLU80      -0.2457
     59  OE2      -15.0470   64.4550  -11.8090 O.co2  80  GLU80      -0.2457
     60  N        -18.9480   64.1240  -18.0520 N.3    84  LEU84      -0.1245
     61  CA       -19.7480   65.2670  -17.5170 C.3    84  LEU84       0.1561
     62  C        -20.4030   66.1520  -18.6160 C.2    84  LEU84       0.2260
     63  O        -21.5700   66.5880  -18.4570 O.2    84  LEU84      -0.2867
     64  CB       -18.9060   66.1970  -16.6090 C.3    84  LEU84       0.0270
     65  CG       -18.5480   65.6650  -15.2060 C.3    84  LEU84       0.0019
     66  CD1      -17.3500   66.3930  -14.6140 C.3    84  LEU84       0.0001
     67  CD2      -19.7610   65.6490  -14.2710 C.3    84  LEU84       0.0001
     68  N        -25.1120   66.1480  -11.6850 N.3    94  ILE94      -0.1245
     69  CA       -24.4340   67.3980  -11.3410 C.3    94  ILE94       0.1561
     70  C        -24.0080   68.2010  -12.6240 C.2    94  ILE94       0.2260
     71  O        -23.5240   67.6260  -13.6240 O.2    94  ILE94      -0.2867
     72  CB       -23.1760   67.0660  -10.4040 C.3    94  ILE94       0.0252
     73  CG1      -22.6000   68.3010   -9.7150 C.3    94  ILE94       0.0019
     74  CG2      -22.0570   66.3400  -11.1960 C.3    94  ILE94       0.0019
     75  CD1      -23.4480   68.7820   -8.4980 C.3    94  ILE94       0.0001
     76  N        -18.4380   73.3290  -10.6390 N.3   112  PHE112     -0.1227
     77  CA       -19.8130   72.8910  -10.6740 C.3   112  PHE112      0.1736
     78  C        -20.8110   73.9820  -10.2430 C.2   112  PHE112      0.2595
     79  O        -20.4820   74.8500   -9.4590 O.2   112  PHE112     -0.2718
     80  CB       -20.0140   71.6060   -9.9040 C.3   112  PHE112      0.0547
     81  CG       -19.1070   70.4750  -10.3590 C.ar  112  PHE112     -0.0202
     82  CD1      -19.5390   69.5850  -11.3610 C.ar  112  PHE112     -0.0042
     83  CD2      -17.8500   70.3300   -9.8320 C.ar  112  PHE112     -0.0042
     84  CE1      -18.7690   68.5480  -11.7710 C.ar  112  PHE112     -0.0003
     85  CE2      -16.9770   69.2850  -10.2890 C.ar  112  PHE112     -0.0003
     86  CZ       -17.4350   68.3860  -11.2210 C.ar  112  PHE112     -0.0000
     87  N        -22.0180   73.9340  -10.8030 N.am  113  GLU113     -0.1979
     88  CA       -23.1000   74.7590  -10.3510 C.3   113  GLU113      0.1602
     89  C        -23.4180   74.3940   -8.8880 C.2   113  GLU113      0.2287
     90  O        -23.3300   73.2300   -8.5000 O.2   113  GLU113     -0.2864
     91  CB       -24.3170   74.6400  -11.2840 C.3   113  GLU113      0.0415
     92  CG       -24.3560   75.7680  -12.4410 C.3   113  GLU113      0.1163
     93  CD       -25.5440   75.6250  -13.4450 C.2   113  GLU113      0.3649
     94  OE1      -25.3170   75.9500  -14.6400 O.co2 113  GLU113     -0.2457
     95  OE2      -26.6880   75.1840  -13.0700 O.co2 113  GLU113     -0.2457
     96  N        -24.7720   73.3760   -5.4000 N.3   115  VAL115     -0.1245
     97  CA       -25.8480   72.7150   -4.6410 C.3   115  VAL115      0.1561
     98  C        -25.5390   72.7140   -3.1550 C.2   115  VAL115      0.2260
     99  O        -24.3840   72.9100   -2.7640 O.2   115  VAL115     -0.2867
    100  CB       -26.1270   71.3070   -5.1330 C.3   115  VAL115      0.0252
    101  CG1      -27.1980   71.3420   -6.2850 C.3   115  VAL115      0.0019
    102  CG2      -24.8350   70.6060   -5.5180 C.3   115  VAL115      0.0019
    103  N        -24.4850   72.2020    0.6570 N.3   117  ASN117     -0.1240
    104  CA       -23.3980   71.3290    1.2390 C.3   117  ASN117      0.1653
    105  C        -23.9020   70.1900    2.1950 C.2   117  ASN117      0.2266
    106  O        -23.6730   70.2100    3.4250 O.2   117  ASN117     -0.2867
    107  CB       -22.2460   72.1670    1.8830 C.3   117  ASN117      0.1155
    108  CG       -21.0660   71.2800    2.4570 C.2   117  ASN117      0.2627
    109  OD1      -20.5650   71.5180    3.5720 O.2   117  ASN117     -0.2716
    110  ND2      -20.6370   70.2740    1.6860 N.am  117  ASN117     -0.0877
    111  N        -24.3690   65.9230    1.8280 N.3   119  ASP119     -0.1239
    112  CA       -24.3200   64.6350    1.1340 C.3   119  ASP119      0.1674
    113  C        -25.4180   63.6600    1.6070 C.2   119  ASP119      0.2266
    114  O        -26.2130   63.9590    2.5340 O.2   119  ASP119     -0.2867
    115  CB       -22.8740   64.0350    1.1370 C.3   119  ASP119      0.1410
    116  CG       -22.4710   63.3360    2.4730 C.2   119  ASP119      0.3668
    117  OD1      -23.3270   63.0850    3.3430 O.co2 119  ASP119     -0.2456
    118  OD2      -21.2680   63.0070    2.6500 O.co2 119  ASP119     -0.2456
    119  N        -21.8800   58.8360   -0.1220 N.3   159  HIS159     -0.1241
    120  CA       -21.1230   60.0680   -0.2330 C.3   159  HIS159      0.1621
    121  C        -21.2640   60.7160   -1.6430 C.2   159  HIS159      0.2264
    122  O        -21.1130   61.9470   -1.7720 O.2   159  HIS159     -0.2867
    123  CB       -19.6460   59.8720    0.0980 C.3   159  HIS159      0.0745
    124  CG       -18.8220   61.1120   -0.1390 C.ar  159  HIS159      0.0817
    125  ND1      -17.9920   61.6610    0.8270 N.ar  159  HIS159     -0.2268
    126  CD2      -18.7030   61.9150   -1.2370 C.ar  159  HIS159      0.1154
    127  CE1      -17.4120   62.7510    0.3380 C.ar  159  HIS159      0.1986
    128  NE2      -17.8320   62.9300   -0.9090 N.ar  159  HIS159     -0.2212
    129  N        -25.7270   63.8260   -3.4600 N.3   162  MET162     -0.1245
    130  CA       -25.9320   65.0550   -2.6860 C.3   162  MET162      0.1570
    131  C        -27.4320   65.3130   -2.6250 C.2   162  MET162      0.2261
    132  O        -28.0940   65.3270   -3.6760 O.2   162  MET162     -0.2867
    133  CB       -25.2920   66.2630   -3.3630 C.3   162  MET162      0.0387
    134  CG       -23.7780   66.2210   -3.5930 C.3   162  MET162      0.0595
    135  SD       -22.6720   66.4320   -2.1680 S.3   162  MET162     -0.1393
    136  CE       -23.0740   68.0080   -1.4380 C.3   162  MET162      0.0692
    137  N        -22.9640   62.8120   -7.9830 N.3   173  ILE173     -0.1231
    138  CA       -21.6550   63.4630   -8.2090 C.3   173  ILE173      0.1692
    139  C        -20.4790   62.4820   -8.2970 C.2   173  ILE173      0.2592
    140  O        -20.6400   61.2440   -8.2120 O.2   173  ILE173     -0.2718
    141  CB       -21.2920   64.4140   -7.0730 C.3   173  ILE173      0.0266
    142  CG1      -21.2710   63.6510   -5.7300 C.3   173  ILE173      0.0019
    143  CG2      -22.2520   65.5850   -7.0360 C.3   173  ILE173      0.0020
    144  CD1      -20.6000   64.4490   -4.5530 C.3   173  ILE173      0.0001
    145  N        -19.3020   63.0660   -8.5160 N.am  174  ASP174     -0.1960
    146  CA       -18.0600   62.3390   -8.5960 C.3   174  ASP174      0.1840
    147  C        -17.9220   61.2480   -9.6500 C.2   174  ASP174      0.2622
    148  O        -17.8290   60.0220   -9.3320 O.2   174  ASP174     -0.2715
    149  CB       -17.6000   61.8550   -7.2500 C.3   174  ASP174      0.1450
    150  CG       -16.1180   61.7630   -7.2310 C.2   174  ASP174      0.3671
    151  OD1      -15.4940   61.7580   -6.1580 O.co2 174  ASP174     -0.2456
    152  OD2      -15.5680   61.7640   -8.3810 O.co2 174  ASP174     -0.2456
    153  N        -17.8830   61.6920  -10.9110 N.am  175  TRP175     -0.1974
    154  CA       -17.7790   60.8550  -12.1030 C.3   175  TRP175      0.1640
    155  C        -16.3420   60.4440  -12.4940 C.2   175  TRP175      0.2290
    156  O        -16.1170   59.9120  -13.6180 O.2   175  TRP175     -0.2864
    157  CB       -18.4750   61.6040  -13.2480 C.3   175  TRP175      0.0576
    158  CG       -19.9160   61.7750  -12.9210 C.ar  175  TRP175      0.0006
    159  CD1      -20.4990   62.7680  -12.1310 C.ar  175  TRP175      0.0946
    160  CD2      -20.9570   60.9120  -13.3160 C.ar  175  TRP175      0.0152
    161  NE1      -21.8750   62.5810  -12.0470 N.ar  175  TRP175     -0.2442
    162  CE2      -22.1690   61.4190  -12.7340 C.ar  175  TRP175      0.0810
    163  CE3      -20.9880   59.6880  -14.0450 C.ar  175  TRP175      0.0012
    164  CZ2      -23.3870   60.7710  -12.8800 C.ar  175  TRP175      0.0191
    165  CZ3      -22.2110   59.0630  -14.2100 C.ar  175  TRP175      0.0001
    166  CH2      -23.4040   59.6130  -13.6250 C.ar  175  TRP175      0.0015
@<TRIPOS>BOND
     1    62    63    2
     2    62    61    1
     3    60    61    1
     4    61    64    1
     5    51    52    1
     6    53    54    2
     7    53    52    1
     8    64    65    1
     9    52    55    1
    10    65    66    1
    11    65    67    1
    12    55    56    1
    13    94    93   ar
    14   165   163   ar
    15   165   166   ar
    16    56    57    1
    17   163   160   ar
    18   166   164   ar
    19    71    70    2
    20   156   155    2
    21    93    95   ar
    22    93    92    1
    23   160   158   ar
    24   160   162   ar
    25   157   158    1
    26   157   154    1
    27   158   159   ar
    28   164   162   ar
    29   162   161   ar
    30    70    69    1
    31    57    58   ar
    32    57    59   ar
    33   155   154    1
    34    92    91    1
    35   159   161   ar
    36   154   153    1
    37    84    82   ar
    38    84    86   ar
    39    68    69    1
    40    82    81   ar
    41    69    72    1
    42    91    88    1
    43    86    85   ar
    44    74    72    1
    45   153   147   am
    46    87    88    1
    47    87    78   am
    48    77    76    1
    49    77    78    1
    50    77    80    1
    51    72    73    1
    52    81    80    1
    53    81    83   ar
    54    88    89    1
    55    85    83   ar
    56    78    79    2
    57    73    75    1
    58   147   148    2
    59   147   146    1
    60    45    44    2
    61    50    49    1
    62    89    90    2
    63   146   145    1
    64   146   149    1
    65    48    49    1
    66    48    47    1
    67   145   139   am
    68   152   150   ar
    69   139   140    2
    70   139   138    1
    71    38    37    2
    72   138   137    1
    73   138   141    1
    74    44    43    1
    75    46    47    1
    76    46    43    1
    77    42    43    1
    78   149   150    1
    79   150   151   ar
    80   141   143    1
    81   141   142    1
    82    37    36    1
    83    35    36    1
    84   101   100    1
    85    36    39    1
    86    39    40    1
    87    39    41    1
    88   142   144    1
    89   102   100    1
    90    96    97    1
    91   100    97    1
    92    97    98    1
    93    34    32    1
    94   132   131    2
    95    25    26    1
    96    25    24    1
    97   134   133    1
    98   134   135    1
    99    26    27    2
   100   129   130    1
   101   133   130    1
   102    33    32    1
   103    98    99    2
   104    32    29    1
   105    29    28    1
   106    29    30    1
   107    24    15   am
   108   130   131    1
   109   135   136    1
   110    30    31    2
   111   122   121    2
   112   121   120    1
   113    15    16    2
   114    15    14    1
   115   126   128   ar
   116   126   124   ar
   117   128   127   ar
   118     7     6    1
   119    14    17    1
   120    14    13    1
   121   120   119    1
   122   120   123    1
   123   124   123    1
   124   124   125   ar
   125    17    18    1
   126    12    11    2
   127   127   125   ar
   128    13    11   am
   129     6     5    1
   130     6     8    1
   131   103   104    1
   132    11    10    1
   133     5     2    1
   134    18    19    1
   135    19    20    1
   136   112   115    1
   137   112   113    1
   138   112   111    1
   139    20    21    2
   140   115   116    1
   141   104   107    1
   142   104   105    1
   143   113   114    2
   144     1     2    1
   145   110   108   am
   146     9    10    1
   147     9     3   am
   148   107   108    1
   149     2     3    1
   150    22    21    1
   151     3     4    2
   152    21    23    1
   153   105   106    2
   154   108   109    2
   155   116   118   ar
   156   116   117   ar
