@<TRIPOS>MOLECULE
tmp/3qa2B00.pdb
 117 109 0 0 0
SMALL
GASTEIGER

@<TRIPOS>ATOM
      1  N        -21.7760   14.2380   60.1380 N.3   196  LYS196     -0.1245
      2  CA       -23.1060   13.6880   59.8920 C.3   196  LYS196      0.1561
      3  C        -23.0210   12.3110   59.2500 C.2   196  LYS196      0.2260
      4  O        -23.8260   11.4360   59.5390 O.2   196  LYS196     -0.2867
      5  CB       -23.9210   14.6220   58.9980 C.3   196  LYS196      0.0271
      6  CG       -25.2080   14.0020   58.4460 C.3   196  LYS196      0.0035
      7  CD       -26.0170   15.0180   57.6410 C.3   196  LYS196      0.0206
      8  CE       -27.2980   14.4100   57.0590 C.3   196  LYS196      0.1093
      9  NZ       -27.9630   15.3420   56.0780 N.3   196  LYS196     -0.1314
     10  N        -22.2190   18.8190   63.4060 N.3   227  ALA227     -0.1245
     11  CA       -22.8970   19.6860   62.4500 C.3   227  ALA227      0.1562
     12  C        -23.7900   18.8220   61.5580 C.2   227  ALA227      0.2260
     13  O        -23.4410   17.6940   61.2570 O.2   227  ALA227     -0.2867
     14  CB       -21.8680   20.3940   61.6140 C.3   227  ALA227      0.0290
     15  N        -25.6360   19.9220   58.3790 N.3   229  ALA229     -0.1231
     16  CA       -26.0530   20.6390   57.1840 C.3   229  ALA229      0.1694
     17  C        -27.1180   21.6870   57.4940 C.2   229  ALA229      0.2591
     18  O        -26.9380   22.5190   58.3870 O.2   229  ALA229     -0.2718
     19  CB       -26.5390   19.6630   56.1340 C.3   229  ALA229      0.0304
     20  N        -28.2270   21.6420   56.7640 N.am  230  GLU230     -0.1979
     21  CA       -29.2580   22.6730   56.8840 C.3   230  GLU230      0.1602
     22  C        -29.9540   22.6990   58.2580 C.2   230  GLU230      0.2287
     23  O        -30.6030   23.6770   58.6090 O.2   230  GLU230     -0.2864
     24  CB       -30.2750   22.5510   55.7420 C.3   230  GLU230      0.0415
     25  CG       -30.7900   21.1270   55.4970 C.3   230  GLU230      0.1163
     26  CD       -29.8350   20.2840   54.6520 C.2   230  GLU230      0.3649
     27  OE1      -29.4030   20.7690   53.5790 O.co2 230  GLU230     -0.2457
     28  OE2      -29.5190   19.1390   55.0600 O.co2 230  GLU230     -0.2457
     29  N        -28.3870   22.9580   61.0280 N.3   232  GLY232     -0.1225
     30  CA       -27.4830   23.6040   61.9700 C.3   232  GLY232      0.1811
     31  C        -26.5410   22.6260   62.6550 C.2   232  GLY232      0.2280
     32  O        -26.1370   21.6220   62.0680 O.2   232  GLY232     -0.2866
     33  N        -28.8810   26.8430   61.2390 N.3   247  ALA247     -0.1231
     34  CA       -28.0840   27.1650   60.0850 C.3   247  ALA247      0.1694
     35  C        -28.3870   28.6030   59.6800 C.2   247  ALA247      0.2592
     36  O        -29.4110   29.1690   60.0800 O.2   247  ALA247     -0.2718
     37  CB       -28.4410   26.2180   58.9520 C.3   247  ALA247      0.0304
     38  N        -27.4830   29.2000   58.9090 N.am  248  PHE248     -0.1963
     39  CA       -27.7420   30.4980   58.3000 C.3   248  PHE248      0.1756
     40  C        -27.6820   30.3480   56.7930 C.2   248  PHE248      0.2461
     41  O        -26.6490   30.5900   56.1730 O.2   248  PHE248     -0.2730
     42  CB       -26.7170   31.5240   58.7470 C.3   248  PHE248      0.0574
     43  CG       -26.6760   31.7220   60.2120 C.ar  248  PHE248     -0.0200
     44  CD1      -26.9740   32.9500   60.7630 C.ar  248  PHE248     -0.0042
     45  CD2      -26.3550   30.6730   61.0510 C.ar  248  PHE248     -0.0042
     46  CE1      -26.9390   33.1330   62.1280 C.ar  248  PHE248     -0.0003
     47  CE2      -26.3220   30.8530   62.4140 C.ar  248  PHE248     -0.0003
     48  CZ       -26.6110   32.0860   62.9520 C.ar  248  PHE248     -0.0000
     49  N        -28.7980   29.9430   56.1930 N.am  249  PRO249     -0.2716
     50  CA       -28.7910   29.7080   54.7460 C.3   249  PRO249      0.1521
     51  C        -28.4040   30.9850   53.9880 C.2   249  PRO249      0.2440
     52  O        -28.8090   32.0830   54.3800 O.2   249  PRO249     -0.2731
     53  CB       -30.2440   29.3180   54.4490 C.3   249  PRO249      0.0310
     54  CG       -30.8850   29.0330   55.8110 C.3   249  PRO249      0.0237
     55  CD       -30.1530   29.9040   56.7730 C.3   249  PRO249      0.0939
     56  N        -27.6040   30.8450   52.9200 N.am  250  PRO250     -0.2727
     57  CA       -27.2400   31.9880   52.0800 C.3   250  PRO250      0.1402
     58  C        -28.4220   32.3890   51.1790 C.2   250  PRO250      0.2269
     59  O        -29.3940   31.6290   51.0780 O.2   250  PRO250     -0.2865
     60  CB       -26.1050   31.4240   51.2340 C.3   250  PRO250      0.0296
     61  CG       -26.4440   29.9920   51.0900 C.3   250  PRO250      0.0237
     62  CD       -27.1090   29.5750   52.3700 C.3   250  PRO250      0.0939
     63  N        -27.6540   28.8130   47.4580 N.3   253  VAL253     -0.1245
     64  CA       -26.5740   27.8440   47.5970 C.3   253  VAL253      0.1561
     65  C        -25.7950   27.6310   46.2930 C.2   253  VAL253      0.2260
     66  O        -26.3910   27.3170   45.2660 O.2   253  VAL253     -0.2867
     67  CB       -27.1340   26.5000   48.0720 C.3   253  VAL253      0.0252
     68  CG1      -26.0270   25.4690   48.1490 C.3   253  VAL253      0.0019
     69  CG2      -27.8180   26.6730   49.4210 C.3   253  VAL253      0.0019
     70  N        -20.9440   23.9110   48.2160 N.3   256  THR256     -0.1218
     71  CA       -20.8830   23.4020   49.5850 C.3   256  THR256      0.1862
     72  C        -19.6220   22.5780   49.8570 C.2   256  THR256      0.2287
     73  O        -19.3900   22.1470   50.9900 O.2   256  THR256     -0.2866
     74  CB       -22.1140   22.5540   49.9410 C.3   256  THR256      0.1770
     75  OG1      -22.2320   21.4770   49.0000 O.3   256  THR256     -0.2211
     76  CG2      -23.3860   23.4060   49.9300 C.3   256  THR256      0.0375
     77  N        -17.5600   23.1080   53.1740 N.3   259  ALA259     -0.1231
     78  CA       -18.3810   23.7630   54.1890 C.3   259  ALA259      0.1694
     79  C        -18.1880   23.1340   55.5750 C.2   259  ALA259      0.2592
     80  O        -18.0910   23.8370   56.5800 O.2   259  ALA259     -0.2718
     81  CB       -19.8600   23.7540   53.7860 C.3   259  ALA259      0.0304
     82  N        -18.1380   21.8140   55.6380 N.am  260  GLY260     -0.1957
     83  CA       -17.8030   21.1550   56.8920 C.3   260  GLY260      0.1869
     84  C        -16.4840   21.6420   57.4940 C.2   260  GLY260      0.2309
     85  O        -16.3900   21.8410   58.7090 O.2   260  GLY260     -0.2863
     86  N        -16.8590   25.2460   58.8170 N.3   263  PHE263     -0.1241
     87  CA       -17.4190   25.0930   60.1520 C.3   263  PHE263      0.1605
     88  C        -16.3740   24.6930   61.2000 C.2   263  PHE263      0.2264
     89  O        -16.1610   25.4280   62.1790 O.2   263  PHE263     -0.2867
     90  CB       -18.5400   24.0560   60.1210 C.3   263  PHE263      0.0534
     91  CG       -19.1740   23.8290   61.4410 C.ar  263  PHE263     -0.0203
     92  CD1      -20.1340   24.7120   61.9220 C.ar  263  PHE263     -0.0042
     93  CD2      -18.8170   22.7380   62.2110 C.ar  263  PHE263     -0.0042
     94  CE1      -20.7330   24.5040   63.1460 C.ar  263  PHE263     -0.0003
     95  CE2      -19.4050   22.5250   63.4410 C.ar  263  PHE263     -0.0003
     96  CZ       -20.3640   23.4120   63.9090 C.ar  263  PHE263     -0.0000
     97  N        -21.6610   28.1480   62.3140 N.3   285  CYS285     -0.1235
     98  CA       -22.8200   28.0880   61.4280 C.3   285  CYS285      0.1677
     99  C        -22.9290   29.3250   60.5370 C.2   285  CYS285      0.2270
    100  O        -23.1780   29.2050   59.3420 O.2   285  CYS285     -0.2867
    101  CB       -24.1060   27.9000   62.2250 C.3   285  CYS285      0.0956
    102  SG       -24.3070   26.2500   62.8650 S.3   285  CYS285     -0.0801
    103  N        -19.9590   28.9540   57.7860 N.3   288  ALA288     -0.1231
    104  CA       -20.1950   27.8530   56.8670 C.3   288  ALA288      0.1694
    105  C        -21.4150   28.1420   55.9860 C.2   288  ALA288      0.2592
    106  O        -21.5090   27.6530   54.8690 O.2   288  ALA288     -0.2718
    107  CB       -20.3760   26.5410   57.6450 C.3   288  ALA288      0.0304
    108  N        -22.3410   28.9520   56.4890 N.am  289  GLY289     -0.1957
    109  CA       -23.5330   29.2930   55.7380 C.3   289  GLY289      0.1869
    110  C        -23.2380   30.3240   54.6640 C.2   289  GLY289      0.2309
    111  O        -23.6660   30.1920   53.5200 O.2   289  GLY289     -0.2863
    112  N        -21.4320   28.6750   51.8630 N.3   292  CYS292     -0.1235
    113  CA       -22.3190   27.9040   51.0090 C.3   292  CYS292      0.1677
    114  C        -22.8740   28.7310   49.8510 C.2   292  CYS292      0.2270
    115  O        -23.1900   28.1940   48.7950 O.2   292  CYS292     -0.2867
    116  CB       -23.4390   27.2940   51.8420 C.3   292  CYS292      0.0956
    117  SG       -22.9900   25.6920   52.5840 S.3   292  CYS292     -0.0801
@<TRIPOS>BOND
     1    66    65    2
     2    65    64    1
     3    63    64    1
     4    64    67    1
     5    67    68    1
     6    67    69    1
     7    70    71    1
     8   115   114    2
     9    75    74    1
    10    71    72    1
    11    71    74    1
    12   114   113    1
    13    72    73    2
    14    76    74    1
    15   113   116    1
    16   113   112    1
    17    59    58    2
    18    61    60    1
    19    61    62    1
    20    58    57    1
    21    60    57    1
    22   116   117    1
    23    57    56    1
    24    62    56    1
    25    56    51   am
    26    77    78    1
    27   111   110    2
    28    27    26   ar
    29    81    78    1
    30    51    52    2
    31    51    50    1
    32    78    79    1
    33    53    50    1
    34    53    54    1
    35    26    28   ar
    36    26    25    1
    37   110   109    1
    38    50    49    1
    39   106   105    2
    40    25    24    1
    41    79    82   am
    42    79    80    2
    43    82    83    1
    44   109   108    1
    45    24    21    1
    46    54    55    1
    47   105   108   am
    48   105   104    1
    49     9     8    1
    50    19    16    1
    51    41    40    2
    52    49    55    1
    53    49    40   am
    54    20    21    1
    55    20    17   am
    56    40    39    1
    57   104   107    1
    58   104   103    1
    59    21    22    1
    60    83    84    1
    61     8     7    1
    62    16    17    1
    63    16    15    1
    64    17    18    2
    65    84    85    2
    66     7     6    1
    67    22    23    2
    68    39    42    1
    69    39    38    1
    70     6     5    1
    71    42    43    1
    72    86    87    1
    73    38    35   am
    74    37    34    1
    75     5     2    1
    76     3     4    2
    77     3     2    1
    78   100    99    2
    79    35    36    2
    80    35    34    1
    81     2     1    1
    82    34    33    1
    83    90    87    1
    84    90    91    1
    85    87    88    1
    86    43    44   ar
    87    43    45   ar
    88    99    98    1
    89    44    46   ar
    90    29    30    1
    91    45    47   ar
    92    88    89    2
    93    13    12    2
    94    98   101    1
    95    98    97    1
    96    91    92   ar
    97    91    93   ar
    98    12    11    1
    99    14    11    1
   100    92    94   ar
   101    30    31    1
   102    32    31    2
   103    46    48   ar
   104    93    95   ar
   105   101   102    1
   106    47    48   ar
   107    11    10    1
   108    94    96   ar
   109    95    96   ar
