@<TRIPOS>MOLECULE
tmp/3qaeA00.pdb
 87 80 0 0 0
SMALL
GASTEIGER

@<TRIPOS>ATOM
      1  N         67.0080   44.4190   90.3600 N.3    79  GLU79      -0.1245
      2  CA        66.2050   44.5090   91.5780 C.3    79  GLU79       0.1567
      3  C         66.6620   43.5430   92.6640 C.2    79  GLU79       0.2260
      4  O         66.6800   42.3280   92.4430 O.2    79  GLU79      -0.2867
      5  CB        64.7150   44.3010   91.2730 C.3    79  GLU79       0.0388
      6  CG        63.8010   44.6290   92.4410 C.3    79  GLU79       0.1160
      7  CD        62.3200   44.4700   92.1280 C.2    79  GLU79       0.3649
      8  OE1       61.9410   44.4520   90.9280 O.co2  79  GLU79      -0.2457
      9  OE2       61.5350   44.3750   93.0960 O.co2  79  GLU79      -0.2457
     10  N         45.5800   45.5440   92.8570 N.3   255  ARG255     -0.1245
     11  CA        46.3870   44.4100   93.2930 C.3   255  ARG255      0.1563
     12  C         46.9270   43.6350   92.0940 C.2   255  ARG255      0.2260
     13  O         48.0800   43.2130   92.0940 O.2   255  ARG255     -0.2867
     14  CB        45.5920   43.4980   94.2430 C.3   255  ARG255      0.0307
     15  CG        46.2910   42.1910   94.6360 C.3   255  ARG255      0.0489
     16  CD        47.6300   42.4430   95.3210 C.3   255  ARG255      0.2205
     17  NE        48.5240   41.2900   95.2300 N.pl3 255  ARG255     -0.0865
     18  CZ        49.8520   41.3560   95.2920 C.cat 255  ARG255      0.5346
     19  NH1       50.4740   42.5240   95.4350 N.pl3 255  ARG255      0.1354
     20  NH2       50.5630   40.2400   95.1970 N.pl3 255  ARG255      0.1354
     21  N         50.1970   44.7900   90.4040 N.3   258  THR258     -0.1203
     22  CA        51.3550   44.4580   91.2550 C.3   258  THR258      0.1994
     23  C         51.6430   42.9660   91.2370 C.2   258  THR258      0.2617
     24  O         52.7910   42.5440   91.1330 O.2   258  THR258     -0.2717
     25  CB        51.1230   44.9030   92.7240 C.3   258  THR258      0.1784
     26  OG1       50.4160   46.1540   92.7550 O.3   258  THR258     -0.2211
     27  CG2       52.4420   45.0410   93.4880 C.3   258  THR258      0.0376
     28  N         50.5770   42.1830   91.3490 N.am  259  HIS259     -0.1975
     29  CA        50.6130   40.7310   91.2140 C.3   259  HIS259      0.1656
     30  C         51.3200   40.3530   89.9030 C.2   259  HIS259      0.2291
     31  O         52.3140   39.6240   89.9120 O.2   259  HIS259     -0.2864
     32  CB        49.1670   40.2160   91.2520 C.3   259  HIS259      0.0771
     33  CG        49.0240   38.7390   91.0720 C.ar  259  HIS259      0.0820
     34  ND1       48.8040   37.8790   92.1270 N.ar  259  HIS259     -0.2267
     35  CD2       49.0230   37.9730   89.9550 C.ar  259  HIS259      0.1154
     36  CE1       48.7000   36.6440   91.6700 C.ar  259  HIS259      0.1986
     37  NE2       48.8230   36.6740   90.3540 N.ar  259  HIS259     -0.2212
     38  N         53.0880   42.3280   87.8840 N.3   261  LYS261     -0.1231
     39  CA        54.4310   42.9160   87.9110 C.3   261  LYS261      0.1693
     40  C         55.4520   41.9050   88.4680 C.2   261  LYS261      0.2592
     41  O         56.4920   41.6440   87.8500 O.2   261  LYS261     -0.2718
     42  CB        54.4180   44.1910   88.7630 C.3   261  LYS261      0.0285
     43  CG        55.6690   45.0480   88.6950 C.3   261  LYS261      0.0035
     44  CD        56.8060   44.5550   89.5930 C.3   261  LYS261      0.0206
     45  CE        57.8480   45.6540   89.7390 C.3   261  LYS261      0.1093
     46  NZ        59.1190   45.2060   90.3630 N.3   261  LYS261     -0.1314
     47  N         55.1480   41.3550   89.6430 N.am  262  GLY262     -0.1957
     48  CA        56.0030   40.3570   90.2760 C.3   262  GLY262      0.1869
     49  C         56.2850   39.1480   89.3940 C.2   262  GLY262      0.2309
     50  O         57.4070   38.6620   89.3440 O.2   262  GLY262     -0.2863
     51  N         58.9480   40.2550   86.9950 N.3   265  ASN265     -0.1240
     52  CA        60.2800   40.3500   87.5850 C.3   265  ASN265      0.1653
     53  C         61.1060   39.1220   87.1740 C.2   265  ASN265      0.2266
     54  O         62.2890   39.2300   86.8550 O.2   265  ASN265     -0.2867
     55  CB        60.1950   40.4300   89.1200 C.3   265  ASN265      0.1155
     56  CG        59.8900   41.8310   89.6380 C.2   265  ASN265      0.2627
     57  OD1       59.9960   42.8210   88.9190 O.2   265  ASN265     -0.2716
     58  ND2       59.5290   41.9150   90.9130 N.am  265  ASN265     -0.0877
     59  N         55.9150   34.3750   91.2450 N.3   360  ASN360     -0.1240
     60  CA        54.6340   34.7010   91.8590 C.3   360  ASN360      0.1653
     61  C         54.4530   34.0420   93.2220 C.2   360  ASN360      0.2266
     62  O         54.0200   34.6950   94.1770 O.2   360  ASN360     -0.2867
     63  CB        53.4810   34.3140   90.9260 C.3   360  ASN360      0.1155
     64  CG        52.1380   34.8470   91.3950 C.2   360  ASN360      0.2627
     65  OD1       51.1370   34.1360   91.3470 O.2   360  ASN360     -0.2716
     66  ND2       52.1070   36.0980   91.8420 N.am  360  ASN360     -0.0877
     67  N         56.4640   35.6950   95.9110 N.3   363  ALA363     -0.1231
     68  CA        55.8920   37.0080   96.1730 C.3   363  ALA363      0.1694
     69  C         54.7090   36.9230   97.1200 C.2   363  ALA363      0.2591
     70  O         54.6390   37.6920   98.0820 O.2   363  ALA363     -0.2718
     71  CB        55.4860   37.7000   94.8800 C.3   363  ALA363      0.0304
     72  N         53.7960   35.9860   96.8470 N.am  364  LEU364     -0.1980
     73  CA        52.5650   35.8550   97.6270 C.3   364  LEU364      0.1596
     74  C         52.8300   35.3210   99.0280 C.2   364  LEU364      0.2287
     75  O         52.2740   35.8270  100.0070 O.2   364  LEU364     -0.2864
     76  CB        51.5490   34.9580   96.9140 C.3   364  LEU364      0.0297
     77  CG        51.0800   35.2860   95.4950 C.3   364  LEU364      0.0022
     78  CD1       49.8370   34.4670   95.1750 C.3   364  LEU364      0.0001
     79  CD2       50.8090   36.7750   95.3000 C.3   364  LEU364      0.0001
     80  N         54.3400   38.0560  101.1410 N.3   367  LEU367     -0.1245
     81  CA        53.3430   39.0800  101.4590 C.3   367  LEU367      0.1561
     82  C         52.3300   38.6510  102.5200 C.2   367  LEU367      0.2260
     83  O         51.8880   39.4810  103.3150 O.2   367  LEU367     -0.2867
     84  CB        52.6060   39.5440  100.2030 C.3   367  LEU367      0.0270
     85  CG        53.4050   40.3860   99.2070 C.3   367  LEU367      0.0019
     86  CD1       52.6740   40.4470   97.8680 C.3   367  LEU367      0.0001
     87  CD2       53.7100   41.7830   99.7530 C.3   367  LEU367      0.0001
@<TRIPOS>BOND
     1    54    53    2
     2    51    52    1
     3    53    52    1
     4    52    55    1
     5    41    40    2
     6    38    39    1
     7    39    40    1
     8    39    42    1
     9    40    47   am
    10    43    42    1
    11    43    44    1
    12    57    56    2
    13    55    56    1
    14    50    49    2
    15    49    48    1
    16    44    45    1
    17    56    58   am
    18    47    48    1
    19    45    46    1
    20    30    31    2
    21    30    29    1
    22    35    37   ar
    23    35    33   ar
    24    37    36   ar
    25     1     2    1
    26    21    22    1
    27    63    64    1
    28    63    60    1
    29     8     7   ar
    30    33    32    1
    31    33    34   ar
    32    24    23    2
    33    29    32    1
    34    29    28    1
    35    23    22    1
    36    23    28   am
    37    59    60    1
    38    22    25    1
    39     5     2    1
    40     5     6    1
    41    65    64    2
    42    64    66   am
    43     2     3    1
    44    36    34   ar
    45    60    61    1
    46    12    13    2
    47    12    11    1
    48     7     6    1
    49     7     9   ar
    50     4     3    2
    51    25    26    1
    52    25    27    1
    53    10    11    1
    54    61    62    2
    55    11    14    1
    56    14    15    1
    57    15    16    1
    58    71    68    1
    59    78    77    1
    60    20    18    1
    61    17    18    2
    62    17    16    1
    63    18    19    1
    64    79    77    1
    65    77    76    1
    66    67    68    1
    67    68    69    1
    68    72    69   am
    69    72    73    1
    70    76    73    1
    71    69    70    2
    72    73    74    1
    73    86    85    1
    74    74    75    2
    75    85    87    1
    76    85    84    1
    77    84    81    1
    78    80    81    1
    79    81    82    1
    80    82    83    2
