@<TRIPOS>MOLECULE
tmp/3qagA00.pdb
 91 91 0 0 0
SMALL
GASTEIGER

@<TRIPOS>ATOM
      1  N         30.5450   15.5610   17.6090 N.3   100  LYS100     -0.1231
      2  CA        29.8330   16.0330   18.7920 C.3   100  LYS100      0.1693
      3  C         29.2240   17.4090   18.4830 C.2   100  LYS100      0.2592
      4  O         29.9290   18.3030   18.0100 O.2   100  LYS100     -0.2718
      5  CB        30.7930   16.1210   19.9840 C.3   100  LYS100      0.0285
      6  CG        30.1200   15.9520   21.3560 C.3   100  LYS100      0.0035
      7  CD        29.7950   14.4860   21.6440 C.3   100  LYS100      0.0206
      8  CE        29.1490   14.3050   23.0080 C.3   100  LYS100      0.1093
      9  NZ        29.0470   12.8510   23.3490 N.3   100  LYS100     -0.1314
     10  N         27.9250   17.5690   18.7360 N.am  101  LEU101     -0.1966
     11  CA        27.2130   18.8100   18.3800 C.3   101  LEU101      0.1728
     12  C         27.1500   19.8570   19.4850 C.2   101  LEU101      0.2616
     13  O         27.3020   21.0590   19.2170 O.2   101  LEU101     -0.2715
     14  CB        25.8070   18.5130   17.8560 C.3   101  LEU101      0.0311
     15  CG        25.7290   17.7500   16.5360 C.3   101  LEU101      0.0022
     16  CD1       24.2700   17.5100   16.1760 C.3   101  LEU101      0.0001
     17  CD2       26.4540   18.5130   15.4320 C.3   101  LEU101      0.0001
     18  N         26.8800   19.4090   20.7110 N.am  102  PHE102     -0.1960
     19  CA        27.0450   20.2510   21.9000 C.3   102  PHE102      0.1756
     20  C         28.5430   20.3970   22.2120 C.2   102  PHE102      0.2461
     21  O         29.3050   19.4610   21.9710 O.2   102  PHE102     -0.2730
     22  CB        26.3440   19.6220   23.1150 C.3   102  PHE102      0.0574
     23  CG        24.9220   20.0690   23.3100 C.ar  102  PHE102     -0.0200
     24  CD1       23.9080   19.1340   23.4680 C.ar  102  PHE102     -0.0042
     25  CD2       24.5950   21.4270   23.3600 C.ar  102  PHE102     -0.0042
     26  CE1       22.5790   19.5470   23.6660 C.ar  102  PHE102     -0.0003
     27  CE2       23.2820   21.8400   23.5640 C.ar  102  PHE102     -0.0003
     28  CZ        22.2710   20.8980   23.7130 C.ar  102  PHE102     -0.0000
     29  N         28.9650   21.5610   22.7580 N.am  103  PRO103     -0.2716
     30  CA        30.3560   21.7220   23.1930 C.3   103  PRO103      0.1536
     31  C         30.7490   20.7250   24.2860 C.2   103  PRO103      0.2598
     32  O         29.8790   20.2190   25.0120 O.2   103  PRO103     -0.2715
     33  CB        30.3850   23.1440   23.7600 C.3   103  PRO103      0.0310
     34  CG        29.2230   23.8280   23.1560 C.3   103  PRO103      0.0237
     35  CD        28.1790   22.7860   22.9930 C.3   103  PRO103      0.0939
     36  N         32.0450   20.4330   24.3820 N.am  104  TYR104     -0.1974
     37  CA        32.5650   19.6020   25.4700 C.3   104  TYR104      0.1639
     38  C         32.6050   20.3760   26.7840 C.2   104  TYR104      0.2290
     39  O         32.2970   19.8250   27.8350 O.2   104  TYR104     -0.2864
     40  CB        33.9640   19.0480   25.1450 C.3   104  TYR104      0.0560
     41  CG        33.9700   17.9350   24.1200 C.ar  104  TYR104     -0.0198
     42  CD1       34.3010   18.1940   22.7830 C.ar  104  TYR104     -0.0009
     43  CD2       33.6390   16.6200   24.4810 C.ar  104  TYR104     -0.0009
     44  CE1       34.3080   17.1750   21.8300 C.ar  104  TYR104      0.0417
     45  CE2       33.6440   15.5900   23.5330 C.ar  104  TYR104      0.0417
     46  CZ        33.9770   15.8770   22.2100 C.ar  104  TYR104      0.1957
     47  OH        33.9840   14.8710   21.2640 O.3   104  TYR104     -0.2866
     48  N         24.5990   27.3890   25.5450 N.3   112  GLN112     -0.1245
     49  CA        23.7380   27.0410   24.4290 C.3   112  GLN112      0.1566
     50  C         22.3130   26.7390   24.9180 C.2   112  GLN112      0.2260
     51  O         21.3290   27.0880   24.2700 O.2   112  GLN112     -0.2867
     52  CB        24.3110   25.8570   23.6510 C.3   112  GLN112      0.0367
     53  CG        25.6310   26.1570   22.9240 C.3   112  GLN112      0.0905
     54  CD        25.8500   25.2510   21.7180 C.2   112  GLN112      0.2608
     55  OE1       24.9820   24.4380   21.3680 O.2   112  GLN112     -0.2717
     56  NE2       27.0020   25.3960   21.0670 N.am  112  GLN112     -0.0878
     57  N         26.7210   29.4240   18.5510 N.3   166  GLY166     -0.1210
     58  CA        27.6970   28.7900   19.4250 C.3   166  GLY166      0.1956
     59  C         29.1530   28.9930   19.0440 C.2   166  GLY166      0.2612
     60  O         30.0290   28.3820   19.6450 O.2   166  GLY166     -0.2717
     61  N         29.4180   29.8320   18.0480 N.am  167  GLY167     -0.1942
     62  CA        30.8000   30.1290   17.6430 C.3   167  GLY167      0.2014
     63  C         31.0130   30.3380   16.1510 C.2   167  GLY167      0.2640
     64  O         30.0720   30.6530   15.4190 O.2   167  GLY167     -0.2714
     65  N         32.2660   30.1670   15.7150 N.am  168  THR168     -0.1936
     66  CA        32.6850   30.3680   14.3170 C.3   168  THR168      0.2028
     67  C         32.1500   29.3250   13.3260 C.2   168  THR168      0.2643
     68  O         32.0680   29.5960   12.1260 O.2   168  THR168     -0.2714
     69  CB        34.2240   30.4240   14.1850 C.3   168  THR168      0.1808
     70  OG1       34.7840   29.1510   14.5410 O.3   168  THR168     -0.2208
     71  CG2       34.8070   31.5200   15.0800 C.3   168  THR168      0.0379
     72  N         31.7990   28.1390   13.8220 N.am  169  SER169     -0.1935
     73  CA        31.1480   27.1270   12.9860 C.3   169  SER169      0.2055
     74  C         29.8640   26.5780   13.6230 C.2   169  SER169      0.2643
     75  O         29.5810   26.8210   14.8100 O.2   169  SER169     -0.2714
     76  CB        32.1360   26.0120   12.5910 C.3   169  SER169      0.2130
     77  OG        32.3860   25.1250   13.6670 O.3   169  SER169     -0.2179
     78  N         29.0790   25.8590   12.8200 N.am  170  ILE170     -0.1963
     79  CA        27.7730   25.3340   13.2180 C.3   170  ILE170      0.1727
     80  C         27.8540   24.3350   14.3860 C.2   170  ILE170      0.2616
     81  O         28.8340   23.5990   14.5200 O.2   170  ILE170     -0.2715
     82  CB        27.0370   24.7030   12.0020 C.3   170  ILE170      0.0290
     83  CG1       25.5180   24.6730   12.2390 C.3   170  ILE170      0.0022
     84  CG2       27.6020   23.3100   11.6590 C.3   170  ILE170      0.0023
     85  CD1       24.7120   24.4440   10.9810 C.3   170  ILE170      0.0001
     86  N         26.8290   24.3260   15.2360 N.am  171  SER171     -0.1950
     87  CA        26.7790   23.3970   16.3780 C.3   171  SER171      0.1924
     88  C         25.3380   23.1160   16.8270 C.2   171  SER171      0.2314
     89  O         24.3960   23.5170   16.1500 O.2   171  SER171     -0.2863
     90  CB        27.6430   23.9210   17.5340 C.3   171  SER171      0.2116
     91  OG        27.0570   25.0560   18.1380 O.3   171  SER171     -0.2180
@<TRIPOS>BOND
     1    85    83    1
     2    84    82    1
     3    82    83    1
     4    82    79    1
     5    68    67    2
     6    76    73    1
     7    76    77    1
     8    78    79    1
     9    78    74   am
    10    73    74    1
    11    73    72    1
    12    79    80    1
    13    67    72   am
    14    67    66    1
    15    74    75    2
    16    69    66    1
    17    69    70    1
    18    69    71    1
    19    66    65    1
    20    80    81    2
    21    80    86   am
    22    86    87    1
    23    64    63    2
    24    17    15    1
    25    65    63   am
    26    89    88    2
    27    63    62    1
    28    16    15    1
    29    87    88    1
    30    87    90    1
    31    15    14    1
    32    90    91    1
    33     1     2    1
    34    62    61    1
    35    14    11    1
    36     4     3    2
    37    61    59   am
    38    11    10    1
    39    11    12    1
    40     3    10   am
    41     3     2    1
    42    57    58    1
    43     2     5    1
    44    59    58    1
    45    59    60    2
    46    13    12    2
    47    12    18   am
    48     5     6    1
    49    18    19    1
    50    56    54   am
    51    47    46    1
    52     6     7    1
    53    55    54    2
    54     7     8    1
    55    54    53    1
    56    44    46   ar
    57    44    42   ar
    58    19    20    1
    59    19    22    1
    60    21    20    2
    61    46    45   ar
    62    20    29   am
    63    29    35    1
    64    29    30    1
    65    42    41   ar
    66    53    52    1
    67    35    34    1
    68     8     9    1
    69    22    23    1
    70    34    33    1
    71    30    33    1
    72    30    31    1
    73    23    25   ar
    74    23    24   ar
    75    25    27   ar
    76    24    26   ar
    77    45    43   ar
    78    27    28   ar
    79    52    49    1
    80    26    28   ar
    81    41    43   ar
    82    41    40    1
    83    51    50    2
    84    31    36   am
    85    31    32    2
    86    36    37    1
    87    49    50    1
    88    49    48    1
    89    40    37    1
    90    37    38    1
    91    38    39    2
