@<TRIPOS>MOLECULE
tmp/3qaiB00.pdb
 122 114 0 0 0
SMALL
GASTEIGER

@<TRIPOS>ATOM
      1  N        -23.3620   14.3450   59.2540 N.3   196  LYS196     -0.1245
      2  CA       -24.6780   13.7950   58.9510 C.3   196  LYS196      0.1561
      3  C        -24.5180   12.3880   58.4010 C.2   196  LYS196      0.2260
      4  O        -25.2000   11.4620   58.8090 O.2   196  LYS196     -0.2867
      5  CB       -25.4240   14.6680   57.9450 C.3   196  LYS196      0.0271
      6  CG       -26.8880   14.2690   57.7510 C.3   196  LYS196      0.0035
      7  CD       -27.5110   14.9450   56.5130 C.3   196  LYS196      0.0206
      8  CE       -28.9800   14.5240   56.3130 C.3   196  LYS196      0.1093
      9  NZ       -29.5440   14.7450   54.9270 N.3   196  LYS196     -0.1314
     10  N        -23.8870   18.7600   62.5120 N.3   227  ALA227     -0.1245
     11  CA       -24.5950   19.6520   61.5910 C.3   227  ALA227      0.1562
     12  C        -25.4000   18.8370   60.5880 C.2   227  ALA227      0.2260
     13  O        -25.0070   17.7260   60.2130 O.2   227  ALA227     -0.2867
     14  CB       -23.6340   20.5790   60.8790 C.3   227  ALA227      0.0290
     15  N        -27.0770   19.9550   57.4240 N.3   229  ALA229     -0.1231
     16  CA       -27.4140   20.6990   56.2240 C.3   229  ALA229      0.1694
     17  C        -28.4170   21.7850   56.5540 C.2   229  ALA229      0.2591
     18  O        -28.1880   22.5880   57.4670 O.2   229  ALA229     -0.2718
     19  CB       -27.9510   19.7810   55.1690 C.3   229  ALA229      0.0304
     20  N        -29.5300   21.8110   55.8270 N.am  230  GLU230     -0.1979
     21  CA       -30.4750   22.9190   55.9590 C.3   230  GLU230      0.1602
     22  C        -31.3660   22.8390   57.2090 C.2   230  GLU230      0.2287
     23  O        -32.1330   23.7650   57.5000 O.2   230  GLU230     -0.2864
     24  CB       -31.2880   23.1390   54.6660 C.3   230  GLU230      0.0415
     25  CG       -32.2440   22.0110   54.2700 C.3   230  GLU230      0.1163
     26  CD       -31.5300   20.7170   53.9170 C.2   230  GLU230      0.3649
     27  OE1      -31.3070   20.4500   52.7090 O.co2 230  GLU230     -0.2457
     28  OE2      -31.2030   19.9600   54.8580 O.co2 230  GLU230     -0.2457
     29  N        -30.0310   22.9290   60.1300 N.3   232  GLY232     -0.1210
     30  CA       -29.2430   23.6190   61.1400 C.3   232  GLY232      0.1956
     31  C        -28.1780   22.7530   61.7910 C.2   232  GLY232      0.2611
     32  O        -27.7580   21.7290   61.2290 O.2   232  GLY232     -0.2717
     33  N        -27.7480   23.1510   62.9870 N.am  233  ALA233     -0.1979
     34  CA       -26.7000   22.4150   63.6870 C.3   233  ALA233      0.1597
     35  C        -27.0330   22.2930   65.1430 C.2   233  ALA233      0.2287
     36  O        -27.7260   23.1360   65.6890 O.2   233  ALA233     -0.2864
     37  CB       -25.3690   23.1330   63.5320 C.3   233  ALA233      0.0319
     38  N        -30.3880   26.8310   60.3120 N.3   247  ALA247     -0.1231
     39  CA       -29.5490   27.2160   59.1880 C.3   247  ALA247      0.1694
     40  C        -29.7680   28.6880   58.7970 C.2   247  ALA247      0.2592
     41  O        -30.6270   29.3730   59.3640 O.2   247  ALA247     -0.2718
     42  CB       -29.7990   26.3040   58.0340 C.3   247  ALA247      0.0304
     43  N        -28.9570   29.1790   57.8610 N.am  248  PHE248     -0.1963
     44  CA       -29.1480   30.5110   57.2820 C.3   248  PHE248      0.1756
     45  C        -29.0920   30.4050   55.7600 C.2   248  PHE248      0.2461
     46  O        -28.0210   30.5020   55.1830 O.2   248  PHE248     -0.2730
     47  CB       -28.0500   31.4830   57.7360 C.3   248  PHE248      0.0574
     48  CG       -27.9980   31.7190   59.2260 C.ar  248  PHE248     -0.0200
     49  CD1      -28.3080   32.9650   59.7560 C.ar  248  PHE248     -0.0042
     50  CD2      -27.6110   30.7020   60.0990 C.ar  248  PHE248     -0.0042
     51  CE1      -28.2460   33.1920   61.1270 C.ar  248  PHE248     -0.0003
     52  CE2      -27.5480   30.9260   61.4890 C.ar  248  PHE248     -0.0003
     53  CZ       -27.8600   32.1660   61.9950 C.ar  248  PHE248     -0.0000
     54  N        -30.2410   30.2080   55.1000 N.am  249  PRO249     -0.2716
     55  CA       -30.2180   30.1430   53.6300 C.3   249  PRO249      0.1521
     56  C        -29.5890   31.3780   52.9860 C.2   249  PRO249      0.2440
     57  O        -29.8470   32.5040   53.4190 O.2   249  PRO249     -0.2731
     58  CB       -31.7040   30.0770   53.2660 C.3   249  PRO249      0.0310
     59  CG       -32.3470   29.4410   54.4570 C.3   249  PRO249      0.0237
     60  CD       -31.5890   29.9690   55.6460 C.3   249  PRO249      0.0939
     61  N        -28.7580   31.1690   51.9590 N.am  250  PRO250     -0.2727
     62  CA       -28.2470   32.2870   51.1630 C.3   250  PRO250      0.1402
     63  C        -29.2760   32.6280   50.0910 C.2   250  PRO250      0.2269
     64  O        -30.0830   31.7570   49.7390 O.2   250  PRO250     -0.2865
     65  CB       -26.9840   31.7110   50.5110 C.3   250  PRO250      0.0296
     66  CG       -27.0610   30.1870   50.7210 C.3   250  PRO250      0.0237
     67  CD       -28.3660   29.8690   51.3920 C.3   250  PRO250      0.0939
     68  N        -28.5970   28.9320   46.5170 N.3   253  VAL253     -0.1245
     69  CA       -27.5230   27.9320   46.6060 C.3   253  VAL253      0.1561
     70  C        -26.7210   27.7250   45.3050 C.2   253  VAL253      0.2260
     71  O        -27.2820   27.3510   44.2700 O.2   253  VAL253     -0.2867
     72  CB       -28.0860   26.5710   47.0680 C.3   253  VAL253      0.0252
     73  CG1      -26.9540   25.5800   47.3270 C.3   253  VAL253      0.0019
     74  CG2      -28.9420   26.7500   48.3070 C.3   253  VAL253      0.0019
     75  N        -22.2700   23.8960   47.4160 N.3   256  THR256     -0.1218
     76  CA       -22.2520   23.3560   48.7740 C.3   256  THR256      0.1862
     77  C        -20.9320   22.6790   49.1260 C.2   256  THR256      0.2287
     78  O        -20.6690   22.3970   50.2970 O.2   256  THR256     -0.2866
     79  CB       -23.3990   22.3510   49.0400 C.3   256  THR256      0.1770
     80  OG1      -24.0290   21.9730   47.8080 O.3   256  THR256     -0.2211
     81  CG2      -24.4140   22.9740   49.9560 C.3   256  THR256      0.0375
     82  N        -18.7050   23.0750   52.5370 N.3   259  ALA259     -0.1231
     83  CA       -19.4630   23.7810   53.5630 C.3   259  ALA259      0.1694
     84  C        -19.2700   23.1750   54.9630 C.2   259  ALA259      0.2592
     85  O        -19.0890   23.9010   55.9410 O.2   259  ALA259     -0.2718
     86  CB       -20.9500   23.8570   53.1840 C.3   259  ALA259      0.0304
     87  N        -19.2830   21.8520   55.0610 N.am  260  GLY260     -0.1957
     88  CA       -18.9730   21.2140   56.3330 C.3   260  GLY260      0.1869
     89  C        -17.6040   21.6220   56.8800 C.2   260  GLY260      0.2309
     90  O        -17.4150   21.8250   58.0870 O.2   260  GLY260     -0.2863
     91  N        -18.0970   25.0000   58.1990 N.3   263  PHE263     -0.1241
     92  CA       -18.7640   24.9540   59.4830 C.3   263  PHE263      0.1605
     93  C        -17.7650   24.6200   60.6010 C.2   263  PHE263      0.2264
     94  O        -17.6580   25.3470   61.5860 O.2   263  PHE263     -0.2867
     95  CB       -19.9390   23.9760   59.4600 C.3   263  PHE263      0.0534
     96  CG       -20.6020   23.7940   60.8030 C.ar  263  PHE263     -0.0203
     97  CD1      -21.4720   24.7490   61.2950 C.ar  263  PHE263     -0.0042
     98  CD2      -20.3330   22.6760   61.5780 C.ar  263  PHE263     -0.0042
     99  CE1      -22.0660   24.5960   62.5220 C.ar  263  PHE263     -0.0003
    100  CE2      -20.9270   22.5130   62.8090 C.ar  263  PHE263     -0.0003
    101  CZ       -21.7960   23.4740   63.2840 C.ar  263  PHE263     -0.0000
    102  N        -23.1440   28.2610   61.6760 N.3   285  CYS285     -0.1235
    103  CA       -24.2270   28.2190   60.6970 C.3   285  CYS285      0.1677
    104  C        -24.2090   29.4460   59.7880 C.2   285  CYS285      0.2270
    105  O        -24.3810   29.3220   58.5750 O.2   285  CYS285     -0.2867
    106  CB       -25.5780   28.0160   61.3760 C.3   285  CYS285      0.0956
    107  SG       -25.7380   26.3910   62.2030 S.3   285  CYS285     -0.0801
    108  N        -21.1060   29.0660   57.1150 N.3   288  ALA288     -0.1231
    109  CA       -21.4230   27.9730   56.2060 C.3   288  ALA288      0.1694
    110  C        -22.6210   28.2970   55.2790 C.2   288  ALA288      0.2592
    111  O        -22.6950   27.8070   54.1560 O.2   288  ALA288     -0.2718
    112  CB       -21.6710   26.6770   56.9900 C.3   288  ALA288      0.0304
    113  N        -23.5610   29.1070   55.7510 N.am  289  GLY289     -0.1957
    114  CA       -24.7110   29.4550   54.9400 C.3   289  GLY289      0.1869
    115  C        -24.2810   30.3690   53.8160 C.2   289  GLY289      0.2309
    116  O        -24.6300   30.1740   52.6390 O.2   289  GLY289     -0.2863
    117  N        -22.2830   28.4100   51.0540 N.3   292  CYS292     -0.1235
    118  CA       -23.1830   27.6980   50.1540 C.3   292  CYS292      0.1677
    119  C        -23.6600   28.5260   48.9560 C.2   292  CYS292      0.2270
    120  O        -23.6800   28.0340   47.8320 O.2   292  CYS292     -0.2867
    121  CB       -24.3660   27.1310   50.9360 C.3   292  CYS292      0.0956
    122  SG       -23.9330   25.6980   52.0040 S.3   292  CYS292     -0.0801
@<TRIPOS>BOND
     1    71    70    2
     2    70    69    1
     3    68    69    1
     4    69    72    1
     5    72    73    1
     6    72    74    1
     7    75    76    1
     8    80    79    1
     9   120   119    2
    10    76    79    1
    11    76    77    1
    12   119   118    1
    13    79    81    1
    14    77    78    2
    15    64    63    2
    16    63    62    1
    17   118   121    1
    18   118   117    1
    19    65    66    1
    20    65    62    1
    21    66    67    1
    22   121   122    1
    23    62    61    1
    24    67    61    1
    25    61    56   am
    26    82    83    1
    27   116   115    2
    28    27    26   ar
    29    56    57    2
    30    56    55    1
    31    86    83    1
    32    58    55    1
    33    58    59    1
    34    83    84    1
    35    55    54    1
    36   115   114    1
    37    26    25    1
    38    26    28   ar
    39   111   110    2
    40    25    24    1
    41    59    60    1
    42    24    21    1
    43     9     8    1
    44   114   113    1
    45    84    87   am
    46    84    85    2
    47    87    88    1
    48    54    60    1
    49    54    45   am
    50    19    16    1
    51    46    45    2
    52   110   113   am
    53   110   109    1
    54    45    44    1
    55    20    21    1
    56    20    17   am
    57    21    22    1
    58   109   112    1
    59   109   108    1
    60    16    17    1
    61    16    15    1
    62     8     7    1
    63    88    89    1
    64     7     6    1
    65    17    18    2
    66    89    90    2
    67    22    23    2
    68    44    47    1
    69    44    43    1
    70    47    48    1
    71     6     5    1
    72    43    40   am
    73     5     2    1
    74    42    39    1
    75    91    92    1
    76     3     4    2
    77     3     2    1
    78   105   104    2
    79    40    39    1
    80    40    41    2
    81     2     1    1
    82    39    38    1
    83    48    49   ar
    84    48    50   ar
    85    95    92    1
    86    95    96    1
    87    92    93    1
    88    49    51   ar
    89   104   103    1
    90    50    52   ar
    91    29    30    1
    92    13    12    2
    93    12    11    1
    94    93    94    2
    95   103   106    1
    96   103   102    1
    97    96    97   ar
    98    96    98   ar
    99    14    11    1
   100    51    53   ar
   101    30    31    1
   102    32    31    2
   103    97    99   ar
   104   106   107    1
   105    52    53   ar
   106    98   100   ar
   107    11    10    1
   108    31    33   am
   109    99   101   ar
   110   100   101   ar
   111    33    34    1
   112    37    34    1
   113    34    35    1
   114    35    36    2
