@<TRIPOS>MOLECULE
tmp/3qakA02.pdb
 85 83 0 0 0
SMALL
GASTEIGER

@<TRIPOS>ATOM
      1  N        -20.9500  -17.7530   58.4060 N.3     3  GLY3       -0.1210
      2  CA       -20.2240  -16.8120   57.5630 C.3     3  GLY3        0.1956
      3  C        -19.0270  -17.4330   56.8510 C.2     3  GLY3        0.2612
      4  O        -18.9190  -17.3520   55.6340 O.2     3  GLY3       -0.2717
      5  N        -18.1230  -18.0590   57.5980 N.am    4  SER4       -0.1952
      6  CA       -16.9180  -18.6750   56.9880 C.3     4  SER4        0.1924
      7  C        -17.2780  -19.6560   55.8560 C.2     4  SER4        0.2314
      8  O        -16.6130  -19.7300   54.8140 O.2     4  SER4       -0.2863
      9  CB       -16.0670  -19.4100   58.0420 C.3     4  SER4        0.2116
     10  OG       -16.4910  -20.7550   58.2080 O.3     4  SER4       -0.2180
     11  N        -19.8010  -19.5730   53.8780 N.3     6  VAL6       -0.1231
     12  CA       -20.1960  -18.8190   52.7050 C.3     6  VAL6        0.1692
     13  C        -18.9890  -18.2360   51.9890 C.2     6  VAL6        0.2592
     14  O        -19.0210  -18.0950   50.7850 O.2     6  VAL6       -0.2718
     15  CB       -21.1880  -17.7040   53.0800 C.3     6  VAL6        0.0266
     16  CG1      -21.1330  -16.5710   52.0900 C.3     6  VAL6        0.0020
     17  CG2      -22.5940  -18.2660   53.1690 C.3     6  VAL6        0.0020
     18  N        -17.9330  -17.9010   52.7200 N.am    7  TYR7       -0.1976
     19  CA       -16.7070  -17.3760   52.1240 C.3     7  TYR7        0.1639
     20  C        -15.9800  -18.4540   51.3220 C.2     7  TYR7        0.2290
     21  O        -15.6740  -18.2640   50.1570 O.2     7  TYR7       -0.2864
     22  CB       -15.7810  -16.8040   53.2130 C.3     7  TYR7        0.0560
     23  CG       -14.3800  -16.3830   52.7610 C.ar    7  TYR7       -0.0198
     24  CD1      -14.1960  -15.3890   51.8090 C.ar    7  TYR7       -0.0009
     25  CD2      -13.2410  -16.9700   53.3140 C.ar    7  TYR7       -0.0009
     26  CE1      -12.9110  -14.9860   51.4120 C.ar    7  TYR7        0.0417
     27  CE2      -11.9540  -16.5890   52.9250 C.ar    7  TYR7        0.0417
     28  CZ       -11.7920  -15.5930   51.9780 C.ar    7  TYR7        0.1957
     29  OH       -10.5200  -15.2010   51.5940 O.3     7  TYR7       -0.2866
     30  N        -18.0100  -19.2720   47.9830 N.3    10  VAL10      -0.1245
     31  CA       -17.8720  -18.2580   46.9240 C.3    10  VAL10       0.1561
     32  C        -16.4580  -18.2330   46.3350 C.2    10  VAL10       0.2260
     33  O        -16.2700  -18.1200   45.1220 O.2    10  VAL10      -0.2867
     34  CB       -18.2820  -16.8560   47.4480 C.3    10  VAL10       0.0252
     35  CG1      -17.7030  -15.7280   46.5920 C.3    10  VAL10       0.0019
     36  CG2      -19.8080  -16.7730   47.4920 C.3    10  VAL10       0.0019
     37  N        -17.0680   -7.6080   59.4930 N.3   403  LEU403     -0.1231
     38  CA       -16.3900   -8.7900   58.9490 C.3   403  LEU403      0.1693
     39  C        -16.8010   -9.0980   57.5170 C.2   403  LEU403      0.2592
     40  O        -15.9430   -9.3180   56.6550 O.2   403  LEU403     -0.2718
     41  CB       -16.6360  -10.0500   59.8020 C.3   403  LEU403      0.0284
     42  CG       -15.5140  -10.6340   60.6810 C.3   403  LEU403      0.0019
     43  CD1      -15.8820  -12.0670   61.0820 C.3   403  LEU403      0.0001
     44  CD2      -14.1350  -10.6140   60.0160 C.3   403  LEU403      0.0001
     45  N        -18.1040   -9.1410   57.2560 N.am  404  TRP404     -0.1976
     46  CA       -18.5680   -9.5030   55.9200 C.3   404  TRP404      0.1640
     47  C        -18.0280   -8.5360   54.8680 C.2   404  TRP404      0.2290
     48  O        -17.7020   -8.9500   53.7610 O.2   404  TRP404     -0.2864
     49  CB       -20.1000   -9.6180   55.8440 C.3   404  TRP404      0.0576
     50  CG       -20.8410   -8.3450   56.0340 C.ar  404  TRP404      0.0006
     51  CD1      -21.3900   -7.8950   57.1890 C.ar  404  TRP404      0.0946
     52  CD2      -21.1220   -7.3530   55.0370 C.ar  404  TRP404      0.0152
     53  NE1      -21.9940   -6.6800   56.9810 N.ar  404  TRP404     -0.2442
     54  CE2      -21.8350   -6.3220   55.6680 C.ar  404  TRP404      0.0810
     55  CE3      -20.8240   -7.2320   53.6800 C.ar  404  TRP404      0.0012
     56  CZ2      -22.2750   -5.1840   54.9830 C.ar  404  TRP404      0.0191
     57  CZ3      -21.2520   -6.1030   52.9990 C.ar  404  TRP404      0.0001
     58  CH2      -21.9750   -5.0960   53.6490 C.ar  404  TRP404      0.0015
     59  N        -14.1580   -9.2840   54.3820 N.3   407  TYR407     -0.1227
     60  CA       -14.0240  -10.5250   53.6060 C.3   407  TYR407      0.1736
     61  C        -14.5360  -10.3690   52.1550 C.2   407  TYR407      0.2595
     62  O        -13.9060  -10.8860   51.2230 O.2   407  TYR407     -0.2718
     63  CB       -14.6750  -11.7200   54.3390 C.3   407  TYR407      0.0548
     64  CG       -13.7220  -12.4080   55.3130 C.ar  407  TYR407     -0.0200
     65  CD1      -13.0890  -13.5800   54.9560 C.ar  407  TYR407     -0.0009
     66  CD2      -13.4320  -11.8720   56.5830 C.ar  407  TYR407     -0.0009
     67  CE1      -12.2070  -14.1980   55.7890 C.ar  407  TYR407      0.0417
     68  CE2      -12.5330  -12.5070   57.4430 C.ar  407  TYR407      0.0417
     69  CZ       -11.9220  -13.6800   57.0180 C.ar  407  TYR407      0.1957
     70  OH       -11.0040  -14.3900   57.7770 O.3   407  TYR407     -0.2866
     71  N        -15.6330   -9.6440   51.9340 N.am  408  LEU408     -0.1980
     72  CA       -16.0450   -9.3690   50.5570 C.3   408  LEU408      0.1596
     73  C        -14.8890   -8.7270   49.7810 C.2   408  LEU408      0.2287
     74  O        -14.5900   -9.1420   48.6740 O.2   408  LEU408     -0.2864
     75  CB       -17.2950   -8.4810   50.4800 C.3   408  LEU408      0.0297
     76  CG       -17.6520   -7.9940   49.0580 C.3   408  LEU408      0.0022
     77  CD1      -18.1530   -9.1670   48.2360 C.3   408  LEU408      0.0001
     78  CD2      -18.6620   -6.8250   49.0360 C.3   408  LEU408      0.0001
     79  N        -12.7040  -11.2890   48.4060 N.3   411  VAL411     -0.1245
     80  CA       -13.3650  -11.9620   47.3020 C.3   411  VAL411      0.1561
     81  C        -13.2260  -11.1090   46.0510 C.2   411  VAL411      0.2260
     82  O        -12.8940  -11.6320   44.9860 O.2   411  VAL411     -0.2867
     83  CB       -14.8590  -12.2190   47.6090 C.3   411  VAL411      0.0252
     84  CG1      -15.5590  -12.7700   46.3980 C.3   411  VAL411      0.0019
     85  CG2      -14.9980  -13.1750   48.7660 C.3   411  VAL411      0.0019
@<TRIPOS>BOND
     1    82    81    2
     2    33    32    2
     3    81    80    1
     4    32    31    1
     5    84    83    1
     6    35    34    1
     7    31    34    1
     8    31    30    1
     9    80    83    1
    10    80    79    1
    11    34    36    1
    12    83    85    1
    13    77    76    1
    14    74    73    2
    15    78    76    1
    16    76    75    1
    17    73    72    1
    18    21    20    2
    19    75    72    1
    20    72    71    1
    21    14    13    2
    22    62    61    2
    23    20    19    1
    24    26    24   ar
    25    26    28   ar
    26    29    28    1
    27    24    23   ar
    28    71    61   am
    29    28    27   ar
    30    13    12    1
    31    13    18   am
    32    16    15    1
    33    19    18    1
    34    19    22    1
    35    61    60    1
    36    12    15    1
    37    12    11    1
    38    23    22    1
    39    23    25   ar
    40    27    25   ar
    41    57    58   ar
    42    57    55   ar
    43    15    17    1
    44    60    63    1
    45    60    59    1
    46    58    56   ar
    47    55    52   ar
    48    48    47    2
    49    63    64    1
    50     8     7    2
    51    47    46    1
    52    65    64   ar
    53    65    67   ar
    54    56    54   ar
    55    52    54   ar
    56    52    50   ar
    57    64    66   ar
    58     4     3    2
    59    54    53   ar
    60    67    69   ar
    61    49    46    1
    62    49    50    1
    63     7     6    1
    64    46    45    1
    65    50    51   ar
    66    66    68   ar
    67    40    39    2
    68     3     2    1
    69     3     5   am
    70    53    51   ar
    71     6     5    1
    72     6     9    1
    73    69    68   ar
    74    69    70    1
    75    45    39   am
    76    39    38    1
    77     2     1    1
    78     9    10    1
    79    38    37    1
    80    38    41    1
    81    41    42    1
    82    44    42    1
    83    42    43    1
