@<TRIPOS>MOLECULE
tmp/3qaqA00.pdb
 226 213 0 0 0
SMALL
GASTEIGER

@<TRIPOS>ATOM
      1  N         19.9160   17.3100   12.3010 N.3   567  MET567     -0.1245
      2  CA        20.0920   18.2550   13.4080 C.3   567  MET567      0.1570
      3  C         20.9090   19.4900   13.0320 C.2   567  MET567      0.2261
      4  O         21.7670   19.4350   12.1490 O.2   567  MET567     -0.2867
      5  CB        20.6810   17.5500   14.6330 C.3   567  MET567      0.0387
      6  CG        19.7050   16.5770   15.2900 C.3   567  MET567      0.0595
      7  SD        20.4530   15.3090   16.3530 S.3   567  MET567     -0.1393
      8  CE        20.7460   16.2360   17.8610 C.3   567  MET567      0.0692
      9  N         23.4520   20.8730   13.9240 N.3   569  SER569     -0.1217
     10  CA        24.8570   20.7780   14.3200 C.3   569  SER569      0.1889
     11  C         25.7040   20.8480   13.0500 C.2   569  SER569      0.2288
     12  O         25.1820   20.6750   11.9510 O.2   569  SER569     -0.2866
     13  CB        25.0940   19.4580   15.0660 C.3   569  SER569      0.2089
     14  OG        26.4260   18.9870   14.9250 O.3   569  SER569     -0.2183
     15  N         24.0620   15.2180   12.2990 N.3   573  PRO573     -0.2116
     16  CA        23.6670   13.8700   12.6950 C.3   573  PRO573      0.1372
     17  C         22.1820   13.6300   12.4420 C.2   573  PRO573      0.2244
     18  O         21.4140   14.5870   12.3400 O.2   573  PRO573     -0.2868
     19  CB        23.9620   13.8450   14.2000 C.3   573  PRO573      0.0268
     20  CG        23.8890   15.2410   14.6330 C.3   573  PRO573      0.0207
     21  CD        24.3650   16.0630   13.4710 C.3   573  PRO573      0.0892
     22  N         18.4150   12.2640   13.5550 N.3   575  TRP575     -0.1241
     23  CA        17.5730   12.0700   14.7220 C.3   575  TRP575      0.1605
     24  C         16.4750   11.1050   14.3030 C.2   575  TRP575      0.2264
     25  O         15.4570   11.5190   13.7720 O.2   575  TRP575     -0.2867
     26  CB        17.0020   13.4120   15.1680 C.3   575  TRP575      0.0550
     27  CG        16.0760   13.3610   16.3480 C.ar  575  TRP575      0.0003
     28  CD1       14.8130   12.8390   16.3840 C.ar  575  TRP575      0.0946
     29  CD2       16.3270   13.8880   17.6550 C.ar  575  TRP575      0.0152
     30  NE1       14.2700   12.9920   17.6350 N.ar  575  TRP575     -0.2442
     31  CE2       15.1760   13.6360   18.4350 C.ar  575  TRP575      0.0810
     32  CE3       17.4120   14.5450   18.2440 C.ar  575  TRP575      0.0012
     33  CZ2       15.0790   14.0170   19.7750 C.ar  575  TRP575      0.0191
     34  CZ3       17.3180   14.9220   19.5770 C.ar  575  TRP575      0.0001
     35  CH2       16.1570   14.6550   20.3280 C.ar  575  TRP575      0.0015
     36  N         20.2600    8.5020   17.6340 N.3   594  ILE594     -0.1245
     37  CA        21.0310    9.4360   16.8280 C.3   594  ILE594      0.1561
     38  C         22.0850    8.6560   16.0640 C.2   594  ILE594      0.2260
     39  O         22.8100    7.8590   16.6590 O.2   594  ILE594     -0.2867
     40  CB        21.7520   10.4910   17.7030 C.3   594  ILE594      0.0252
     41  CG1       20.7570   11.5030   18.2710 C.3   594  ILE594      0.0019
     42  CG2       22.8510   11.2070   16.9110 C.3   594  ILE594      0.0019
     43  CD1       21.2840   12.2530   19.4890 C.3   594  ILE594      0.0001
     44  N         25.4940    9.4190   13.9110 N.3   596  LYS596     -0.1245
     45  CA        26.4430   10.5080   13.7380 C.3   596  LYS596      0.1561
     46  C         27.7480   10.0320   13.1250 C.2   596  LYS596      0.2260
     47  O         28.3230    9.0380   13.5750 O.2   596  LYS596     -0.2867
     48  CB        26.7170   11.1880   15.0770 C.3   596  LYS596      0.0271
     49  CG        27.4170   12.5270   14.9710 C.3   596  LYS596      0.0035
     50  CD        27.4640   13.2350   16.3230 C.3   596  LYS596      0.0206
     51  CE        27.8250   14.7120   16.1540 C.3   596  LYS596      0.1093
     52  NZ        27.7530   15.4950   17.4300 N.3   596  LYS596     -0.1314
     53  N         32.5610   12.3520   15.0090 N.3   599  ASP599     -0.1239
     54  CA        33.2260   12.1360   16.3140 C.3   599  ASP599      0.1674
     55  C         33.7910   10.7150   16.4990 C.2   599  ASP599      0.2266
     56  O         33.3720    9.7720   15.8230 O.2   599  ASP599     -0.2867
     57  CB        32.2620   12.4480   17.4730 C.3   599  ASP599      0.1410
     58  CG        31.9110   13.9310   17.5690 C.2   599  ASP599      0.3668
     59  OD1       32.8420   14.7810   17.5880 O.co2 599  ASP599     -0.2456
     60  OD2       30.6950   14.2430   17.6380 O.co2 599  ASP599     -0.2456
     61  N         33.4520    7.9100   18.6530 N.3   601  LEU601     -0.1245
     62  CA        32.5660    7.3250   19.6630 C.3   601  LEU601      0.1561
     63  C         33.1890    6.1690   20.4590 C.2   601  LEU601      0.2260
     64  O         32.5850    5.6790   21.4070 O.2   601  LEU601     -0.2867
     65  CB        31.2290    6.9140   19.0310 C.3   601  LEU601      0.0270
     66  CG        30.4270    8.0580   18.4000 C.3   601  LEU601      0.0019
     67  CD1       29.2400    7.5210   17.6550 C.3   601  LEU601      0.0001
     68  CD2       29.9780    9.0850   19.4250 C.3   601  LEU601      0.0001
     69  N         33.8690    7.8840   23.5810 N.3   604  ASP604     -0.1239
     70  CA        32.6150    8.0350   24.2860 C.3   604  ASP604      0.1674
     71  C         32.2150    6.7240   24.9470 C.2   604  ASP604      0.2266
     72  O         31.8630    6.7150   26.1270 O.2   604  ASP604     -0.2867
     73  CB        31.5380    8.5750   23.3500 C.3   604  ASP604      0.1410
     74  CG        31.8050   10.0180   22.9330 C.2   604  ASP604      0.3668
     75  OD1       32.9430   10.3270   22.4940 O.co2 604  ASP604     -0.2456
     76  OD2       30.8760   10.8480   23.0490 O.co2 604  ASP604     -0.2456
     77  N         31.8880    6.4430   28.9760 N.3   608  LEU608     -0.1245
     78  CA        30.5790    5.9910   29.4530 C.3   608  LEU608      0.1561
     79  C         30.7010    4.7570   30.3380 C.2   608  LEU608      0.2260
     80  O         30.0710    4.6910   31.3870 O.2   608  LEU608     -0.2867
     81  CB        29.6080    5.7240   28.2950 C.3   608  LEU608      0.0270
     82  CG        29.0210    6.9570   27.6030 C.3   608  LEU608      0.0019
     83  CD1       28.4530    6.6170   26.2440 C.3   608  LEU608      0.0001
     84  CD2       27.9720    7.6470   28.4670 C.3   608  LEU608      0.0001
     85  N         23.9920    6.9130   29.0140 N.3   630  TYR630     -0.1241
     86  CA        23.1750    6.4180   27.9150 C.3   630  TYR630      0.1605
     87  C         23.9580    5.4900   26.9850 C.2   630  TYR630      0.2264
     88  O         25.1870    5.5410   26.9170 O.2   630  TYR630     -0.2867
     89  CB        22.6530    7.6160   27.1090 C.3   630  TYR630      0.0534
     90  CG        23.7670    8.5700   26.7370 C.ar  630  TYR630     -0.0201
     91  CD1       24.4630    8.4270   25.5360 C.ar  630  TYR630     -0.0009
     92  CD2       24.1520    9.5910   27.5980 C.ar  630  TYR630     -0.0009
     93  CE1       25.4980    9.2880   25.2000 C.ar  630  TYR630      0.0417
     94  CE2       25.1860   10.4490   27.2710 C.ar  630  TYR630      0.0417
     95  CZ        25.8530   10.2910   26.0750 C.ar  630  TYR630      0.1957
     96  OH        26.8800   11.1360   25.7500 O.3   630  TYR630     -0.2866
     97  N         25.6400    4.0080   23.7160 N.3   632  CYS632     -0.1235
     98  CA        26.4480    4.5570   22.6430 C.3   632  CYS632      0.1677
     99  C         27.2980    3.4280   22.0730 C.2   632  CYS632      0.2270
    100  O         28.0830    2.8230   22.7870 O.2   632  CYS632     -0.2867
    101  CB        27.3410    5.6590   23.2000 C.3   632  CYS632      0.0956
    102  SG        28.6600    6.2230   22.1130 S.3   632  CYS632     -0.0801
    103  N         23.8690    6.7160   19.0090 N.3   642  ILE642     -0.1231
    104  CA        23.6620    7.1680   20.3850 C.3   642  ILE642      0.1692
    105  C         22.1870    7.0910   20.7840 C.2   642  ILE642      0.2592
    106  O         21.3130    7.4870   20.0220 O.2   642  ILE642     -0.2718
    107  CB        24.1480    8.6210   20.6070 C.3   642  ILE642      0.0266
    108  CG1       25.6100    8.7970   20.1960 C.3   642  ILE642      0.0019
    109  CG2       23.9760    9.0190   22.0600 C.3   642  ILE642      0.0020
    110  CD1       25.7880    9.3250   18.8070 C.3   642  ILE642      0.0001
    111  N         21.9210    6.5870   21.9830 N.am  643  GLU643     -0.1966
    112  CA        20.5790    6.6030   22.5550 C.3   643  GLU643      0.1733
    113  C         20.1090    8.0300   22.7960 C.2   643  GLU643      0.2616
    114  O         20.8370    8.8250   23.3920 O.2   643  GLU643     -0.2715
    115  CB        20.5750    5.8520   23.8840 C.3   643  GLU643      0.0429
    116  CG        19.2670    5.9060   24.6540 C.3   643  GLU643      0.1163
    117  CD        19.3650    5.2370   26.0140 C.2   643  GLU643      0.3649
    118  OE1       18.3130    5.0380   26.6520 O.co2 643  GLU643     -0.2457
    119  OE2       20.4870    4.9050   26.4530 O.co2 643  GLU643     -0.2457
    120  N         18.8960    8.3400   22.3340 N.am  644  ILE644     -0.1963
    121  CA        18.2440    9.6110   22.6320 C.3   644  ILE644      0.1727
    122  C         17.5590    9.5250   23.9900 C.2   644  ILE644      0.2616
    123  O         16.6390    8.7270   24.1770 O.2   644  ILE644     -0.2715
    124  CB        17.1930    9.9790   21.5630 C.3   644  ILE644      0.0290
    125  CG1       17.8680   10.2360   20.2100 C.3   644  ILE644      0.0022
    126  CG2       16.3530   11.1880   22.0150 C.3   644  ILE644      0.0023
    127  CD1       16.8980   10.5430   19.0800 C.3   644  ILE644      0.0001
    128  N         18.0100   10.3360   24.9400 N.am  645  VAL645     -0.1963
    129  CA        17.3740   10.3890   26.2520 C.3   645  VAL645      0.1727
    130  C         16.1460   11.2870   26.1580 C.2   645  VAL645      0.2616
    131  O         16.2670   12.4790   25.9060 O.2   645  VAL645     -0.2715
    132  CB        18.3430   10.8950   27.3470 C.3   645  VAL645      0.0290
    133  CG1       17.6130   11.1130   28.6720 C.3   645  VAL645      0.0023
    134  CG2       19.4940    9.9160   27.5220 C.3   645  VAL645      0.0023
    135  N         14.9700   10.7030   26.3600 N.am  646  LYS646     -0.1963
    136  CA        13.7050   11.4060   26.1720 C.3   646  LYS646      0.1728
    137  C         13.5350   12.6080   27.1160 C.2   646  LYS646      0.2616
    138  O         14.0020   12.5790   28.2620 O.2   646  LYS646     -0.2715
    139  CB        12.5260   10.4350   26.3230 C.3   646  LYS646      0.0311
    140  CG        12.5130    9.2800   25.3260 C.3   646  LYS646      0.0038
    141  CD        11.8960    9.6830   23.9890 C.3   646  LYS646      0.0206
    142  CE        12.2340    8.6630   22.8950 C.3   646  LYS646      0.1093
    143  NZ        11.6420    9.0260   21.5630 N.3   646  LYS646     -0.1314
    144  N         12.8750   13.6560   26.6020 N.am  647  ASP647     -0.1957
    145  CA        12.5040   14.8700   27.3560 C.3   647  ASP647      0.1840
    146  C         13.7050   15.6600   27.8750 C.2   647  ASP647      0.2621
    147  O         13.6940   16.1430   29.0120 O.2   647  ASP647     -0.2715
    148  CB        11.5510   14.5420   28.5210 C.3   647  ASP647      0.1450
    149  CG        10.3220   13.7620   28.0820 C.2   647  ASP647      0.3671
    150  OD1        9.2320   14.3680   28.0330 O.co2 647  ASP647     -0.2456
    151  OD2       10.4410   12.5490   27.7920 O.co2 647  ASP647     -0.2456
    152  N         14.7300   15.7960   27.0370 N.am  648  ALA648     -0.1977
    153  CA        15.9720   16.4480   27.4430 C.3   648  ALA648      0.1597
    154  C         16.4340   17.5240   26.4710 C.2   648  ALA648      0.2287
    155  O         16.3540   17.3590   25.2580 O.2   648  ALA648     -0.2864
    156  CB        17.0730   15.4120   27.6410 C.3   648  ALA648      0.0319
    157  N         19.7360   20.6990   26.0310 N.3   650  THR650     -0.1218
    158  CA        21.0350   21.1860   26.5080 C.3   650  THR650      0.1862
    159  C         20.8520   22.4300   27.3650 C.2   650  THR650      0.2287
    160  O         19.8170   23.0940   27.2870 O.2   650  THR650     -0.2866
    161  CB        22.0170   21.5050   25.3480 C.3   650  THR650      0.1770
    162  OG1       21.5640   22.6570   24.6300 O.3   650  THR650     -0.2211
    163  CG2       22.1610   20.3140   24.3870 C.3   650  THR650      0.0375
    164  N         20.7970   25.9660   25.2570 N.3   653  LYS653     -0.1245
    165  CA        19.5410   26.2560   24.5670 C.3   653  LYS653      0.1561
    166  C         18.4650   26.7460   25.5330 C.2   653  LYS653      0.2260
    167  O         17.5550   27.4780   25.1360 O.2   653  LYS653     -0.2867
    168  CB        19.0690   25.0600   23.7320 C.3   653  LYS653      0.0271
    169  CG        19.9680   24.7890   22.5220 C.3   653  LYS653      0.0035
    170  CD        19.3360   23.8480   21.4950 C.3   653  LYS653      0.0206
    171  CE        20.1000   23.9230   20.1660 C.3   653  LYS653      0.1093
    172  NZ        19.3320   23.4080   18.9920 N.3   653  LYS653     -0.1314
    173  N         26.7600   23.5670   26.1190 N.3   711  ASP711     -0.1239
    174  CA        25.8050   22.8780   25.2530 C.3   711  ASP711      0.1674
    175  C         26.2010   21.4120   25.1280 C.2   711  ASP711      0.2266
    176  O         25.6800   20.6800   24.2830 O.2   711  ASP711     -0.2867
    177  CB        25.6450   23.5520   23.8800 C.3   711  ASP711      0.1410
    178  CG        26.9480   23.6640   23.1180 C.2   711  ASP711      0.3668
    179  OD1       27.8410   24.4270   23.5600 O.co2 711  ASP711     -0.2456
    180  OD2       27.0620   23.0020   22.0610 O.co2 711  ASP711     -0.2456
    181  N         23.4220   18.3780   29.4820 N.3   714  MET714     -0.1245
    182  CA        21.9970   18.2870   29.2320 C.3   714  MET714      0.1570
    183  C         21.2510   18.0720   30.5350 C.2   714  MET714      0.2261
    184  O         21.8500   17.7130   31.5520 O.2   714  MET714     -0.2867
    185  CB        21.6850   17.1530   28.2550 C.3   714  MET714      0.0387
    186  CG        22.2040   17.3690   26.8540 C.3   714  MET714      0.0595
    187  SD        21.4180   16.2720   25.6560 S.3   714  MET714     -0.1393
    188  CE        20.0130   17.2370   25.1490 C.3   714  MET714      0.0692
    189  N         23.1960   15.6520   32.9540 N.3   722  PHE722     -0.1241
    190  CA        24.1620   14.7030   32.3920 C.3   722  PHE722      0.1605
    191  C         24.9720   15.2860   31.2530 C.2   722  PHE722      0.2264
    192  O         24.4330   15.9670   30.3950 O.2   722  PHE722     -0.2867
    193  CB        23.4800   13.4080   31.9300 C.3   722  PHE722      0.0534
    194  CG        22.4800   13.5960   30.8180 C.ar  722  PHE722     -0.0203
    195  CD1       22.7930   13.2130   29.5160 C.ar  722  PHE722     -0.0042
    196  CD2       21.2120   14.1310   31.0750 C.ar  722  PHE722     -0.0042
    197  CE1       21.8650   13.3660   28.4830 C.ar  722  PHE722     -0.0003
    198  CE2       20.2800   14.2900   30.0470 C.ar  722  PHE722     -0.0003
    199  CZ        20.6100   13.9030   28.7470 C.ar  722  PHE722     -0.0000
    200  N         27.3460   15.0690   27.7780 N.3   724  ILE724     -0.1231
    201  CA        27.3600   14.3140   26.5260 C.3   724  ILE724      0.1692
    202  C         28.6560   14.5790   25.7780 C.2   724  ILE724      0.2592
    203  O         29.5100   15.3060   26.2590 O.2   724  ILE724     -0.2718
    204  CB        26.1440   14.6380   25.5930 C.3   724  ILE724      0.0266
    205  CG1       25.9980   16.1570   25.3570 C.3   724  ILE724      0.0019
    206  CG2       24.8640   14.0090   26.1310 C.3   724  ILE724      0.0020
    207  CD1       25.2050   16.5320   24.1100 C.3   724  ILE724      0.0001
    208  N         28.7900   13.9530   24.6140 N.am  725  ASP725     -0.1960
    209  CA        29.8610   14.2140   23.6480 C.3   725  ASP725      0.1840
    210  C         31.2810   14.2910   24.2130 C.2   725  ASP725      0.2622
    211  O         31.8380   15.3720   24.3610 O.2   725  ASP725     -0.2715
    212  CB        29.5350   15.4490   22.8010 C.3   725  ASP725      0.1450
    213  CG        30.1510   15.3790   21.4160 C.2   725  ASP725      0.3671
    214  OD1       31.2200   14.7370   21.2800 O.co2 725  ASP725     -0.2456
    215  OD2       29.5710   15.9610   20.4670 O.co2 725  ASP725     -0.2456
    216  N         31.8720   13.1350   24.4840 N.am  726  PHE726     -0.1974
    217  CA        33.1920   13.0790   25.0880 C.3   726  PHE726      0.1639
    218  C         34.3280   12.9410   24.0640 C.2   726  PHE726      0.2290
    219  O         35.3410   12.3020   24.3320 O.2   726  PHE726     -0.2864
    220  CB        33.2370   11.9530   26.1210 C.3   726  PHE726      0.0560
    221  CG        32.2010   12.0860   27.2120 C.ar  726  PHE726     -0.0200
    222  CD1       31.0140   11.3650   27.1540 C.ar  726  PHE726     -0.0042
    223  CD2       32.4150   12.9280   28.2950 C.ar  726  PHE726     -0.0042
    224  CE1       30.0640   11.4870   28.1460 C.ar  726  PHE726     -0.0003
    225  CE2       31.4690   13.0470   29.2930 C.ar  726  PHE726     -0.0003
    226  CZ        30.2930   12.3310   29.2150 C.ar  726  PHE726     -0.0000
@<TRIPOS>BOND
     1    12    11    2
     2     4     3    2
     3    15    16    1
     4    15    21    1
     5     1     2    1
     6    18    17    2
     7    17    16    1
     8    16    19    1
     9     3     2    1
    10    11    10    1
    11    46    47    2
    12    46    45    1
    13     2     5    1
    14    21    20    1
    15    22    23    1
    16    45    44    1
    17    45    48    1
    18    25    24    2
    19     9    10    1
    20    19    20    1
    21    24    23    1
    22    10    13    1
    23     5     6    1
    24    23    26    1
    25    14    13    1
    26    49    48    1
    27    49    50    1
    28    53    54    1
    29    26    27    1
    30     6     7    1
    31    56    55    2
    32    38    39    2
    33    38    37    1
    34    51    50    1
    35    51    52    1
    36    54    55    1
    37    54    57    1
    38    27    28   ar
    39    27    29   ar
    40     7     8    1
    41    28    30   ar
    42    37    36    1
    43    37    40    1
    44    42    40    1
    45    57    58    1
    46    58    59   ar
    47    58    60   ar
    48    30    31   ar
    49    29    32   ar
    50    29    31   ar
    51    67    66    1
    52    40    41    1
    53    32    34   ar
    54    41    43    1
    55    66    65    1
    56    66    68    1
    57    31    33   ar
    58    61    62    1
    59   110   108    1
    60   172   171    1
    61   103   104    1
    62    65    62    1
    63   127   125    1
    64    34    35   ar
    65    62    63    1
    66    33    35   ar
    67   106   105    2
    68   171   170    1
    69   108   107    1
    70   125   124    1
    71   104   107    1
    72   104   105    1
    73    63    64    2
    74   215   213   ar
    75   107   109    1
    76   105   111   am
    77   214   213   ar
    78   213   212    1
    79   170   169    1
    80   143   142    1
    81   124   126    1
    82   124   121    1
    83   111   112    1
    84   180   178   ar
    85    99    98    1
    86    99   100    2
    87   102   101    1
    88   120   121    1
    89   120   113   am
    90    75    74   ar
    91   169   168    1
    92   112   113    1
    93   112   115    1
    94   121   122    1
    95    98   101    1
    96    98    97    1
    97   113   114    2
    98   212   209    1
    99   142   141    1
   100    74    76   ar
   101    74    73    1
   102   178   179   ar
   103   178   177    1
   104    73    70    1
   105    69    70    1
   106   209   210    1
   107   209   208    1
   108   168   165    1
   109   177   174    1
   110   115   116    1
   111   141   140    1
   112   122   123    2
   113   122   128   am
   114   218   219    2
   115   218   217    1
   116   207   205    1
   117   210   211    2
   118   210   216   am
   119   176   175    2
   120    70    71    1
   121   163   161    1
   122   216   217    1
   123   165   164    1
   124   165   166    1
   125   208   202   am
   126   162   161    1
   127   116   117    1
   128   128   129    1
   129    71    72    2
   130   217   220    1
   131   175   174    1
   132   167   166    2
   133   188   187    1
   134    93    91   ar
   135    93    95   ar
   136   174   173    1
   137   155   154    2
   138   140   139    1
   139   161   158    1
   140   205   204    1
   141    91    90   ar
   142   204   206    1
   143   204   201    1
   144   187   186    1
   145    96    95    1
   146   202   203    2
   147   202   201    1
   148   131   130    2
   149   117   119   ar
   150   117   118   ar
   151   157   158    1
   152    95    94   ar
   153   220   221    1
   154   130   129    1
   155   130   135   am
   156   136   139    1
   157   136   135    1
   158   136   137    1
   159    83    82    1
   160   129   132    1
   161   154   153    1
   162   158   159    1
   163   201   200    1
   164   144   137   am
   165   144   145    1
   166    90    89    1
   167    90    92   ar
   168   186   185    1
   169    88    87    2
   170    87    86    1
   171   152   153    1
   172   152   146   am
   173    89    86    1
   174   137   138    2
   175   222   221   ar
   176   222   224   ar
   177   221   223   ar
   178    94    92   ar
   179   160   159    2
   180   132   134    1
   181   132   133    1
   182   145   146    1
   183   145   148    1
   184   153   156    1
   185    82    81    1
   186    82    84    1
   187   151   149   ar
   188   146   147    2
   189    86    85    1
   190   150   149   ar
   191   149   148    1
   192   224   226   ar
   193   185   182    1
   194   223   225   ar
   195    81    78    1
   196   197   199   ar
   197   197   195   ar
   198   199   198   ar
   199    77    78    1
   200   226   225   ar
   201   182   181    1
   202   182   183    1
   203    78    79    1
   204   195   194   ar
   205   198   196   ar
   206    79    80    2
   207   192   191    2
   208   183   184    2
   209   194   196   ar
   210   194   193    1
   211   191   190    1
   212   193   190    1
   213   190   189    1
