@<TRIPOS>MOLECULE
tmp/3qarA00.pdb
 177 164 0 0 0
SMALL
GASTEIGER

@<TRIPOS>ATOM
      1  N         19.2230   17.3380   12.3610 N.3   557  MET557     -0.1245
      2  CA        19.4080   18.2910   13.4670 C.3   557  MET557      0.1570
      3  C         20.2190   19.5210   13.0840 C.2   557  MET557      0.2261
      4  O         21.0880   19.4570   12.2130 O.2   557  MET557     -0.2867
      5  CB        20.0590   17.6170   14.6740 C.3   557  MET557      0.0387
      6  CG        19.1870   16.5760   15.3470 C.3   557  MET557      0.0595
      7  SD        20.0540   15.6740   16.6490 S.3   557  MET557     -0.1393
      8  CE        19.6530   14.0190   16.1240 C.3   557  MET557      0.0692
      9  N         22.9020   21.0760   13.5800 N.3   559  SER559     -0.1217
     10  CA        24.3020   20.9680   13.9900 C.3   559  SER559      0.1889
     11  C         25.1520   20.7100   12.7500 C.2   559  SER559      0.2288
     12  O         24.7030   20.0400   11.8240 O.2   559  SER559     -0.2866
     13  CB        24.4780   19.8400   15.0060 C.3   559  SER559      0.2089
     14  OG        25.8350   19.4360   15.1050 O.3   559  SER559     -0.2183
     15  N         17.7930   12.3000   13.4340 N.3   565  TRP565     -0.1241
     16  CA        16.9230   12.0550   14.5730 C.3   565  TRP565      0.1605
     17  C         15.8460   11.0840   14.1090 C.2   565  TRP565      0.2264
     18  O         14.8350   11.4920   13.5350 O.2   565  TRP565     -0.2867
     19  CB        16.3210   13.3710   15.0620 C.3   565  TRP565      0.0550
     20  CG        15.3490   13.2710   16.2100 C.ar  565  TRP565      0.0003
     21  CD1       14.0690   12.7910   16.1670 C.ar  565  TRP565      0.0946
     22  CD2       15.5630   13.7150   17.5570 C.ar  565  TRP565      0.0152
     23  NE1       13.4810   12.8870   17.4060 N.ar  565  TRP565     -0.2442
     24  CE2       14.3730   13.4510   18.2790 C.ar  565  TRP565      0.0810
     25  CE3       16.6440   14.3050   18.2270 C.ar  565  TRP565      0.0012
     26  CZ2       14.2370   13.7500   19.6390 C.ar  565  TRP565      0.0191
     27  CZ3       16.5070   14.6020   19.5790 C.ar  565  TRP565      0.0001
     28  CH2       15.3110   14.3230   20.2700 C.ar  565  TRP565      0.0015
     29  N         19.6330    8.5400   17.5970 N.3   584  ILE584     -0.1245
     30  CA        20.4010    9.4700   16.7700 C.3   584  ILE584      0.1561
     31  C         21.4410    8.6920   15.9490 C.2   584  ILE584      0.2260
     32  O         22.2160    7.9100   16.5050 O.2   584  ILE584     -0.2867
     33  CB        21.1120   10.5710   17.6120 C.3   584  ILE584      0.0252
     34  CG1       20.0920   11.5280   18.2440 C.3   584  ILE584      0.0019
     35  CG2       22.1230   11.3460   16.7560 C.3   584  ILE584      0.0019
     36  CD1       20.6850   12.5460   19.2350 C.3   584  ILE584      0.0001
     37  N         24.7420    9.3930   13.6590 N.3   586  LYS586     -0.1245
     38  CA        25.6760   10.5130   13.5250 C.3   586  LYS586      0.1561
     39  C         27.0410   10.1330   12.9530 C.2   586  LYS586      0.2260
     40  O         27.6000    9.0910   13.2970 O.2   586  LYS586     -0.2867
     41  CB        25.8630   11.1950   14.8850 C.3   586  LYS586      0.0271
     42  CG        26.6230   12.5090   14.8320 C.3   586  LYS586      0.0035
     43  CD        26.6130   13.2150   16.1750 C.3   586  LYS586      0.0206
     44  CE        27.0410   14.6780   16.0280 C.3   586  LYS586      0.1093
     45  NZ        27.0510   15.4030   17.3400 N.3   586  LYS586     -0.1314
     46  N         31.5430   12.3820   15.2000 N.3   589  ASP589     -0.1239
     47  CA        31.9880   12.1280   16.5690 C.3   589  ASP589      0.1674
     48  C         32.6700   10.7610   16.6480 C.2   589  ASP589      0.2266
     49  O         32.2340    9.8010   16.0070 O.2   589  ASP589     -0.2867
     50  CB        30.8030   12.1650   17.5430 C.3   589  ASP589      0.1410
     51  CG        30.1510   13.5480   17.6430 C.2   589  ASP589      0.3668
     52  OD1       30.7080   14.5330   17.1090 O.co2 589  ASP589     -0.2456
     53  OD2       29.0740   13.6450   18.2740 O.co2 589  ASP589     -0.2456
     54  N         32.5140    8.0370   18.5810 N.3   591  LEU591     -0.1245
     55  CA        31.6320    7.4510   19.5870 C.3   591  LEU591      0.1561
     56  C         32.2590    6.2580   20.3220 C.2   591  LEU591      0.2260
     57  O         31.6540    5.7230   21.2490 O.2   591  LEU591     -0.2867
     58  CB        30.2710    7.0860   18.9840 C.3   591  LEU591      0.0270
     59  CG        29.4440    8.1990   18.3360 C.3   591  LEU591      0.0019
     60  CD1       28.2980    7.6130   17.5580 C.3   591  LEU591      0.0001
     61  CD2       28.9160    9.2090   19.3530 C.3   591  LEU591      0.0001
     62  N         32.8930    7.8540   23.4820 N.3   594  ASP594     -0.1239
     63  CA        31.6480    7.9140   24.2460 C.3   594  ASP594      0.1674
     64  C         31.3500    6.5890   24.9310 C.2   594  ASP594      0.2266
     65  O         30.9220    6.5830   26.0850 O.2   594  ASP594     -0.2867
     66  CB        30.4650    8.3310   23.3750 C.3   594  ASP594      0.1410
     67  CG        30.5640    9.7670   22.9070 C.2   594  ASP594      0.3668
     68  OD1       31.4250   10.0510   22.0520 O.co2 594  ASP594     -0.2456
     69  OD2       29.7680   10.6010   23.3810 O.co2 594  ASP594     -0.2456
     70  N         23.2610    6.9820   28.7310 N.3   620  TYR620     -0.1241
     71  CA        22.4990    6.5920   27.5510 C.3   620  TYR620      0.1605
     72  C         23.2400    5.5430   26.7210 C.2   620  TYR620      0.2264
     73  O         24.4710    5.5030   26.7220 O.2   620  TYR620     -0.2867
     74  CB        22.2210    7.8340   26.7020 C.3   620  TYR620      0.0534
     75  CG        23.4810    8.5880   26.3080 C.ar  620  TYR620     -0.0201
     76  CD1       24.1520    8.2840   25.1260 C.ar  620  TYR620     -0.0009
     77  CD2       24.0040    9.5980   27.1200 C.ar  620  TYR620     -0.0009
     78  CE1       25.3070    8.9610   24.7610 C.ar  620  TYR620      0.0417
     79  CE2       25.1600   10.2890   26.7550 C.ar  620  TYR620      0.0417
     80  CZ        25.8040    9.9600   25.5760 C.ar  620  TYR620      0.1957
     81  OH        26.9500   10.6150   25.1940 O.3   620  TYR620     -0.2866
     82  N         23.1540    6.7260   18.8640 N.3   632  ILE632     -0.1231
     83  CA        22.9880    7.2830   20.2070 C.3   632  ILE632      0.1692
     84  C         21.5330    7.1310   20.6690 C.2   632  ILE632      0.2592
     85  O         20.6170    7.5930   19.9910 O.2   632  ILE632     -0.2718
     86  CB        23.3860    8.7750   20.2390 C.3   632  ILE632      0.0266
     87  CG1       24.8310    8.9610   19.7640 C.3   632  ILE632      0.0019
     88  CG2       23.1910    9.3680   21.6360 C.3   632  ILE632      0.0020
     89  CD1       25.0860   10.2930   19.0750 C.3   632  ILE632      0.0001
     90  N         21.3150    6.4790   21.8070 N.am  633  GLU633     -0.1966
     91  CA        19.9700    6.4220   22.3840 C.3   633  GLU633      0.1733
     92  C         19.4810    7.8380   22.6700 C.2   633  GLU633      0.2616
     93  O         20.1630    8.5980   23.3660 O.2   633  GLU633     -0.2715
     94  CB        19.9570    5.6060   23.6860 C.3   633  GLU633      0.0429
     95  CG        18.6710    5.7500   24.5040 C.3   633  GLU633      0.1163
     96  CD        18.7170    5.0400   25.8530 C.2   633  GLU633      0.3649
     97  OE1       17.6500    4.9380   26.4970 O.co2 633  GLU633     -0.2457
     98  OE2       19.8000    4.5850   26.2850 O.co2 633  GLU633     -0.2457
     99  N         18.3190    8.1910   22.1220 N.am  634  ILE634     -0.1963
    100  CA        17.6650    9.4400   22.4810 C.3   634  ILE634      0.1727
    101  C         17.0140    9.3120   23.8590 C.2   634  ILE634      0.2616
    102  O         16.1180    8.4910   24.0520 O.2   634  ILE634     -0.2715
    103  CB        16.5960    9.8740   21.4450 C.3   634  ILE634      0.0290
    104  CG1       17.2500   10.1800   20.0880 C.3   634  ILE634      0.0022
    105  CG2       15.7910   11.0860   21.9700 C.3   634  ILE634      0.0023
    106  CD1       16.2640   10.4800   18.9690 C.3   634  ILE634      0.0001
    107  N         17.4790   10.1150   24.8120 N.am  635  VAL635     -0.1977
    108  CA        16.7880   10.2640   26.0870 C.3   635  VAL635      0.1596
    109  C         15.5760   11.1650   25.8580 C.2   635  VAL635      0.2287
    110  O         15.7130   12.3130   25.4320 O.2   635  VAL635     -0.2864
    111  CB        17.7230   10.8260   27.1860 C.3   635  VAL635      0.0276
    112  CG1       16.9350   11.2680   28.4140 C.3   635  VAL635      0.0022
    113  CG2       18.7870    9.7860   27.5690 C.3   635  VAL635      0.0022
    114  N         13.9510   15.6310   26.7270 N.3   638  ALA638     -0.1245
    115  CA        15.1920   16.2720   27.1620 C.3   638  ALA638      0.1562
    116  C         15.6680   17.3850   26.2420 C.2   638  ALA638      0.2260
    117  O         15.4450   17.3450   25.0400 O.2   638  ALA638     -0.2867
    118  CB        16.2890   15.2320   27.3500 C.3   638  ALA638      0.0290
    119  N         18.9990   20.7010   25.9510 N.3   640  THR640     -0.1218
    120  CA        20.2980   21.1730   26.4380 C.3   640  THR640      0.1862
    121  C         20.1620   22.4610   27.2340 C.2   640  THR640      0.2287
    122  O         19.2860   23.2900   26.9430 O.2   640  THR640     -0.2866
    123  CB        21.2970   21.4100   25.2890 C.3   640  THR640      0.1770
    124  OG1       20.8950   22.5510   24.5240 O.3   640  THR640     -0.2211
    125  CG2       21.3940   20.1850   24.3760 C.3   640  THR640      0.0375
    126  N         20.0880   25.7600   25.1860 N.3   643  LYS643     -0.1245
    127  CA        18.8410   26.0590   24.4810 C.3   643  LYS643      0.1561
    128  C         17.7610   26.6080   25.4190 C.2   643  LYS643      0.2260
    129  O         16.9020   27.3870   24.9970 O.2   643  LYS643     -0.2867
    130  CB        18.3410   24.8330   23.7150 C.3   643  LYS643      0.0271
    131  CG        19.2100   24.4690   22.5140 C.3   643  LYS643      0.0035
    132  CD        18.8490   23.1000   21.9370 C.3   643  LYS643      0.0206
    133  CE        19.7700   22.7270   20.7830 C.3   643  LYS643      0.1093
    134  NZ        19.4530   21.3820   20.2210 N.3   643  LYS643     -0.1314
    135  N         25.6990   23.3560   26.0950 N.3   703  ASP703     -0.1239
    136  CA        24.8320   22.6290   25.1560 C.3   703  ASP703      0.1674
    137  C         25.3660   21.2220   24.9090 C.2   703  ASP703      0.2266
    138  O         24.8860   20.5030   24.0290 O.2   703  ASP703     -0.2867
    139  CB        24.4880   23.4170   23.8660 C.3   703  ASP703      0.1410
    140  CG        25.5350   23.2950   22.7740 C.2   703  ASP703      0.3668
    141  OD1       26.7510   23.2810   23.0760 O.co2 703  ASP703     -0.2456
    142  OD2       25.1200   23.2370   21.5930 O.co2 703  ASP703     -0.2456
    143  N         22.6670   18.2710   29.2430 N.3   706  MET706     -0.1245
    144  CA        21.2240   18.2150   29.0100 C.3   706  MET706      0.1570
    145  C         20.4480   17.9840   30.3040 C.2   706  MET706      0.2261
    146  O         21.0160   17.5140   31.2950 O.2   706  MET706     -0.2867
    147  CB        20.8750   17.1060   28.0100 C.3   706  MET706      0.0387
    148  CG        21.5310   17.2270   26.6480 C.3   706  MET706      0.0595
    149  SD        20.7770   16.1430   25.4100 S.3   706  MET706     -0.1393
    150  CE        19.3340   17.0890   24.9390 C.3   706  MET706      0.0692
    151  N         22.2840   15.4740   32.6240 N.3   714  PHE714     -0.1241
    152  CA        23.2500   14.5130   32.1050 C.3   714  PHE714      0.1605
    153  C         24.1070   15.0890   30.9950 C.2   714  PHE714      0.2264
    154  O         23.5980   15.7370   30.0800 O.2   714  PHE714     -0.2867
    155  CB        22.5520   13.2280   31.6340 C.3   714  PHE714      0.0534
    156  CG        21.5740   13.4260   30.5070 C.ar  714  PHE714     -0.0203
    157  CD1       21.8990   13.0300   29.2190 C.ar  714  PHE714     -0.0042
    158  CD2       20.3190   13.9790   30.7390 C.ar  714  PHE714     -0.0042
    159  CE1       20.9980   13.1940   28.1750 C.ar  714  PHE714     -0.0003
    160  CE2       19.4170   14.1540   29.7030 C.ar  714  PHE714     -0.0003
    161  CZ        19.7570   13.7550   28.4170 C.ar  714  PHE714     -0.0000
    162  N         26.5390   14.8670   27.6580 N.3   716  ILE716     -0.1231
    163  CA        26.5140   14.1270   26.3930 C.3   716  ILE716      0.1692
    164  C         27.8040   14.4030   25.6170 C.2   716  ILE716      0.2592
    165  O         28.6280   15.2020   26.0580 O.2   716  ILE716     -0.2718
    166  CB        25.2980   14.5260   25.5040 C.3   716  ILE716      0.0266
    167  CG1       25.3390   16.0210   25.1700 C.3   716  ILE716      0.0019
    168  CG2       23.9860   14.1480   26.1680 C.3   716  ILE716      0.0020
    169  CD1       24.6070   16.3970   23.9100 C.3   716  ILE716      0.0001
    170  N         27.9650   13.7250   24.4780 N.am  717  ASP717     -0.1974
    171  CA        29.0320   13.9960   23.4960 C.3   717  ASP717      0.1709
    172  C         30.4350   14.0980   24.0840 C.2   717  ASP717      0.2293
    173  O         31.0090   15.1840   24.1460 O.2   717  ASP717     -0.2864
    174  CB        28.7080   15.2520   22.6740 C.3   717  ASP717      0.1436
    175  CG        29.4740   15.3090   21.3580 C.2   717  ASP717      0.3671
    176  OD1       30.6690   14.9380   21.3250 O.co2 717  ASP717     -0.2456
    177  OD2       28.8810   15.7470   20.3500 O.co2 717  ASP717     -0.2456
@<TRIPOS>BOND
     1    12    11    2
     2     4     3    2
     3     1     2    1
     4    11    10    1
     5    39    40    2
     6    39    38    1
     7     3     2    1
     8    15    16    1
     9     2     5    1
    10    38    37    1
    11    38    41    1
    12    18    17    2
    13     9    10    1
    14    10    13    1
    15    17    16    1
    16    16    19    1
    17     5     6    1
    18    42    41    1
    19    42    43    1
    20    13    14    1
    21    19    20    1
    22    46    47    1
    23     6     7    1
    24    31    32    2
    25    31    30    1
    26    49    48    2
    27    44    43    1
    28    44    45    1
    29     8     7    1
    30    21    20   ar
    31    21    23   ar
    32    20    22   ar
    33    47    48    1
    34    47    50    1
    35    35    33    1
    36    30    29    1
    37    30    33    1
    38    52    51   ar
    39    23    24   ar
    40    50    51    1
    41    22    25   ar
    42    22    24   ar
    43    60    59    1
    44    33    34    1
    45    51    53   ar
    46    25    27   ar
    47    34    36    1
    48    24    26   ar
    49    59    58    1
    50    59    61    1
    51    54    55    1
    52    82    83    1
    53   106   104    1
    54    58    55    1
    55    89    87    1
    56    27    28   ar
    57    55    56    1
    58    26    28   ar
    59    87    86    1
    60    85    84    2
    61   104   103    1
    62    83    86    1
    63    83    84    1
    64   134   133    1
    65    86    88    1
    66    56    57    2
    67   177   175   ar
    68    84    90   am
    69   133   132    1
    70   176   175   ar
    71   175   174    1
    72   103   105    1
    73   103   100    1
    74   142   140   ar
    75    90    91    1
    76   132   131    1
    77    68    67   ar
    78    99   100    1
    79    99    92   am
    80    91    92    1
    81    91    94    1
    82   100   101    1
    83   131   130    1
    84    92    93    2
    85   174   171    1
    86   140   141   ar
    87   140   139    1
    88    67    66    1
    89    67    69   ar
    90    66    63    1
    91    62    63    1
    92   171   172    1
    93   171   170    1
    94    94    95    1
    95   130   127    1
    96   101   102    2
    97   101   107   am
    98   139   136    1
    99   169   167    1
   100   138   137    2
   101   172   173    2
   102    63    64    1
   103   125   123    1
   104   170   164   am
   105   127   126    1
   106   127   128    1
   107    95    96    1
   108   124   123    1
   109    78    76   ar
   110    78    80   ar
   111   107   108    1
   112   137   136    1
   113    64    65    2
   114   150   149    1
   115   129   128    2
   116   117   116    2
   117    76    75   ar
   118   136   135    1
   119   167   166    1
   120    81    80    1
   121   123   120    1
   122   149   148    1
   123   110   109    2
   124   166   168    1
   125   166   163    1
   126    80    79   ar
   127   164   165    2
   128   164   163    1
   129    96    98   ar
   130    96    97   ar
   131   109   108    1
   132   119   120    1
   133   108   111    1
   134   116   115    1
   135    75    74    1
   136    75    77   ar
   137   163   162    1
   138   120   121    1
   139   148   147    1
   140    74    71    1
   141    72    73    2
   142    72    71    1
   143   114   115    1
   144    79    77   ar
   145   122   121    2
   146   115   118    1
   147   111   113    1
   148   111   112    1
   149    71    70    1
   150   147   144    1
   151   159   161   ar
   152   159   157   ar
   153   161   160   ar
   154   144   143    1
   155   144   145    1
   156   157   156   ar
   157   160   158   ar
   158   154   153    2
   159   145   146    2
   160   156   158   ar
   161   156   155    1
   162   153   152    1
   163   155   152    1
   164   152   151    1
