@<TRIPOS>MOLECULE
tmp/3qaxB00.pdb
 132 124 0 0 0
SMALL
GASTEIGER

@<TRIPOS>ATOM
      1  N         20.3080    1.3170   55.3700 N.3    11  ASN11      -0.1240
      2  CA        19.6240    0.0630   55.7400 C.3    11  ASN11       0.1653
      3  C         20.4050   -1.0380   55.0310 C.2    11  ASN11       0.2266
      4  O         20.1580   -1.3060   53.8280 O.2    11  ASN11      -0.2867
      5  CB        18.1430    0.1060   55.2670 C.3    11  ASN11       0.1155
      6  CG        17.3830   -1.1690   55.6360 C.2    11  ASN11       0.2627
      7  OD1       17.1380   -1.3940   56.8300 O.2    11  ASN11      -0.2716
      8  ND2       17.0450   -2.0220   54.6420 N.am   11  ASN11      -0.0877
      9  N         21.0010   -4.0090   53.8780 N.3    13  THR13      -0.1203
     10  CA        20.2490   -5.2790   53.6030 C.3    13  THR13       0.1994
     11  C         20.1640   -5.4890   52.0740 C.2    13  THR13       0.2617
     12  O         19.3280   -6.2620   51.5730 O.2    13  THR13      -0.2717
     13  CB        18.7830   -5.1930   54.1130 C.3    13  THR13       0.1784
     14  OG1       18.1170   -4.1260   53.4190 O.3    13  THR13      -0.2211
     15  CG2       18.7090   -4.8780   55.6290 C.3    13  THR13       0.0376
     16  N         21.0700   -4.8080   51.3470 N.am   14  TYR14      -0.1975
     17  CA        20.8160   -4.3290   50.0180 C.3    14  TYR14       0.1639
     18  C         22.1480   -4.2860   49.1800 C.2    14  TYR14       0.2290
     19  O         22.6250   -3.1900   48.7930 O.2    14  TYR14      -0.2864
     20  CB        20.1700   -2.9260   50.1600 C.3    14  TYR14       0.0560
     21  CG        19.4620   -2.4580   48.9040 C.ar   14  TYR14      -0.0198
     22  CD1       18.3050   -3.1070   48.4540 C.ar   14  TYR14      -0.0009
     23  CD2       19.9480   -1.3780   48.1770 C.ar   14  TYR14      -0.0009
     24  CE1       17.6480   -2.6860   47.2440 C.ar   14  TYR14       0.0417
     25  CE2       19.3270   -0.9770   46.9630 C.ar   14  TYR14       0.0417
     26  CZ        18.1990   -1.6160   46.5270 C.ar   14  TYR14       0.1957
     27  OH        17.5870   -1.1670   45.3720 O.3    14  TYR14      -0.2866
     28  N         24.7460   -1.3560   50.1000 N.3    18  GLU18      -0.1245
     29  CA        25.1950   -1.4250   51.4960 C.3    18  GLU18       0.1567
     30  C         24.7740   -2.7860   52.0450 C.2    18  GLU18       0.2260
     31  O         23.6520   -3.2610   51.8310 O.2    18  GLU18      -0.2867
     32  CB        24.5970   -0.3310   52.3720 C.3    18  GLU18       0.0388
     33  CG        23.0830   -0.1980   52.0870 C.3    18  GLU18       0.1160
     34  CD        22.7640    0.8340   51.0400 C.2    18  GLU18       0.3649
     35  OE1       21.6520    0.7570   50.4820 O.co2  18  GLU18      -0.2457
     36  OE2       23.6010    1.7660   50.7960 O.co2  18  GLU18      -0.2457
     37  N         14.3720    0.8370   56.5520 N.3    52  PHE52      -0.1241
     38  CA        14.4080    1.6370   55.3590 C.3    52  PHE52       0.1605
     39  C         13.2660    2.6640   55.3420 C.2    52  PHE52       0.2264
     40  O         13.5330    3.8240   55.0680 O.2    52  PHE52      -0.2867
     41  CB        14.3520    0.7670   54.1190 C.3    52  PHE52       0.0534
     42  CG        14.3530    1.5380   52.8260 C.ar   52  PHE52      -0.0203
     43  CD1       15.5590    2.0670   52.3130 C.ar   52  PHE52      -0.0042
     44  CD2       13.1890    1.6670   52.0690 C.ar   52  PHE52      -0.0042
     45  CE1       15.5740    2.7450   51.0910 C.ar   52  PHE52      -0.0003
     46  CE2       13.2110    2.3700   50.8530 C.ar   52  PHE52      -0.0003
     47  CZ        14.4030    2.9040   50.3710 C.ar   52  PHE52      -0.0000
     48  N         21.1420    4.9330   50.5740 N.3    69  ALA69      -0.1231
     49  CA        20.4680    3.6390   50.7320 C.3    69  ALA69       0.1694
     50  C         19.9490    3.1270   49.4120 C.2    69  ALA69       0.2592
     51  O         18.9550    2.4230   49.3630 O.2    69  ALA69      -0.2718
     52  CB        19.3230    3.7100   51.7780 C.3    69  ALA69       0.0304
     53  N         20.6590    3.4180   48.3280 N.am   70  GLY70      -0.1957
     54  CA        20.1620    3.0840   47.0050 C.3    70  GLY70       0.1869
     55  C         18.7390    3.5660   46.8260 C.2    70  GLY70       0.2309
     56  O         17.8890    2.8750   46.2570 O.2    70  GLY70      -0.2863
     57  N         15.7350    5.2370   45.3510 N.3    72  SER72      -0.1217
     58  CA        15.2080    5.7120   44.0740 C.3    72  SER72       0.1889
     59  C         14.5230    7.0890   44.1910 C.2    72  SER72       0.2288
     60  O         13.7380    7.3490   45.1030 O.2    72  SER72      -0.2866
     61  CB        14.2110    4.6430   43.4690 C.3    72  SER72       0.2089
     62  OG        14.8210    3.3200   43.3920 O.3    72  SER72      -0.2183
     63  N          8.8190   11.2410   47.3100 N.3    77  ARG77      -0.1245
     64  CA         9.9210   11.4020   48.2360 C.3    77  ARG77       0.1563
     65  C         10.5450   12.8320   48.2040 C.2    77  ARG77       0.2260
     66  O         10.8850   13.4210   49.2540 O.2    77  ARG77      -0.2867
     67  CB        10.9480   10.3300   47.9250 C.3    77  ARG77       0.0307
     68  CG        10.4930    8.9420   48.3080 C.3    77  ARG77       0.0489
     69  CD        11.3220    7.8610   47.5760 C.3    77  ARG77       0.2205
     70  NE        11.0040    6.5530   48.1420 N.pl3  77  ARG77      -0.0865
     71  CZ        11.6270    5.4250   47.9030 C.cat  77  ARG77       0.5346
     72  NH1       12.6640    5.3610   47.0520 N.pl3  77  ARG77       0.1354
     73  NH2       11.1580    4.3310   48.4890 N.pl3  77  ARG77       0.1354
     74  N         11.1390   -7.0010   48.8070 N.3   118  GLN118     -0.1231
     75  CA        11.7220   -6.3680   49.9370 C.3   118  GLN118      0.1698
     76  C         10.7390   -5.3290   50.4920 C.2   118  GLN118      0.2592
     77  O         10.0550   -4.6550   49.7280 O.2   118  GLN118     -0.2718
     78  CB        13.0910   -5.7860   49.5770 C.3   118  GLN118      0.0381
     79  CG        13.7900   -5.0540   50.7440 C.3   118  GLN118      0.0905
     80  CD        15.2180   -4.6780   50.4010 C.2   118  GLN118      0.2608
     81  OE1       15.5600   -4.3030   49.2450 O.2   118  GLN118     -0.2717
     82  NE2       16.0630   -4.7270   51.4070 N.am  118  GLN118     -0.0878
     83  N         10.6410   -5.2470   51.8290 N.am  119  THR119     -0.1953
     84  CA         9.7080   -4.3530   52.5200 C.3   119  THR119      0.1897
     85  C         10.0900   -2.9020   52.3500 C.2   119  THR119      0.2313
     86  O         11.2630   -2.5750   52.2160 O.2   119  THR119     -0.2863
     87  CB         9.7440   -4.6390   54.0030 C.3   119  THR119      0.1794
     88  OG1        9.6420   -6.0740   54.1420 O.3   119  THR119     -0.2208
     89  CG2        8.6260   -4.0270   54.6740 C.3   119  THR119      0.0378
     90  N          9.8690   -0.8980   49.8580 N.3   121  THR121     -0.1203
     91  CA        10.4220   -0.4850   48.5700 C.3   121  THR121      0.1994
     92  C          9.3160   -0.1200   47.5870 C.2   121  THR121      0.2618
     93  O          8.1300   -0.5180   47.7840 O.2   121  THR121     -0.2717
     94  CB        11.3310   -1.5810   47.9720 C.3   121  THR121      0.1784
     95  OG1       10.5610   -2.7620   47.6930 O.3   121  THR121     -0.2211
     96  CG2       12.4730   -1.9860   49.0250 C.3   121  THR121      0.0376
     97  N          9.6700    0.6760   46.5610 N.am  122  TYR122     -0.1961
     98  CA         8.6910    1.0420   45.5220 C.3   122  TYR122      0.1771
     99  C          8.1920   -0.2060   44.7580 C.2   122  TYR122      0.2619
    100  O          7.0680   -0.2180   44.2380 O.2   122  TYR122     -0.2715
    101  CB         9.2310    2.0910   44.5260 C.3   122  TYR122      0.0574
    102  CG        10.1210    1.5060   43.4360 C.ar  122  TYR122     -0.0198
    103  CD1       11.5000    1.6100   43.5150 C.ar  122  TYR122     -0.0009
    104  CD2        9.5550    0.8400   42.3200 C.ar  122  TYR122     -0.0009
    105  CE1       12.3420    1.0630   42.5450 C.ar  122  TYR122      0.0417
    106  CE2       10.3810    0.2560   41.3520 C.ar  122  TYR122      0.0417
    107  CZ        11.7730    0.4130   41.4710 C.ar  122  TYR122      0.1957
    108  OH        12.5770   -0.1420   40.5350 O.3   122  TYR122     -0.2866
    109  N          9.0280   -1.2270   44.6540 N.am  123  GLN123     -0.1977
    110  CA         8.6180   -2.5050   44.0360 C.3   123  GLN123      0.1601
    111  C          7.5960   -3.2390   44.8970 C.2   123  GLN123      0.2287
    112  O          6.6330   -3.8740   44.3830 O.2   123  GLN123     -0.2864
    113  CB         9.8300   -3.3960   43.6380 C.3   123  GLN123      0.0394
    114  CG        10.6710   -3.9230   44.7950 C.3   123  GLN123      0.0908
    115  CD        11.9320   -3.1170   45.0350 C.2   123  GLN123      0.2608
    116  OE1       11.9830   -1.9440   44.7170 O.2   123  GLN123     -0.2717
    117  NE2       12.9620   -3.7570   45.6100 N.am  123  GLN123     -0.0878
    118  N         14.7690   -5.2850   41.6660 N.3   159  GLU159     -0.1245
    119  CA        15.1240   -4.2620   40.7500 C.3   159  GLU159      0.1567
    120  C         16.1850   -4.8000   39.7870 C.2   159  GLU159      0.2260
    121  O         17.0450   -5.5860   40.2250 O.2   159  GLU159     -0.2867
    122  CB        15.7100   -3.0900   41.5380 C.3   159  GLU159      0.0388
    123  CG        14.6710   -2.4060   42.3660 C.3   159  GLU159      0.1160
    124  CD        15.2990   -1.6980   43.5050 C.2   159  GLU159      0.3649
    125  OE1       15.5130   -2.3460   44.5490 O.co2 159  GLU159     -0.2457
    126  OE2       15.5860   -0.4740   43.3570 O.co2 159  GLU159     -0.2457
    127  N         19.2690    6.2760   41.7600 N.3   189  CYS189     -0.1235
    128  CA        19.5420    6.5850   43.1570 C.3   189  CYS189      0.1677
    129  C         19.8300    8.0660   43.4590 C.2   189  CYS189      0.2270
    130  O         20.5830    8.7570   42.7470 O.2   189  CYS189     -0.2867
    131  CB        20.6890    5.7280   43.6600 C.3   189  CYS189      0.0956
    132  SG        20.3180    3.9490   43.4660 S.3   189  CYS189     -0.0801
@<TRIPOS>BOND
     1   120   121    2
     2   120   119    1
     3   108   107    1
     4   119   122    1
     5   119   118    1
     6   106   107   ar
     7   106   104   ar
     8   107   105   ar
     9   122   123    1
    10   127   128    1
    11   104   102   ar
    12   123   124    1
    13   105   103   ar
    14   130   129    2
    15   128   129    1
    16   128   131    1
    17   126   124   ar
    18    62    61    1
    19   102   103   ar
    20   102   101    1
    21   132   131    1
    22    61    58    1
    23   124   125   ar
    24   113   110    1
    25   113   114    1
    26   110   109    1
    27   110   111    1
    28    58    59    1
    29    58    57    1
    30    59    60    2
    31   100    99    2
    32   112   111    2
    33   101    98    1
    34   109    99   am
    35   116   115    2
    36    99    98    1
    37   114   115    1
    38   115   117   am
    39    27    26    1
    40    98    97    1
    41    56    55    2
    42    26    25   ar
    43    26    24   ar
    44    97    92   am
    45    55    54    1
    46    25    23   ar
    47    54    53    1
    48    72    71    1
    49    24    22   ar
    50    63    64    1
    51    69    70    1
    52    69    68    1
    53    92    93    2
    54    92    91    1
    55    95    94    1
    56    71    70    2
    57    71    73    1
    58    67    64    1
    59    67    68    1
    60    94    91    1
    61    94    96    1
    62    23    21   ar
    63    65    64    1
    64    65    66    2
    65    53    50   am
    66    22    21   ar
    67    91    90    1
    68    19    18    2
    69    74    75    1
    70    21    20    1
    71    18    17    1
    72    81    80    2
    73    51    50    2
    74    50    49    1
    75    78    75    1
    76    78    79    1
    77    77    76    2
    78    75    76    1
    79    17    20    1
    80    17    16    1
    81    28    29    1
    82    47    46   ar
    83    47    45   ar
    84    80    79    1
    85    80    82   am
    86    35    34   ar
    87    76    83   am
    88    48    49    1
    89    49    52    1
    90    36    34   ar
    91    46    44   ar
    92    34    33    1
    93    45    43   ar
    94    16    11   am
    95    29    30    1
    96    29    32    1
    97    12    11    2
    98    83    84    1
    99    31    30    2
   100    44    42   ar
   101    11    10    1
   102    33    32    1
   103    86    85    2
   104    43    42   ar
   105    85    84    1
   106    84    87    1
   107    42    41    1
   108    14    13    1
   109    10     9    1
   110    10    13    1
   111     4     3    2
   112    87    88    1
   113    87    89    1
   114    13    15    1
   115    41    38    1
   116     8     6   am
   117     3     2    1
   118    40    39    2
   119     5     6    1
   120     5     2    1
   121    39    38    1
   122    38    37    1
   123     1     2    1
   124     6     7    2
