@<TRIPOS>MOLECULE
tmp/3qb8B00.pdb
 159 151 0 0 0
SMALL
GASTEIGER

@<TRIPOS>ATOM
      1  N         26.1250  -35.5010   -4.0790 N.3    22  ASN22      -0.1225
      2  CA        25.0280  -34.5500   -3.9690 C.3    22  ASN22       0.1785
      3  C         24.7090  -33.9220   -5.3260 C.2    22  ASN22       0.2597
      4  O         23.5400  -33.8220   -5.7070 O.2    22  ASN22      -0.2718
      5  CB        25.4100  -33.5250   -2.8930 C.3    22  ASN22       0.1169
      6  CG        24.4810  -32.3200   -2.8240 C.2    22  ASN22       0.2627
      7  OD1       24.9270  -31.2030   -3.0590 O.2    22  ASN22      -0.2716
      8  ND2       23.2200  -32.5300   -2.4470 N.am   22  ASN22      -0.0877
      9  N         25.7370  -33.5090   -6.0610 N.am   23  PHE23      -0.1976
     10  CA        25.4810  -32.8700   -7.3600 C.3    23  PHE23       0.1639
     11  C         24.9940  -33.8620   -8.4020 C.2    23  PHE23       0.2290
     12  O         24.0550  -33.5680   -9.1480 O.2    23  PHE23      -0.2864
     13  CB        26.6980  -32.0830   -7.8520 C.3    23  PHE23       0.0560
     14  CG        26.7730  -30.6710   -7.3140 C.ar   23  PHE23      -0.0200
     15  CD1       26.1620  -30.3210   -6.1080 C.ar   23  PHE23      -0.0042
     16  CD2       27.4470  -29.6850   -8.0360 C.ar   23  PHE23      -0.0042
     17  CE1       26.2290  -29.0010   -5.6310 C.ar   23  PHE23      -0.0003
     18  CE2       27.5300  -28.3790   -7.5550 C.ar   23  PHE23      -0.0003
     19  CZ        26.9170  -28.0370   -6.3500 C.ar   23  PHE23      -0.0000
     20  N         21.3040  -34.5030   -7.5440 N.3    26  SER26      -0.1202
     21  CA        20.3100  -33.4560   -7.3090 C.3    26  SER26       0.2020
     22  C         20.5950  -32.0870   -7.9120 C.2    26  SER26       0.2618
     23  O         19.7300  -31.2070   -7.8410 O.2    26  SER26      -0.2717
     24  CB        20.1010  -33.2860   -5.8000 C.3    26  SER26       0.2103
     25  OG        19.7190  -34.5170   -5.2110 O.3    26  SER26      -0.2182
     26  N         21.7750  -31.8830   -8.4980 N.am   27  GLU27      -0.1979
     27  CA        22.1120  -30.5720   -9.0680 C.3    27  GLU27       0.1602
     28  C         21.7350  -30.5690  -10.5650 C.2    27  GLU27       0.2287
     29  O         22.0340  -31.5240  -11.2750 O.2    27  GLU27      -0.2864
     30  CB        23.5890  -30.2490   -8.7950 C.3    27  GLU27       0.0415
     31  CG        24.0540  -28.8630   -9.2440 C.3    27  GLU27       0.1163
     32  CD        24.3840  -28.8280  -10.7190 C.2    27  GLU27       0.3649
     33  OE1       25.0380  -29.7730  -11.2040 O.co2  27  GLU27      -0.2457
     34  OE2       23.9820  -27.8730  -11.4110 O.co2  27  GLU27      -0.2457
     35  N         30.4340  -24.7140   -4.5390 N.3   114  ALA114     -0.1231
     36  CA        29.3290  -25.6400   -4.3520 C.3   114  ALA114      0.1694
     37  C         28.6740  -25.4450   -3.0050 C.2   114  ALA114      0.2592
     38  O         29.3650  -25.2750   -1.9940 O.2   114  ALA114     -0.2718
     39  CB        29.8290  -27.1000   -4.4760 C.3   114  ALA114      0.0304
     40  N         27.3500  -25.5230   -2.9840 N.am  115  ILE115     -0.1966
     41  CA        26.5950  -25.6130   -1.7410 C.3   115  ILE115      0.1727
     42  C         25.6430  -26.7980   -1.8970 C.2   115  ILE115      0.2617
     43  O         25.0650  -26.9920   -2.9670 O.2   115  ILE115     -0.2715
     44  CB        25.8400  -24.2930   -1.4220 C.3   115  ILE115      0.0290
     45  CG1       25.2710  -24.3040    0.0030 C.3   115  ILE115      0.0022
     46  CG2       24.7440  -23.9910   -2.4770 C.3   115  ILE115      0.0023
     47  CD1       24.6820  -22.9440    0.4280 C.3   115  ILE115      0.0001
     48  N         25.4680  -27.5860   -0.8450 N.am  116  GLY116     -0.1940
     49  CA        24.5910  -28.7350   -0.9300 C.3   116  GLY116      0.2014
     50  C         24.2180  -29.2630    0.4320 C.2   116  GLY116      0.2639
     51  O         24.9580  -29.0650    1.4130 O.2   116  GLY116     -0.2714
     52  N         23.0770  -29.9400    0.4980 N.am  117  SER117     -0.1949
     53  CA        22.6300  -30.5570    1.7350 C.3   117  SER117      0.1924
     54  C         21.9210  -31.8580    1.4080 C.2   117  SER117      0.2314
     55  O         21.1030  -31.9070    0.4860 O.2   117  SER117     -0.2863
     56  CB        21.6720  -29.6250    2.4730 C.3   117  SER117      0.2116
     57  OG        21.1800  -30.2760    3.6210 O.3   117  SER117     -0.2180
     58  N         20.3380  -33.3740    4.0050 N.3   119  VAL119     -0.1231
     59  CA        19.2540  -33.3350    4.9850 C.3   119  VAL119      0.1692
     60  C         18.5760  -32.0090    4.7080 C.2   119  VAL119      0.2593
     61  O         19.0280  -30.9510    5.1670 O.2   119  VAL119     -0.2718
     62  CB        19.7820  -33.4210    6.4350 C.3   119  VAL119      0.0266
     63  CG1       18.6390  -33.2720    7.4470 C.3   119  VAL119      0.0020
     64  CG2       20.5040  -34.7480    6.6600 C.3   119  VAL119      0.0020
     65  N         17.5190  -32.0750    3.9140 N.am  120  THR120     -0.1939
     66  CA        16.9650  -30.8850    3.2930 C.3   120  THR120      0.2028
     67  C         15.7940  -30.3030    4.0740 C.2   120  THR120      0.2642
     68  O         15.1410  -30.9980    4.8670 O.2   120  THR120     -0.2714
     69  CB        16.5170  -31.1830    1.8520 C.3   120  THR120      0.1808
     70  OG1       15.5560  -32.2430    1.8660 O.3   120  THR120     -0.2208
     71  CG2       17.7210  -31.5830    0.9800 C.3   120  THR120      0.0379
     72  N         15.5620  -29.0100    3.8600 N.am  121  GLY121     -0.1954
     73  CA        14.4340  -28.2990    4.4720 C.3   121  GLY121      0.1869
     74  C         14.5500  -28.0960    5.9690 C.2   121  GLY121      0.2309
     75  O         13.5260  -27.9250    6.6450 O.2   121  GLY121     -0.2863
     76  N         17.1890  -25.9190    7.1240 N.3   123  GLY123     -0.1210
     77  CA        17.9660  -24.6890    7.2530 C.3   123  GLY123      0.1956
     78  C         19.4750  -24.8690    7.1930 C.2   123  GLY123      0.2612
     79  O         20.2130  -23.9230    7.4400 O.2   123  GLY123     -0.2717
     80  N         19.9510  -26.0700    6.8560 N.am  124  LEU124     -0.1965
     81  CA        21.4030  -26.3010    6.8850 C.3   124  LEU124      0.1728
     82  C         22.1450  -25.4900    5.8300 C.2   124  LEU124      0.2616
     83  O         23.1440  -24.8330    6.1450 O.2   124  LEU124     -0.2715
     84  CB        21.7630  -27.7910    6.7690 C.3   124  LEU124      0.0311
     85  CG        21.2640  -28.7300    7.8790 C.3   124  LEU124      0.0022
     86  CD1       21.8740  -30.1230    7.7140 C.3   124  LEU124      0.0001
     87  CD2       21.5320  -28.1850    9.2710 C.3   124  LEU124      0.0001
     88  N         21.6770  -25.5250    4.5800 N.am  125  ALA125     -0.1963
     89  CA        22.3460  -24.7480    3.5420 C.3   125  ALA125      0.1728
     90  C         22.2950  -23.2480    3.8540 C.2   125  ALA125      0.2616
     91  O         23.2870  -22.5520    3.6950 O.2   125  ALA125     -0.2715
     92  CB        21.7520  -25.0390    2.1830 C.3   125  ALA125      0.0334
     93  N         21.1520  -22.7710    4.3470 N.am  126  THR126     -0.1951
     94  CA        21.0260  -21.3660    4.7440 C.3   126  THR126      0.1897
     95  C         22.0690  -20.9770    5.7900 C.2   126  THR126      0.2313
     96  O         22.7140  -19.9330    5.6800 O.2   126  THR126     -0.2863
     97  CB        19.6160  -21.0620    5.2820 C.3   126  THR126      0.1794
     98  OG1       18.6710  -21.2540    4.2260 O.3   126  THR126     -0.2208
     99  CG2       19.5020  -19.6010    5.7760 C.3   126  THR126      0.0378
    100  N         28.1250  -19.0880   -8.9990 N.3   147  ASP147     -0.1225
    101  CA        27.4170  -19.4250  -10.2220 C.3   147  ASP147      0.1805
    102  C         26.3980  -20.4920   -9.8640 C.2   147  ASP147      0.2598
    103  O         26.7460  -21.6650   -9.6520 O.2   147  ASP147     -0.2718
    104  CB        28.3850  -19.8990  -11.2970 C.3   147  ASP147      0.1424
    105  CG        29.3360  -18.8120  -11.7180 C.2   147  ASP147      0.3668
    106  OD1       28.8760  -17.6570  -11.8680 O.co2 147  ASP147     -0.2456
    107  OD2       30.5430  -19.0920  -11.8820 O.co2 147  ASP147     -0.2456
    108  N         25.1460  -20.0640   -9.7450 N.am  148  CYS148     -0.1956
    109  CA        24.0850  -20.8870   -9.1880 C.3   148  CYS148      0.1843
    110  C         23.2110  -21.4470  -10.2830 C.2   148  CYS148      0.2626
    111  O         22.7140  -20.7020  -11.1390 O.2   148  CYS148     -0.2714
    112  CB        23.2390  -20.0670   -8.2140 C.3   148  CYS148      0.0997
    113  SG        24.1620  -19.3910   -6.8290 S.3   148  CYS148     -0.0797
    114  N         23.0400  -22.7650  -10.2600 N.am  149  THR149     -0.1936
    115  CA        22.3880  -23.4890  -11.3400 C.3   149  THR149      0.2028
    116  C         20.9600  -23.9280  -11.0000 C.2   149  THR149      0.2642
    117  O         20.2500  -24.4450  -11.8630 O.2   149  THR149     -0.2714
    118  CB        23.1760  -24.7660  -11.6380 C.3   149  THR149      0.1808
    119  OG1       23.2630  -25.5380  -10.4270 O.3   149  THR149     -0.2208
    120  CG2       24.5640  -24.4400  -12.1830 C.3   149  THR149      0.0379
    121  N         20.5510  -23.7170   -9.7470 N.am  150  ASN150     -0.1971
    122  CA        19.3380  -24.3140   -9.1880 C.3   150  ASN150      0.1688
    123  C         18.4490  -23.1820   -8.6550 C.2   150  ASN150      0.2292
    124  O         18.9200  -22.3440   -7.8920 O.2   150  ASN150     -0.2864
    125  CB        19.7710  -25.2540   -8.0450 C.3   150  ASN150      0.1181
    126  CG        18.6440  -26.1130   -7.4830 C.2   150  ASN150      0.2629
    127  OD1       17.4600  -25.7600   -7.5360 O.2   150  ASN150     -0.2716
    128  ND2       19.0250  -27.2690   -6.9210 N.am  150  ASN150     -0.0877
    129  N         16.4270  -23.1960   -6.3310 N.3   152  ILE152     -0.1231
    130  CA        16.3990  -23.2040   -4.8780 C.3   152  ILE152      0.1692
    131  C         17.5690  -22.3870   -4.3160 C.2   152  ILE152      0.2592
    132  O         17.3890  -21.5800   -3.4050 O.2   152  ILE152     -0.2718
    133  CB        16.3940  -24.6450   -4.3180 C.3   152  ILE152      0.0266
    134  CG1       15.1770  -25.4220   -4.8350 C.3   152  ILE152      0.0019
    135  CG2       16.4140  -24.6140   -2.7820 C.3   152  ILE152      0.0020
    136  CD1       15.3080  -26.9260   -4.6270 C.3   152  ILE152      0.0001
    137  N         18.7730  -22.6060   -4.8410 N.am  153  SER153     -0.1952
    138  CA        19.9280  -21.8590   -4.3460 C.3   153  SER153      0.1924
    139  C         19.8960  -20.4120   -4.8510 C.2   153  SER153      0.2314
    140  O         20.3110  -19.5100   -4.1280 O.2   153  SER153     -0.2863
    141  CB        21.2500  -22.5580   -4.7180 C.3   153  SER153      0.2116
    142  OG        21.2750  -22.7420   -6.1240 O.3   153  SER153     -0.2180
    143  N         17.7430  -18.7300   -2.4040 N.3   156  MET156     -0.1245
    144  CA        18.4590  -18.6040   -1.1450 C.3   156  MET156      0.1570
    145  C         19.4790  -17.4710   -1.2060 C.2   156  MET156      0.2261
    146  O         19.5930  -16.6570   -0.2660 O.2   156  MET156     -0.2867
    147  CB        19.1420  -19.9300   -0.8070 C.3   156  MET156      0.0387
    148  CG        19.8790  -19.9470    0.5110 C.3   156  MET156      0.0595
    149  SD        20.6270  -21.5480    0.8280 S.3   156  MET156     -0.1393
    150  CE        19.5670  -22.5490   -0.1790 C.3   156  MET156      0.0692
    151  N         17.7630  -14.1920   -1.0870 N.3   159  LYS159     -0.1245
    152  CA        17.2490  -13.8690    0.2470 C.3   159  LYS159      0.1561
    153  C         18.3340  -13.3000    1.1580 C.2   159  LYS159      0.2260
    154  O         18.0320  -12.6430    2.1580 O.2   159  LYS159     -0.2867
    155  CB        16.5930  -15.0940    0.8780 C.3   159  LYS159      0.0271
    156  CG        15.6170  -14.7410    1.9970 C.3   159  LYS159      0.0035
    157  CD        15.0640  -15.9970    2.6280 C.3   159  LYS159      0.0206
    158  CE        14.0780  -15.6460    3.7120 C.3   159  LYS159      0.1093
    159  NZ        13.5690  -16.8760    4.3740 N.3   159  LYS159     -0.1314
@<TRIPOS>BOND
     1   120   118    1
     2   107   105   ar
     3   106   105   ar
     4   117   116    2
     5   105   104    1
     6   118   115    1
     7   118   119    1
     8    34    32   ar
     9   115   116    1
    10   115   114    1
    11   104   101    1
    12    29    28    2
    13    33    32   ar
    14   111   110    2
    15   116   121   am
    16    32    31    1
    17    28    27    1
    18   110   114   am
    19   110   109    1
    20   101   102    1
    21   101   100    1
    22   102   108   am
    23   102   103    2
    24   121   122    1
    25   108   109    1
    26    31    30    1
    27   122   123    1
    28   122   125    1
    29   109   112    1
    30    12    11    2
    31    27    30    1
    32    27    26    1
    33   123   124    2
    34    26    22   am
    35    11    10    1
    36   112   113    1
    37   125   126    1
    38    16    18   ar
    39    16    14   ar
    40    22    23    2
    41    22    21    1
    42    13    10    1
    43    13    14    1
    44    18    19   ar
    45    20    21    1
    46   127   126    2
    47   126   128   am
    48    10     9    1
    49    14    15   ar
    50    21    24    1
    51    19    17   ar
    52   129   130    1
    53   142   141    1
    54    15    17   ar
    55     9     3   am
    56    24    25    1
    57     4     3    2
    58     3     2    1
    59   130   133    1
    60   130   131    1
    61   139   138    1
    62   139   140    2
    63   137   138    1
    64   137   131   am
    65   134   136    1
    66   134   133    1
    67   141   138    1
    68    35    36    1
    69    39    36    1
    70    36    37    1
    71   133   135    1
    72   131   132    2
    73     1     2    1
    74     2     5    1
    75     7     6    2
    76    37    40   am
    77    37    38    2
    78    40    41    1
    79    43    42    2
    80     5     6    1
    81     6     8   am
    82    46    44    1
    83   143   144    1
    84    42    41    1
    85    42    48   am
    86    41    44    1
    87    44    45    1
    88   145   144    1
    89   145   146    2
    90   144   147    1
    91   151   152    1
    92    49    48    1
    93    49    50    1
    94   147   148    1
    95   150   149    1
    96    45    47    1
    97   152   155    1
    98   152   153    1
    99    50    52   am
   100    50    51    2
   101    55    54    2
   102    52    53    1
   103   148   149    1
   104   155   156    1
   105    71    69    1
   106   153   154    2
   107    54    53    1
   108    53    56    1
   109    69    70    1
   110    69    66    1
   111   156   157    1
   112    92    89    1
   113    56    57    1
   114   157   158    1
   115    66    65    1
   116    66    67    1
   117    89    90    1
   118    89    88    1
   119    91    90    2
   120   158   159    1
   121    90    93   am
   122    72    67   am
   123    72    73    1
   124    65    60   am
   125    58    59    1
   126    67    68    2
   127    98    97    1
   128    93    94    1
   129    73    74    1
   130    88    82   am
   131    60    59    1
   132    60    61    2
   133    94    97    1
   134    94    95    1
   135    59    62    1
   136    97    99    1
   137    96    95    2
   138    82    83    2
   139    82    81    1
   140    74    75    2
   141    62    64    1
   142    62    63    1
   143    84    81    1
   144    84    85    1
   145    80    81    1
   146    80    78   am
   147    76    77    1
   148    78    77    1
   149    78    79    2
   150    86    85    1
   151    85    87    1
