@<TRIPOS>MOLECULE
tmp/3qbcB00.pdb
 81 77 0 0 0
SMALL
GASTEIGER

@<TRIPOS>ATOM
      1  N         -3.8110   23.6280   17.4810 N.3    12  GLY12      -0.1225
      2  CA        -3.3750   24.7490   16.5640 C.3    12  GLY12       0.1811
      3  C         -4.3190   24.8930   15.4180 C.2    12  GLY12       0.2280
      4  O         -4.9460   23.9480   15.0040 O.2    12  GLY12      -0.2866
      5  N          1.2210   32.6890   16.5110 N.3    46  THR46      -0.1203
      6  CA         2.5450   32.1570   16.3620 C.3    46  THR46       0.1994
      7  C          2.9310   32.1020   14.8690 C.2    46  THR46       0.2618
      8  O          2.1110   31.7500   14.0310 O.2    46  THR46      -0.2717
      9  CB         2.7110   30.7100   16.9670 C.3    46  THR46       0.1784
     10  OG1        1.7940   29.8410   16.3200 O.3    46  THR46      -0.2211
     11  CG2        2.3140   30.7530   18.4400 C.3    46  THR46       0.0376
     12  N          4.1210   32.5150   14.5930 N.am   47  ALA47      -0.1966
     13  CA         4.5960   32.4680   13.2010 C.3    47  ALA47       0.1713
     14  C          4.6990   30.9870   12.7750 C.2    47  ALA47       0.2458
     15  O          5.0350   30.1220   13.5530 O.2    47  ALA47      -0.2730
     16  CB         6.0140   33.0530   13.2160 C.3    47  ALA47       0.0333
     17  N          4.3500   30.6720   11.5320 N.am   48  PRO48      -0.2716
     18  CA         4.3310   29.2910   11.0950 C.3    48  PRO48       0.1536
     19  C          5.7120   28.6590   10.9920 C.2    48  PRO48       0.2598
     20  O          6.7230   29.3330   10.6250 O.2    48  PRO48      -0.2715
     21  CB         3.6160   29.3520    9.7520 C.3    48  PRO48       0.0310
     22  CG         3.7100   30.7410    9.3360 C.3    48  PRO48       0.0237
     23  CD         3.7490   31.5840   10.5480 C.3    48  PRO48       0.0939
     24  N          5.7880   27.4200   11.4710 N.am   49  VAL49      -0.1964
     25  CA         7.0080   26.6120   11.5070 C.3    49  VAL49       0.1727
     26  C          6.7660   25.5340   10.3940 C.2    49  VAL49       0.2616
     27  O          5.6610   24.9660   10.2610 O.2    49  VAL49      -0.2715
     28  CB         7.2000   25.8850   12.8470 C.3    49  VAL49       0.0290
     29  CG1        8.4290   24.9690   12.7440 C.3    49  VAL49       0.0023
     30  CG2        7.3350   26.8940   13.9320 C.3    49  VAL49       0.0023
     31  N          7.7880   25.3480    9.5450 N.am   50  GLY50      -0.1955
     32  CA         7.6940   24.4590    8.3890 C.3    50  GLY50       0.1869
     33  C          7.6510   25.4100    7.1830 C.2    50  GLY50       0.2309
     34  O          8.5360   26.2830    6.9780 O.2    50  GLY50      -0.2863
     35  N          2.3650   30.8190    4.7510 N.3    54  GLN54      -0.1245
     36  CA         1.0680   30.3610    5.1390 C.3    54  GLN54       0.1566
     37  C          0.6710   31.2240    6.3680 C.2    54  GLN54       0.2260
     38  O          1.5240   31.9230    6.9370 O.2    54  GLN54      -0.2867
     39  CB         1.1100   28.8540    5.4970 C.3    54  GLN54       0.0367
     40  CG         1.8810   28.5350    6.7750 C.3    54  GLN54       0.0905
     41  CD         1.8640   27.0510    7.1530 C.2    54  GLN54       0.2608
     42  OE1        0.8280   26.4140    7.1780 O.2    54  GLN54      -0.2717
     43  NE2        3.0520   26.5180    7.3880 N.am   54  GLN54      -0.0878
     44  N         -0.5040   30.9050   12.9570 N.3    57  PHE57      -0.1241
     45  CA        -1.3650   30.0120   13.7880 C.3    57  PHE57       0.1605
     46  C         -1.8510   30.6770   15.0740 C.2    57  PHE57       0.2264
     47  O         -1.2500   31.6170   15.5720 O.2    57  PHE57      -0.2867
     48  CB        -0.6230   28.7410   14.2080 C.3    57  PHE57       0.0534
     49  CG        -0.3350   27.8100   13.0950 C.ar   57  PHE57      -0.0203
     50  CD1       -1.0650   26.6350   13.0280 C.ar   57  PHE57      -0.0042
     51  CD2        0.5910   28.1440   12.0620 C.ar   57  PHE57      -0.0042
     52  CE1       -0.7840   25.6680   11.9460 C.ar   57  PHE57      -0.0003
     53  CE2        0.8120   27.2680   10.9760 C.ar   57  PHE57      -0.0003
     54  CZ         0.1290   26.0370   10.9320 C.ar   57  PHE57      -0.0000
     55  N         -2.3340   28.9540   18.7250 N.3    59  ASN59      -0.1240
     56  CA        -1.9310   27.7240   19.4370 C.3    59  ASN59       0.1653
     57  C         -2.3390   27.8390   20.8800 C.2    59  ASN59       0.2266
     58  O         -2.2810   28.9290   21.4280 O.2    59  ASN59      -0.2867
     59  CB        -0.4490   27.5040   19.3710 C.3    59  ASN59       0.1155
     60  CG        -0.0340   26.8950   17.9670 C.2    59  ASN59       0.2627
     61  OD1        0.6960   27.5300   17.2140 O.2    59  ASN59      -0.2716
     62  ND2       -0.3130   25.6370   17.7620 N.am   59  ASN59      -0.0877
     63  N         -5.4260   21.0290   14.3910 N.3    98  ASP98      -0.1239
     64  CA        -4.5680   19.9290   14.8150 C.3    98  ASP98       0.1674
     65  C         -4.6900   19.7900   16.3340 C.2    98  ASP98       0.2266
     66  O         -4.6250   20.7730   17.0700 O.2    98  ASP98      -0.2867
     67  CB        -3.1290   20.2440   14.4290 C.3    98  ASP98       0.1410
     68  CG        -2.9450   20.2950   12.8910 C.2    98  ASP98       0.3668
     69  OD1       -3.7770   19.7110   12.2010 O.co2  98  ASP98      -0.2456
     70  OD2       -1.9790   20.8980   12.4060 O.co2  98  ASP98      -0.2456
     71  N          5.9810   27.2500   19.9580 N.3   126  PHE126     -0.1241
     72  CA         4.5160   27.3420   19.8970 C.3   126  PHE126      0.1605
     73  C          3.8100   26.2620   20.8050 C.2   126  PHE126      0.2264
     74  O          2.6190   26.3690   21.0920 O.2   126  PHE126     -0.2867
     75  CB         4.0140   27.3610   18.4280 C.3   126  PHE126      0.0534
     76  CG         4.1090   26.0240   17.7290 C.ar  126  PHE126     -0.0203
     77  CD1        3.1090   25.0550   17.9080 C.ar  126  PHE126     -0.0042
     78  CD2        5.1290   25.8040   16.7920 C.ar  126  PHE126     -0.0042
     79  CE1        3.2200   23.8070   17.2680 C.ar  126  PHE126     -0.0003
     80  CE2        5.1660   24.5780   16.0310 C.ar  126  PHE126     -0.0003
     81  CZ         4.1990   23.5980   16.2730 C.ar  126  PHE126     -0.0000
@<TRIPOS>BOND
     1    35    36    1
     2    36    39    1
     3    36    37    1
     4    39    40    1
     5    37    38    2
     6    40    41    1
     7    34    33    2
     8    41    42    2
     9    41    43   am
    10    33    32    1
    11    32    31    1
    12    22    21    1
    13    22    23    1
    14    31    26   am
    15    21    18    1
    16    27    26    2
    17    26    25    1
    18    23    17    1
    19    20    19    2
    20    54    53   ar
    21    54    52   ar
    22    53    51   ar
    23    19    18    1
    24    19    24   am
    25    18    17    1
    26    24    25    1
    27    25    28    1
    28    17    14   am
    29    52    50   ar
    30    51    49   ar
    31    69    68   ar
    32    70    68   ar
    33    29    28    1
    34    14    13    1
    35    14    15    2
    36    28    30    1
    37    68    67    1
    38    44    45    1
    39    50    49   ar
    40    49    48    1
    41    13    16    1
    42    13    12    1
    43    45    48    1
    44    45    46    1
    45     8     7    2
    46    63    64    1
    47    67    64    1
    48    12     7   am
    49    64    65    1
    50     7     6    1
    51     4     3    2
    52    46    47    2
    53     3     2    1
    54    80    81   ar
    55    80    78   ar
    56    81    79   ar
    57    10     9    1
    58    65    66    2
    59     6     5    1
    60     6     9    1
    61     2     1    1
    62    78    76   ar
    63     9    11    1
    64    61    60    2
    65    79    77   ar
    66    76    77   ar
    67    76    75    1
    68    62    60   am
    69    60    59    1
    70    75    72    1
    71    55    56    1
    72    59    56    1
    73    56    57    1
    74    72    71    1
    75    72    73    1
    76    73    74    2
    77    57    58    2
