@<TRIPOS>MOLECULE
tmp/3qbfA00.pdb
 99 91 0 0 0
SMALL
GASTEIGER

@<TRIPOS>ATOM
      1  N          3.0270  -19.5990   -5.9180 N.3     8  ARG8       -0.1245
      2  CA         4.1780  -18.8440   -6.4280 C.3     8  ARG8        0.1563
      3  C          3.7700  -17.4460   -6.8870 C.2     8  ARG8        0.2260
      4  O          2.7820  -17.2870   -7.5960 O.2     8  ARG8       -0.2867
      5  CB         4.8330  -19.6030   -7.5810 C.3     8  ARG8        0.0307
      6  CG         5.4820  -20.9040   -7.1690 C.3     8  ARG8        0.0489
      7  CD         6.2470  -21.5320   -8.3240 C.3     8  ARG8        0.2205
      8  NE         6.9610  -22.7240   -7.8740 N.pl3   8  ARG8       -0.0865
      9  CZ         7.6670  -23.5230   -8.6680 C.cat   8  ARG8        0.5346
     10  NH1        7.7600  -23.2610   -9.9670 N.pl3   8  ARG8        0.1354
     11  NH2        8.2810  -24.5860   -8.1590 N.pl3   8  ARG8        0.1354
     12  N          8.8840  -15.0260  -11.7240 N.3    23  LEU23      -0.1245
     13  CA         8.6740  -15.2180  -10.2970 C.3    23  LEU23       0.1561
     14  C          9.3170  -14.0830   -9.5020 C.2    23  LEU23       0.2260
     15  O         10.5070  -13.7950   -9.6800 O.2    23  LEU23      -0.2867
     16  CB         9.3280  -16.5460   -9.9230 C.3    23  LEU23       0.0270
     17  CG         9.3320  -17.0280   -8.4780 C.3    23  LEU23       0.0019
     18  CD1        7.9190  -17.2990   -7.9990 C.3    23  LEU23       0.0001
     19  CD2       10.1890  -18.2880   -8.3730 C.3    23  LEU23       0.0001
     20  N         11.1900  -13.0310   -6.6510 N.3    25  ASP25      -0.1239
     21  CA        12.0480  -13.9240   -5.8710 C.3    25  ASP25       0.1674
     22  C         13.0040  -13.1660   -4.9510 C.2    25  ASP25       0.2266
     23  O         14.0940  -12.7320   -5.3570 O.2    25  ASP25      -0.2867
     24  CB        12.8220  -14.8370   -6.8250 C.3    25  ASP25       0.1410
     25  CG        13.5280  -15.9630   -6.1180 C.2    25  ASP25       0.3668
     26  OD1       13.7600  -15.8440   -4.8970 O.co2  25  ASP25      -0.2456
     27  OD2       13.8360  -16.9840   -6.7860 O.co2  25  ASP25      -0.2456
     28  N         14.7830  -14.3370   -2.6380 N.3    27  GLY27      -0.1210
     29  CA        15.9850  -15.1100   -2.3590 C.3    27  GLY27       0.1956
     30  C         17.0330  -14.9890   -3.4390 C.2    27  GLY27       0.2612
     31  O         18.1470  -15.4620   -3.2540 O.2    27  GLY27      -0.2717
     32  N         16.6960  -14.3430   -4.5480 N.am   28  ALA28      -0.1965
     33  CA        17.6290  -14.1850   -5.6650 C.3    28  ALA28       0.1728
     34  C         18.2860  -12.8220   -5.6340 C.2    28  ALA28       0.2616
     35  O         17.5880  -11.8170   -5.6380 O.2    28  ALA28      -0.2715
     36  CB        16.9040  -14.3640   -6.9940 C.3    28  ALA28       0.0334
     37  N         19.6170  -12.7760   -5.6370 N.am   29  ASP29      -0.1957
     38  CA        20.3420  -11.5030   -5.7320 C.3    29  ASP29       0.1840
     39  C         20.0760  -10.8490   -7.0900 C.2    29  ASP29       0.2622
     40  O         19.9240   -9.6210   -7.1970 O.2    29  ASP29      -0.2715
     41  CB        21.8530  -11.7220   -5.6200 C.3    29  ASP29       0.1450
     42  CG        22.2930  -12.2590   -4.2730 C.2    29  ASP29       0.3671
     43  OD1       21.5790  -12.1460   -3.2610 O.co2  29  ASP29      -0.2456
     44  OD2       23.4250  -12.7810   -4.2300 O.co2  29  ASP29      -0.2456
     45  N         20.0450  -11.6900   -8.1230 N.am   30  ASP30      -0.1971
     46  CA        20.0570  -11.2900   -9.5220 C.3    30  ASP30       0.1709
     47  C         18.7770  -11.7310  -10.2340 C.2    30  ASP30       0.2293
     48  O         18.0970  -12.6640   -9.8030 O.2    30  ASP30      -0.2864
     49  CB        21.2390  -11.9640  -10.2460 C.3    30  ASP30       0.1436
     50  CG        22.5680  -11.7680   -9.5330 C.2    30  ASP30       0.3671
     51  OD1       22.9360  -10.6090   -9.2590 O.co2  30  ASP30      -0.2456
     52  OD2       23.2470  -12.7800   -9.2520 O.co2  30  ASP30      -0.2456
     53  N         17.1800  -13.4670  -13.5210 N.3    32  VAL32      -0.1245
     54  CA        17.6310  -14.5360  -14.4200 C.3    32  VAL32       0.1561
     55  C         16.4770  -14.9230  -15.3300 C.2    32  VAL32       0.2260
     56  O         15.4070  -15.2970  -14.8530 O.2    32  VAL32      -0.2867
     57  CB        18.1130  -15.7940  -13.6560 C.3    32  VAL32       0.0252
     58  CG1       18.9080  -16.7160  -14.5950 C.3    32  VAL32       0.0019
     59  CG2       18.9180  -15.4080  -12.4060 C.3    32  VAL32       0.0019
     60  N         26.1290  -18.7450  -11.7420 N.3    47  ILE47      -0.1231
     61  CA        25.2500  -18.5530  -10.5990 C.3    47  ILE47       0.1692
     62  C         24.7870  -19.9170  -10.1200 C.2    47  ILE47       0.2593
     63  O         24.6820  -20.8590  -10.8960 O.2    47  ILE47      -0.2718
     64  CB        24.0400  -17.6430  -10.9300 C.3    47  ILE47       0.0266
     65  CG1       23.1990  -18.2540  -12.0490 C.3    47  ILE47       0.0019
     66  CG2       24.5210  -16.2440  -11.3110 C.3    47  ILE47       0.0020
     67  CD1       21.8830  -17.4990  -12.2900 C.3    47  ILE47       0.0001
     68  N         24.5430  -20.0310   -8.8280 N.am   48  GLY48      -0.1942
     69  CA        24.2700  -21.3360   -8.2770 C.3    48  GLY48       0.2014
     70  C         23.3660  -21.3170   -7.0730 C.2    48  GLY48       0.2639
     71  O         22.9910  -20.2760   -6.5440 O.2    48  GLY48      -0.2714
     72  N         23.0320  -22.5130   -6.6400 N.am   49  GLY49      -0.1939
     73  CA        22.2380  -22.7040   -5.4500 C.3    49  GLY49       0.2014
     74  C         22.0410  -24.1840   -5.3180 C.2    49  GLY49       0.2638
     75  O         22.9240  -24.9630   -5.6570 O.2    49  GLY49      -0.2714
     76  N         20.8740  -24.5760   -4.8320 N.am   50  ILE50      -0.1977
     77  CA        20.5370  -25.9780   -4.7540 C.3    50  ILE50       0.1596
     78  C         20.6430  -26.5760   -6.1530 C.2    50  ILE50       0.2287
     79  O         20.1730  -25.9880   -7.1370 O.2    50  ILE50      -0.2864
     80  CB        19.1290  -26.1620   -4.1660 C.3    50  ILE50       0.0276
     81  CG1       19.1620  -25.8770   -2.6610 C.3    50  ILE50       0.0022
     82  CG2       18.5970  -27.5490   -4.4620 C.3    50  ILE50       0.0022
     83  CD1       17.8210  -26.0300   -1.9770 C.3    50  ILE50       0.0001
     84  N         20.5120  -11.5060  -16.2520 N.3    76  LEU76      -0.1245
     85  CA        21.3070  -12.6720  -16.6100 C.3    76  LEU76       0.1561
     86  C         20.4250  -13.5650  -17.4690 C.2    76  LEU76       0.2260
     87  O         19.2470  -13.7430  -17.1720 O.2    76  LEU76      -0.2867
     88  CB        21.7300  -13.4170  -15.3470 C.3    76  LEU76       0.0270
     89  CG        22.3780  -12.5560  -14.2550 C.3    76  LEU76       0.0019
     90  CD1       22.7800  -13.4340  -13.0680 C.3    76  LEU76       0.0001
     91  CD2       23.5980  -11.8140  -14.7760 C.3    76  LEU76       0.0001
     92  N         13.1500  -15.4610  -13.2640 N.3    84  ILE84      -0.1245
     93  CA        13.3040  -14.9620  -11.8990 C.3    84  ILE84       0.1561
     94  C         13.5220  -13.4540  -11.8750 C.2    84  ILE84       0.2260
     95  O         14.4670  -12.9630  -12.4990 O.2    84  ILE84      -0.2867
     96  CB        14.5530  -15.6020  -11.2460 C.3    84  ILE84       0.0252
     97  CG1       14.3800  -17.1160  -11.1420 C.3    84  ILE84       0.0019
     98  CG2       14.8420  -14.9700   -9.8880 C.3    84  ILE84       0.0019
     99  CD1       13.1740  -17.5110  -10.3570 C.3    84  ILE84       0.0001
@<TRIPOS>BOND
     1    86    87    2
     2    86    85    1
     3    85    84    1
     4    85    88    1
     5    88    89    1
     6    55    56    2
     7    55    54    1
     8    91    89    1
     9    58    57    1
    10    54    57    1
    11    54    53    1
    12    89    90    1
    13    57    59    1
    14    92    93    1
    15    95    94    2
    16    67    65    1
    17    65    64    1
    18    93    94    1
    19    93    96    1
    20    60    61    1
    21    12    13    1
    22    66    64    1
    23    96    97    1
    24    96    98    1
    25    97    99    1
    26    64    61    1
    27    63    62    2
    28    61    62    1
    29    13    16    1
    30    13    14    1
    31    49    50    1
    32    49    46    1
    33    47    48    2
    34    47    46    1
    35    62    68   am
    36    10     9    1
    37    16    17    1
    38    15    14    2
    39    50    51   ar
    40    50    52   ar
    41    46    45    1
    42    68    69    1
    43     9    11    1
    44     9     8    2
    45    17    19    1
    46    17    18    1
    47     7     8    1
    48     7     6    1
    49    69    70    1
    50    45    39   am
    51     4     3    2
    52     5     6    1
    53     5     2    1
    54    40    39    2
    55    79    78    2
    56    39    38    1
    57    70    72   am
    58    70    71    2
    59    36    33    1
    60     3     2    1
    61    24    25    1
    62    24    21    1
    63    27    25   ar
    64    20    21    1
    65    72    73    1
    66     2     1    1
    67    78    77    1
    68    25    26   ar
    69    21    22    1
    70    38    37    1
    71    38    41    1
    72    33    34    1
    73    33    32    1
    74    75    74    2
    75    35    34    2
    76    37    34   am
    77    41    42    1
    78    73    74    1
    79    23    22    2
    80    74    76   am
    81    76    77    1
    82    77    80    1
    83    32    30   am
    84    82    80    1
    85    42    44   ar
    86    42    43   ar
    87    80    81    1
    88    30    31    2
    89    30    29    1
    90    81    83    1
    91    28    29    1
