@<TRIPOS>MOLECULE
tmp/3qbiA04.pdb
 100 94 0 0 0
SMALL
GASTEIGER

@<TRIPOS>ATOM
      1  N         33.6460   17.6140   17.4920 N.3   130  THR130     -0.1203
      2  CA        34.3520   16.8130   16.4950 C.3   130  THR130      0.1994
      3  C         35.2220   15.7070   17.0960 C.2   130  THR130      0.2617
      4  O         35.1050   14.5430   16.7180 O.2   130  THR130     -0.2717
      5  CB        35.2580   17.6920   15.6020 C.3   130  THR130      0.1784
      6  OG1       34.4620   18.6730   14.9280 O.3   130  THR130     -0.2211
      7  CG2       35.9670   16.8370   14.5650 C.3   130  THR130      0.0376
      8  N         36.1000   16.0800   18.0210 N.am  131  LYS131     -0.1979
      9  CA        37.0040   15.1230   18.6540 C.3   131  LYS131      0.1596
     10  C         36.2400   14.1270   19.5270 C.2   131  LYS131      0.2287
     11  O         36.6200   12.9620   19.6340 O.2   131  LYS131     -0.2864
     12  CB        38.0490   15.8710   19.4910 C.3   131  LYS131      0.0298
     13  CG        38.7910   16.9550   18.7230 C.3   131  LYS131      0.0038
     14  CD        39.8780   17.6160   19.5810 C.3   131  LYS131      0.0206
     15  CE        40.4240   18.8630   18.9060 C.3   131  LYS131      0.1093
     16  NZ        41.4760   19.5350   19.7190 N.3   131  LYS131     -0.1314
     17  N         34.6780   11.6600   17.1230 N.3   134  THR134     -0.1218
     18  CA        35.7320   10.8090   16.5800 C.3   134  THR134      0.1862
     19  C         36.2290    9.7950   17.6250 C.2   134  THR134      0.2287
     20  O         36.4630    8.6160   17.3140 O.2   134  THR134     -0.2866
     21  CB        36.9370   11.6690   16.1050 C.3   134  THR134      0.1770
     22  OG1       36.4720   12.6780   15.1970 O.3   134  THR134     -0.2211
     23  CG2       37.9720   10.8090   15.3990 C.3   134  THR134      0.0375
     24  N         35.2200    5.6150   16.9940 N.3   138  PHE138     -0.1241
     25  CA        36.3140    4.6740   16.7780 C.3   138  PHE138      0.1605
     26  C         36.5420    3.7690   17.9840 C.2   138  PHE138      0.2264
     27  O         37.0770    2.6690   17.8520 O.2   138  PHE138     -0.2867
     28  CB        37.5890    5.4260   16.4030 C.3   138  PHE138      0.0534
     29  CG        37.6400    5.8010   14.9550 C.ar  138  PHE138     -0.0203
     30  CD1       38.1190    4.8930   14.0070 C.ar  138  PHE138     -0.0042
     31  CD2       37.1170    7.0190   14.5200 C.ar  138  PHE138     -0.0042
     32  CE1       38.0700    5.1900   12.6480 C.ar  138  PHE138     -0.0003
     33  CE2       37.0610    7.3240   13.1610 C.ar  138  PHE138     -0.0003
     34  CZ        37.5370    6.4080   12.2220 C.ar  138  PHE138     -0.0000
     35  N         43.2110  -10.7450   12.1730 N.3   161  PHE161     -0.1241
     36  CA        42.9580   -9.6470   11.2370 C.3   161  PHE161      0.1605
     37  C         41.9590   -8.6940   11.9050 C.2   161  PHE161      0.2264
     38  O         42.0770   -7.4770   11.7840 O.2   161  PHE161     -0.2867
     39  CB        42.3780  -10.1780    9.9130 C.3   161  PHE161      0.0534
     40  CG        42.0900   -9.0980    8.8990 C.ar  161  PHE161     -0.0203
     41  CD1       43.1250   -8.3220    8.3750 C.ar  161  PHE161     -0.0042
     42  CD2       40.7890   -8.8400    8.4930 C.ar  161  PHE161     -0.0042
     43  CE1       42.8650   -7.2940    7.4530 C.ar  161  PHE161     -0.0003
     44  CE2       40.5100   -7.8150    7.5730 C.ar  161  PHE161     -0.0003
     45  CZ        41.5520   -7.0410    7.0530 C.ar  161  PHE161     -0.0000
     46  N         42.5800   -4.7030   13.0430 N.3   165  ILE165     -0.1245
     47  CA        41.6680   -3.6150   12.7100 C.3   165  ILE165      0.1561
     48  C         41.2750   -2.9040   14.0120 C.2   165  ILE165      0.2260
     49  O         41.2030   -1.6800   14.0690 O.2   165  ILE165     -0.2867
     50  CB        40.3950   -4.1390   12.0150 C.3   165  ILE165      0.0252
     51  CG1       40.7570   -4.7590   10.6660 C.3   165  ILE165      0.0019
     52  CG2       39.3960   -2.9990   11.8310 C.3   165  ILE165      0.0019
     53  CD1       39.5950   -5.4600    9.9750 C.3   165  ILE165      0.0001
     54  N         43.9920   -0.5580   15.2110 N.3   168  ALA168     -0.1231
     55  CA        44.0490    0.6720   14.4370 C.3   168  ALA168      0.1694
     56  C         43.0070    1.6580   14.9790 C.2   168  ALA168      0.2592
     57  O         43.2830    2.8520   15.0760 O.2   168  ALA168     -0.2718
     58  CB        43.7900    0.3840   12.9570 C.3   168  ALA168      0.0304
     59  N         41.8170    1.1650   15.3220 N.am  169  CYS169     -0.1970
     60  CA        40.7840    2.0440   15.8680 C.3   169  CYS169      0.1712
     61  C         41.2650    2.5810   17.2170 C.2   169  CYS169      0.2296
     62  O         41.0410    3.7450   17.5460 O.2   169  CYS169     -0.2864
     63  CB        39.4590    1.2930   16.0480 C.3   169  CYS169      0.0983
     64  SG        38.5990    0.8410   14.4970 S.3   169  CYS169     -0.0798
     65  N         43.4530    5.6830   17.1700 N.3   172  VAL172     -0.1245
     66  CA        42.7260    6.9410   17.0050 C.3   172  VAL172      0.1561
     67  C         42.3750    7.4860   18.3960 C.2   172  VAL172      0.2260
     68  O         42.5870    8.6620   18.6870 O.2   172  VAL172     -0.2867
     69  CB        41.4060    6.7330   16.2100 C.3   172  VAL172      0.0252
     70  CG1       40.6190    8.0350   16.1450 C.3   172  VAL172      0.0019
     71  CG2       41.7140    6.2220   14.8080 C.3   172  VAL172      0.0019
     72  N         45.5030    8.6700   20.1800 N.3   175  TYR175     -0.1227
     73  CA        45.9890    9.9300   19.6220 C.3   175  TYR175      0.1736
     74  C         45.2070   11.1180   20.1750 C.2   175  TYR175      0.2595
     75  O         45.7870   12.1410   20.5480 O.2   175  TYR175     -0.2718
     76  CB        45.9030    9.9180   18.0920 C.3   175  TYR175      0.0548
     77  CG        46.3400   11.2240   17.4610 C.ar  175  TYR175     -0.0200
     78  CD1       45.4320   12.2650   17.2670 C.ar  175  TYR175     -0.0009
     79  CD2       47.6690   11.4300   17.0840 C.ar  175  TYR175     -0.0009
     80  CE1       45.8300   13.4760   16.7120 C.ar  175  TYR175      0.0417
     81  CE2       48.0780   12.6460   16.5270 C.ar  175  TYR175      0.0417
     82  CZ        47.1490   13.6590   16.3440 C.ar  175  TYR175      0.1957
     83  OH        47.5320   14.8530   15.7780 O.3   175  TYR175     -0.2866
     84  N         43.8870   10.9870   20.2170 N.am  176  ILE176     -0.1980
     85  CA        43.0420   12.0520   20.7380 C.3   176  ILE176      0.1595
     86  C         43.3260   12.2950   22.2260 C.2   176  ILE176      0.2287
     87  O         43.3900   13.4380   22.6730 O.2   176  ILE176     -0.2864
     88  CB        41.5460   11.7080   20.5310 C.3   176  ILE176      0.0276
     89  CG1       41.2130   11.7990   19.0410 C.3   176  ILE176      0.0022
     90  CG2       40.6560   12.6430   21.3400 C.3   176  ILE176      0.0022
     91  CD1       39.7900   11.4210   18.7020 C.3   176  ILE176      0.0001
     92  N         45.4890   15.5540   21.2760 N.3   180  GLU180     -0.1245
     93  CA        44.4270   16.5470   21.2230 C.3   180  GLU180      0.1567
     94  C         43.9220   17.0780   22.5580 C.2   180  GLU180      0.2260
     95  O         44.0760   18.2600   22.8560 O.2   180  GLU180     -0.2867
     96  CB        43.2500   15.9880   20.4200 C.3   180  GLU180      0.0388
     97  CG        43.5920   15.5790   18.9870 C.3   180  GLU180      0.1160
     98  CD        44.0330   16.7500   18.1120 C.2   180  GLU180      0.3649
     99  OE1       43.4550   17.8520   18.2430 O.co2 180  GLU180     -0.2457
    100  OE2       44.9490   16.5640   17.2810 O.co2 180  GLU180     -0.2457
@<TRIPOS>BOND
     1    45    43   ar
     2    45    44   ar
     3    43    41   ar
     4    44    42   ar
     5    41    40   ar
     6    42    40   ar
     7    40    39    1
     8    39    36    1
     9    53    51    1
    10    51    50    1
    11    36    37    1
    12    36    35    1
    13    38    37    2
    14    52    50    1
    15    50    47    1
    16    34    32   ar
    17    34    33   ar
    18    32    30   ar
    19    47    46    1
    20    47    48    1
    21    58    55    1
    22    33    31   ar
    23    30    29   ar
    24    48    49    2
    25    55    56    1
    26    55    54    1
    27    64    63    1
    28    31    29   ar
    29     7     5    1
    30    71    69    1
    31     6     5    1
    32    29    28    1
    33    56    57    2
    34    56    59   am
    35    22    21    1
    36    59    60    1
    37    23    21    1
    38     5     2    1
    39    83    82    1
    40    60    63    1
    41    60    61    1
    42    21    18    1
    43    70    69    1
    44    69    66    1
    45    82    81   ar
    46    82    80   ar
    47    28    25    1
    48     2     3    1
    49     2     1    1
    50    81    79   ar
    51    18    17    1
    52    18    19    1
    53    80    78   ar
    54     4     3    2
    55    25    24    1
    56    25    26    1
    57    66    65    1
    58    66    67    1
    59    79    77   ar
    60     3     8   am
    61    61    62    2
    62    78    77   ar
    63   100    98   ar
    64    20    19    2
    65    77    76    1
    66    27    26    2
    67     8     9    1
    68    76    73    1
    69    98    99   ar
    70    98    97    1
    71    67    68    2
    72     9    12    1
    73     9    10    1
    74    91    89    1
    75    13    12    1
    76    13    14    1
    77    15    14    1
    78    15    16    1
    79    97    96    1
    80    89    88    1
    81    10    11    2
    82    73    74    1
    83    73    72    1
    84    74    84   am
    85    74    75    2
    86    84    85    1
    87    96    93    1
    88    88    85    1
    89    88    90    1
    90    85    86    1
    91    93    92    1
    92    93    94    1
    93    86    87    2
    94    94    95    2
