@<TRIPOS>MOLECULE
tmp/3qbiA06.pdb
 97 87 0 0 0
SMALL
GASTEIGER

@<TRIPOS>ATOM
      1  N         28.4320   -2.2540   42.2700 N.3    29  GLY29      -0.1225
      2  CA        27.2860   -1.7880   43.0330 C.3    29  GLY29       0.1811
      3  C         27.6660   -0.8000   44.1240 C.2    29  GLY29       0.2280
      4  O         26.9610    0.1870   44.3390 O.2    29  GLY29      -0.2866
      5  N         28.5500    2.6290   42.5360 N.3    32  ILE32      -0.1231
      6  CA        27.3580    3.4090   42.1940 C.3    32  ILE32       0.1692
      7  C         26.8240    4.1790   43.4120 C.2    32  ILE32       0.2591
      8  O         26.5700    5.3830   43.3390 O.2    32  ILE32      -0.2718
      9  CB        26.2320    2.4890   41.6480 C.3    32  ILE32       0.0266
     10  CG1       26.6880    1.8200   40.3420 C.3    32  ILE32       0.0019
     11  CG2       24.9500    3.2970   41.3970 C.3    32  ILE32       0.0020
     12  CD1       25.7300    0.7390   39.8320 C.3    32  ILE32       0.0001
     13  N         26.6550    3.4830   44.5320 N.am   33  LEU33      -0.1980
     14  CA        26.1540    4.1180   45.7430 C.3    33  LEU33       0.1596
     15  C         27.1050    5.2180   46.2070 C.2    33  LEU33       0.2287
     16  O         26.6750    6.3020   46.5950 O.2    33  LEU33      -0.2864
     17  CB        25.9900    3.0730   46.8520 C.3    33  LEU33       0.0297
     18  CG        25.1590    1.8680   46.4100 C.3    33  LEU33       0.0022
     19  CD1       25.1930    0.7850   47.4790 C.3    33  LEU33       0.0001
     20  CD2       23.7300    2.3210   46.1190 C.3    33  LEU33       0.0001
     21  N         26.9770    8.2390   43.6280 N.3    36  VAL36      -0.1245
     22  CA        25.7470    9.0200   43.7290 C.3    36  VAL36       0.1561
     23  C         25.8080    9.8930   44.9860 C.2    36  VAL36       0.2260
     24  O         25.3860   11.0490   44.9740 O.2    36  VAL36      -0.2867
     25  CB        24.4850    8.1080   43.7960 C.3    36  VAL36       0.0252
     26  CG1       23.2560    8.9370   44.2010 C.3    36  VAL36       0.0019
     27  CG2       24.2240    7.4710   42.4270 C.3    36  VAL36       0.0019
     28  N         28.3610   12.9770   44.4700 N.3    39  THR39      -0.1203
     29  CA        27.9120   14.0130   43.5490 C.3    39  THR39       0.1994
     30  C         26.5920   14.6790   43.8920 C.2    39  THR39       0.2617
     31  O         26.0990   15.4960   43.1270 O.2    39  THR39      -0.2717
     32  CB        27.7880   13.4240   42.1440 C.3    39  THR39       0.1784
     33  OG1       26.9480   12.2650   42.2010 O.3    39  THR39      -0.2211
     34  CG2       29.1600   13.0170   41.6140 C.3    39  THR39       0.0376
     35  N         26.0410   14.3360   45.0490 N.am   40  ARG40      -0.1979
     36  CA        24.7650   14.8670   45.5110 C.3    40  ARG40       0.1597
     37  C         24.6490   16.3970   45.5150 C.2    40  ARG40       0.2287
     38  O         23.5800   16.9390   45.2470 O.2    40  ARG40      -0.2864
     39  CB        24.4760   14.3220   46.9140 C.3    40  ARG40       0.0334
     40  CG        23.1440   13.6030   47.0230 C.3    40  ARG40       0.0492
     41  CD        22.8670   13.1520   48.4490 C.3    40  ARG40       0.2205
     42  NE        21.4400   12.9250   48.6680 N.pl3  40  ARG40      -0.0865
     43  CZ        20.5110   13.8740   48.5850 C.cat  40  ARG40       0.5346
     44  NH1       20.8540   15.1240   48.2880 N.pl3  40  ARG40       0.1354
     45  NH2       19.2360   13.5760   48.7980 N.pl3  40  ARG40       0.1354
     46  N         26.1110   18.5990   43.4410 N.3    42  LEU42      -0.1245
     47  CA        26.3220   19.2590   42.1500 C.3    42  LEU42       0.1561
     48  C         25.0590   19.9650   41.6470 C.2    42  LEU42       0.2260
     49  O         23.9490   19.4680   41.8220 O.2    42  LEU42      -0.2867
     50  CB        26.7810   18.2340   41.1050 C.3    42  LEU42       0.0270
     51  CG        28.2630   18.1110   40.7210 C.3    42  LEU42       0.0019
     52  CD1       29.1880   18.6710   41.7950 C.3    42  LEU42       0.0001
     53  CD2       28.5590   16.6430   40.4440 C.3    42  LEU42       0.0001
     54  N         27.1100   18.1830   36.0540 N.3    48  LYS48      -0.1245
     55  CA        26.2350   17.0290   36.2050 C.3    48  LYS48       0.1561
     56  C         26.3390   16.0570   35.0310 C.2    48  LYS48       0.2260
     57  O         26.2250   14.8480   35.2200 O.2    48  LYS48      -0.2867
     58  CB        24.7830   17.4860   36.3740 C.3    48  LYS48       0.0271
     59  CG        24.4590   18.0700   37.7510 C.3    48  LYS48       0.0035
     60  CD        23.0200   18.5750   37.7820 C.3    48  LYS48       0.0206
     61  CE        22.5380   18.8380   39.1940 C.3    48  LYS48       0.1093
     62  NZ        21.1960   19.5080   39.2120 N.3    48  LYS48      -0.1314
     63  N         29.2840   13.9560   35.6470 N.3    51  ALA51      -0.1231
     64  CA        28.9640   13.0510   36.7470 C.3    51  ALA51       0.1694
     65  C         28.1390   11.8430   36.2830 C.2    51  ALA51       0.2591
     66  O         28.4860   10.7060   36.5800 O.2    51  ALA51      -0.2718
     67  CB        28.2020   13.8190   37.8440 C.3    51  ALA51       0.0304
     68  N         27.0560   12.0950   35.5510 N.am   52  VAL52      -0.1980
     69  CA        26.1830   11.0270   35.0630 C.3    52  VAL52       0.1595
     70  C         26.9000   10.0870   34.0910 C.2    52  VAL52       0.2287
     71  O         26.6950    8.8710   34.1110 O.2    52  VAL52      -0.2864
     72  CB        24.9250   11.6240   34.3760 C.3    52  VAL52       0.0276
     73  CG1       23.9600   10.5110   33.9680 C.3    52  VAL52       0.0022
     74  CG2       24.2310   12.5800   35.3380 C.3    52  VAL52       0.0022
     75  N         29.1140    7.9240   36.3370 N.3    55  ILE55      -0.1245
     76  CA        28.3030    6.9810   37.1040 C.3    55  ILE55       0.1561
     77  C         27.7680    5.8530   36.2170 C.2    55  ILE55       0.2260
     78  O         27.5890    4.7260   36.6720 O.2    55  ILE55      -0.2867
     79  CB        27.1210    7.7090   37.7860 C.3    55  ILE55       0.0252
     80  CG1       27.6610    8.6130   38.8970 C.3    55  ILE55       0.0019
     81  CG2       26.1210    6.6970   38.3530 C.3    55  ILE55       0.0019
     82  CD1       26.6780    9.6770   39.3590 C.3    55  ILE55       0.0001
     83  N         27.3790    1.3300   36.2920 N.3    59  VAL59      -0.1245
     84  CA        26.0080    0.8740   36.0680 C.3    59  VAL59       0.1561
     85  C         26.0740   -0.1760   34.9510 C.2    59  VAL59       0.2260
     86  O         25.5340   -1.2710   35.0800 O.2    59  VAL59      -0.2867
     87  CB        25.0720    2.0390   35.6310 C.3    59  VAL59       0.0252
     88  CG1       23.8320    1.4880   34.9380 C.3    59  VAL59       0.0019
     89  CG2       24.6510    2.8550   36.8480 C.3    59  VAL59       0.0019
     90  N         27.9140   -3.3690   36.2710 N.3    62  ILE62      -0.1245
     91  CA        27.1980   -4.2990   37.1290 C.3    62  ILE62       0.1561
     92  C         26.2340   -5.1330   36.2900 C.2    62  ILE62       0.2260
     93  O         26.1290   -6.3430   36.4730 O.2    62  ILE62      -0.2867
     94  CB        26.4270   -3.5660   38.2740 C.3    62  ILE62       0.0252
     95  CG1       25.9750   -4.5900   39.3250 C.3    62  ILE62       0.0019
     96  CG2       25.2220   -2.8160   37.7220 C.3    62  ILE62       0.0019
     97  CD1       25.4580   -3.9660   40.6030 C.3    62  ILE62       0.0001
@<TRIPOS>BOND
     1    73    72    1
     2    70    71    2
     3    70    69    1
     4    72    69    1
     5    72    74    1
     6    88    87    1
     7    85    86    2
     8    85    84    1
     9    56    57    2
    10    56    55    1
    11    69    68    1
    12    68    65   am
    13    87    84    1
    14    87    89    1
    15    63    64    1
    16    54    55    1
    17    84    83    1
    18    55    58    1
    19    77    78    2
    20    77    76    1
    21    90    91    1
    22    65    66    2
    23    65    64    1
    24    92    93    2
    25    92    91    1
    26    75    76    1
    27    58    59    1
    28    64    67    1
    29    76    79    1
    30    91    94    1
    31    96    94    1
    32    59    60    1
    33    60    61    1
    34    79    81    1
    35    79    80    1
    36    94    95    1
    37    80    82    1
    38    61    62    1
    39    95    97    1
    40    12    10    1
    41    10     9    1
    42    53    51    1
    43    51    50    1
    44    51    52    1
    45    50    47    1
    46    11     9    1
    47    34    32    1
    48    48    49    2
    49    48    47    1
    50     9     6    1
    51    32    33    1
    52    32    29    1
    53    47    46    1
    54     6     5    1
    55     6     7    1
    56     1     2    1
    57    27    25    1
    58     2     3    1
    59    31    30    2
    60     8     7    2
    61     7    13   am
    62    29    30    1
    63    29    28    1
    64    21    22    1
    65    22    25    1
    66    22    23    1
    67    25    26    1
    68    30    35   am
    69     3     4    2
    70    13    14    1
    71    24    23    2
    72    35    36    1
    73    38    37    2
    74    36    37    1
    75    36    39    1
    76    14    15    1
    77    14    17    1
    78    20    18    1
    79    15    16    2
    80    18    17    1
    81    18    19    1
    82    39    40    1
    83    40    41    1
    84    44    43    1
    85    41    42    1
    86    43    42    2
    87    43    45    1
