@<TRIPOS>MOLECULE
tmp/3qbjA04.pdb
 168 163 0 0 0
SMALL
GASTEIGER

@<TRIPOS>ATOM
      1  N         15.2000    7.6070   33.7840 N.3    87  ARG87      -0.1245
      2  CA        14.6670    8.5190   32.7920 C.3    87  ARG87       0.1563
      3  C         14.8330    7.9450   31.3650 C.2    87  ARG87       0.2260
      4  O         13.8970    8.0360   30.5650 O.2    87  ARG87      -0.2867
      5  CB        15.3090    9.9160   32.9280 C.3    87  ARG87       0.0307
      6  CG        14.7010   10.9820   31.9730 C.3    87  ARG87       0.0489
      7  CD        15.4370   12.3120   31.9920 C.3    87  ARG87       0.2205
      8  NE        15.5490   12.8810   33.3380 N.pl3  87  ARG87      -0.0865
      9  CZ        14.6910   13.7390   33.8720 C.cat  87  ARG87       0.5346
     10  NH1       13.6130   14.1170   33.1980 N.pl3  87  ARG87       0.1354
     11  NH2       14.9120   14.2430   35.0740 N.pl3  87  ARG87       0.1354
     12  N         21.7380   10.2320   33.8130 N.3   167  GLU167     -0.1231
     13  CA        20.9850   11.4390   34.1270 C.3   167  GLU167      0.1699
     14  C         21.6920   12.7630   33.7730 C.2   167  GLU167      0.2592
     15  O         21.0600   13.6900   33.2540 O.2   167  GLU167     -0.2718
     16  CB        20.5600   11.4150   35.6170 C.3   167  GLU167      0.0402
     17  CG        19.6650   12.5690   36.0670 C.3   167  GLU167      0.1161
     18  CD        18.3650   12.7920   35.3030 C.2   167  GLU167      0.3649
     19  OE1       17.7700   11.8070   34.7940 O.co2 167  GLU167     -0.2457
     20  OE2       17.9370   13.9700   35.2320 O.co2 167  GLU167     -0.2457
     21  N         22.9560   12.8680   34.1000 N.am  168  GLU168     -0.1979
     22  CA        23.6860   14.1310   34.0160 C.3   168  GLU168      0.1602
     23  C         24.6870   14.3280   32.8990 C.2   168  GLU168      0.2287
     24  O         24.9570   15.4660   32.5510 O.2   168  GLU168     -0.2864
     25  CB        24.3840   14.4270   35.3850 C.3   168  GLU168      0.0415
     26  CG        23.5050   14.3020   36.6230 C.3   168  GLU168      0.1163
     27  CD        22.3270   15.2580   36.7350 C.2   168  GLU168      0.3649
     28  OE1       22.1420   16.1090   35.8340 O.co2 168  GLU168     -0.2457
     29  OE2       21.5750   15.1470   37.7290 O.co2 168  GLU168     -0.2457
     30  N         22.7580   11.7850   29.1780 N.3   171  SER171     -0.1217
     31  CA        21.3210   11.9510   28.9280 C.3   171  SER171      0.1889
     32  C         20.8360   10.7850   28.0390 C.2   171  SER171      0.2288
     33  O         20.0680   10.9730   27.0880 O.2   171  SER171     -0.2866
     34  CB        20.9940   13.3160   28.3150 C.3   171  SER171      0.2089
     35  OG        21.4410   14.3510   29.1750 O.3   171  SER171     -0.2183
     36  N         24.8450   22.6950   29.7490 N.3   319  PHE319     -0.1227
     37  CA        24.7070   21.6320   30.7270 C.3   319  PHE319      0.1736
     38  C         25.9550   20.7760   30.6810 C.2   319  PHE319      0.2595
     39  O         26.3540   20.1950   31.6900 O.2   319  PHE319     -0.2718
     40  CB        23.4430   20.7970   30.4580 C.3   319  PHE319      0.0547
     41  CG        22.1910   21.5030   30.9060 C.ar  319  PHE319     -0.0202
     42  CD1       21.7240   21.3640   32.2080 C.ar  319  PHE319     -0.0042
     43  CD2       21.4980   22.3440   30.0360 C.ar  319  PHE319     -0.0042
     44  CE1       20.5750   22.0440   32.6340 C.ar  319  PHE319     -0.0003
     45  CE2       20.3440   23.0170   30.4560 C.ar  319  PHE319     -0.0003
     46  CZ        19.8920   22.8660   31.7490 C.ar  319  PHE319     -0.0000
     47  N         26.5970   20.7180   29.5180 N.am  320  ARG320     -0.1980
     48  CA        27.8380   19.9600   29.3200 C.3   320  ARG320      0.1597
     49  C         28.5810   20.5830   28.1550 C.2   320  ARG320      0.2287
     50  O         27.9430   21.2830   27.3720 O.2   320  ARG320     -0.2864
     51  CB        27.5390   18.4530   29.0440 C.3   320  ARG320      0.0334
     52  CG        26.6470   18.1790   27.8190 C.3   320  ARG320      0.0492
     53  CD        26.8090   16.7730   27.2800 C.3   320  ARG320      0.2205
     54  NE        25.9240   16.5460   26.1350 N.pl3 320  ARG320     -0.0865
     55  CZ        24.7770   15.8690   26.1800 C.cat 320  ARG320      0.5346
     56  NH1       24.3680   15.3100   27.3170 N.pl3 320  ARG320      0.1354
     57  NH2       24.0380   15.7320   25.0860 N.pl3 320  ARG320      0.1354
     58  N         10.2700   27.3280   37.3710 N.3   509  TYR509     -0.1241
     59  CA        11.3240   26.3400   37.2290 C.3   509  TYR509      0.1605
     60  C         12.5910   27.0520   37.7200 C.2   509  TYR509      0.2264
     61  O         13.0150   26.8130   38.8480 O.2   509  TYR509     -0.2867
     62  CB        11.4530   25.7690   35.8050 C.3   509  TYR509      0.0534
     63  CG        12.3940   24.5870   35.8170 C.ar  509  TYR509     -0.0201
     64  CD1       13.7010   24.7120   35.3590 C.ar  509  TYR509     -0.0009
     65  CD2       12.0320   23.3890   36.4390 C.ar  509  TYR509     -0.0009
     66  CE1       14.6080   23.6650   35.4680 C.ar  509  TYR509      0.0417
     67  CE2       12.9160   22.3190   36.5080 C.ar  509  TYR509      0.0417
     68  CZ        14.2070   22.4620   36.0260 C.ar  509  TYR509      0.1957
     69  OH        15.0760   21.4010   36.1010 O.3   509  TYR509     -0.2866
     70  N         10.3080   19.8900   40.7460 N.3   592  SER592     -0.1202
     71  CA        11.7850   19.6650   40.7810 C.3   592  SER592      0.2020
     72  C         12.5220   20.9260   41.2640 C.2   592  SER592      0.2618
     73  O         12.3580   21.3130   42.4140 O.2   592  SER592     -0.2717
     74  CB        12.3610   19.2500   39.4090 C.3   592  SER592      0.2103
     75  OG        11.4640   18.4680   38.6390 O.3   592  SER592     -0.2182
     76  N         13.3240   21.5680   40.3750 N.am  593  TYR593     -0.1975
     77  CA        14.0010   22.8240   40.6830 C.3   593  TYR593      0.1639
     78  C         12.9140   23.8880   40.9790 C.2   593  TYR593      0.2290
     79  O         13.0700   24.7130   41.8750 O.2   593  TYR593     -0.2864
     80  CB        14.9010   23.2790   39.5090 C.3   593  TYR593      0.0560
     81  CG        15.9850   24.2390   39.9540 C.ar  593  TYR593     -0.0198
     82  CD1       15.6870   25.5650   40.2680 C.ar  593  TYR593     -0.0009
     83  CD2       17.2900   23.8000   40.1550 C.ar  593  TYR593     -0.0009
     84  CE1       16.6710   26.4440   40.7120 C.ar  593  TYR593      0.0417
     85  CE2       18.2820   24.6690   40.6130 C.ar  593  TYR593      0.0417
     86  CZ        17.9640   25.9860   40.9060 C.ar  593  TYR593      0.1957
     87  OH        18.9430   26.8470   41.3350 O.3   593  TYR593     -0.2866
     88  N         13.8750   19.9640   45.5890 N.3   618  VAL618     -0.1245
     89  CA        15.1860   19.8170   46.1830 C.3   618  VAL618      0.1561
     90  C         15.0050   20.7190   47.4490 C.2   618  VAL618      0.2260
     91  O         14.2590   21.6950   47.3890 O.2   618  VAL618     -0.2867
     92  CB        16.3320   20.3170   45.2370 C.3   618  VAL618      0.0252
     93  CG1       17.6370   20.5680   45.9960 C.3   618  VAL618      0.0019
     94  CG2       16.5630   19.3410   44.0860 C.3   618  VAL618      0.0019
     95  N         21.2050   21.2370   48.8240 N.3   621  TRP621     -0.1241
     96  CA        22.0350   20.7960   47.7070 C.3   621  TRP621      0.1605
     97  C         22.9240   19.5630   47.9530 C.2   621  TRP621      0.2264
     98  O         23.2210   18.8420   47.0040 O.2   621  TRP621     -0.2867
     99  CB        22.7160   21.9750   47.0010 C.3   621  TRP621      0.0550
    100  CG        21.7200   22.8050   46.2470 C.ar  621  TRP621      0.0003
    101  CD1       21.2320   24.0290   46.6060 C.ar  621  TRP621      0.0946
    102  CD2       20.9660   22.3970   45.0940 C.ar  621  TRP621      0.0152
    103  NE1       20.2810   24.4440   45.7030 N.ar  621  TRP621     -0.2442
    104  CE2       20.0790   23.4520   44.7780 C.ar  621  TRP621      0.0810
    105  CE3       20.9760   21.2490   44.2750 C.ar  621  TRP621      0.0012
    106  CZ2       19.2180   23.4000   43.6850 C.ar  621  TRP621      0.0191
    107  CZ3       20.1130   21.1990   43.1880 C.ar  621  TRP621      0.0001
    108  CH2       19.2410   22.2590   42.9130 C.ar  621  TRP621      0.0015
    109  N         21.3630   16.2640   46.6370 N.3   624  TYR624     -0.1241
    110  CA        21.2890   16.0610   45.1960 C.3   624  TYR624      0.1605
    111  C         22.6210   15.5370   44.6340 C.2   624  TYR624      0.2264
    112  O         23.6320   15.5950   45.3310 O.2   624  TYR624     -0.2867
    113  CB        20.7070   17.2860   44.4730 C.3   624  TYR624      0.0534
    114  CG        20.1460   16.9110   43.1210 C.ar  624  TYR624     -0.0201
    115  CD1       19.0750   16.0310   43.0130 C.ar  624  TYR624     -0.0009
    116  CD2       20.7440   17.3560   41.9490 C.ar  624  TYR624     -0.0009
    117  CE1       18.5990   15.6210   41.7740 C.ar  624  TYR624      0.0417
    118  CE2       20.2560   16.9770   40.7030 C.ar  624  TYR624      0.0417
    119  CZ        19.1860   16.1000   40.6220 C.ar  624  TYR624      0.1957
    120  OH        18.7040   15.6710   39.4090 O.3   624  TYR624     -0.2866
    121  N         25.5000   17.2890   38.7530 N.3   628  TYR628     -0.1241
    122  CA        24.6810   18.4730   38.5460 C.3   628  TYR628      0.1605
    123  C         24.9990   19.5520   39.5600 C.2   628  TYR628      0.2264
    124  O         25.1960   20.6870   39.1560 O.2   628  TYR628     -0.2867
    125  CB        23.1970   18.0980   38.5690 C.3   628  TYR628      0.0534
    126  CG        22.2630   19.2740   38.4050 C.ar  628  TYR628     -0.0201
    127  CD1       21.8090   19.9870   39.5120 C.ar  628  TYR628     -0.0009
    128  CD2       21.7640   19.6230   37.1550 C.ar  628  TYR628     -0.0009
    129  CE1       20.9250   21.0510   39.3710 C.ar  628  TYR628      0.0417
    130  CE2       20.8700   20.6800   37.0030 C.ar  628  TYR628      0.0417
    131  CZ        20.4600   21.3970   38.1150 C.ar  628  TYR628      0.1957
    132  OH        19.5870   22.4470   37.9790 O.3   628  TYR628     -0.2866
    133  N         28.5560   21.3360   39.4660 N.3   631  ARG631     -0.1245
    134  CA        28.6460   22.1350   38.2580 C.3   631  ARG631      0.1563
    135  C         28.3590   23.5960   38.6140 C.2   631  ARG631      0.2260
    136  O         29.0700   24.4900   38.1580 O.2   631  ARG631     -0.2867
    137  CB        27.6430   21.6130   37.2190 C.3   631  ARG631      0.0307
    138  CG        27.5910   22.3970   35.8980 C.3   631  ARG631      0.0489
    139  CD        27.2690   21.4800   34.7270 C.3   631  ARG631      0.2205
    140  NE        25.8760   21.0990   34.6700 N.pl3 631  ARG631     -0.0865
    141  CZ        25.4440   19.8520   34.5220 C.cat 631  ARG631      0.5346
    142  NH1       26.3050   18.8490   34.4210 N.pl3 631  ARG631      0.1354
    143  NH2       24.1480   19.6010   34.4440 N.pl3 631  ARG631      0.1354
    144  N         15.6510   10.1740   41.7810 N.3   672  ASN672     -0.1225
    145  CA        16.3290   11.3870   41.3300 C.3   672  ASN672      0.1785
    146  C         16.4280   12.4190   42.4550 C.2   672  ASN672      0.2597
    147  O         17.5240   12.6860   42.9350 O.2   672  ASN672     -0.2718
    148  CB        15.5860   11.9100   40.0780 C.3   672  ASN672      0.1169
    149  CG        16.1140   13.1670   39.4690 C.2   672  ASN672      0.2627
    150  OD1       17.2190   13.6170   39.7360 O.2   672  ASN672     -0.2716
    151  ND2       15.3120   13.7810   38.6470 N.am  672  ASN672     -0.0877
    152  N         15.2860   12.9960   42.8610 N.am  673  VAL673     -0.1980
    153  CA        15.1880   13.9260   43.9870 C.3   673  VAL673      0.1595
    154  C         14.5430   13.0580   45.0500 C.2   673  VAL673      0.2287
    155  O         13.3260   12.8770   45.0520 O.2   673  VAL673     -0.2864
    156  CB        14.3480   15.1920   43.6610 C.3   673  VAL673      0.0276
    157  CG1       14.2340   16.0990   44.8840 C.3   673  VAL673      0.0022
    158  CG2       14.9680   15.9510   42.5040 C.3   673  VAL673      0.0022
    159  N         10.0690   10.6650   40.0950 N.3   702  HIS702     -0.1241
    160  CA        10.1260   12.1070   39.8430 C.3   702  HIS702      0.1621
    161  C          9.0240   12.6870   38.9460 C.2   702  HIS702      0.2264
    162  O          8.5850   13.8260   39.1610 O.2   702  HIS702     -0.2867
    163  CB        11.4990   12.4850   39.2850 C.3   702  HIS702      0.0745
    164  CG        11.8190   13.9160   39.5010 C.ar  702  HIS702      0.0817
    165  ND1       11.7950   14.4690   40.7620 N.ar  702  HIS702     -0.2268
    166  CD2       12.1180   14.8800   38.6020 C.ar  702  HIS702      0.1154
    167  CE1       12.0770   15.7490   40.5990 C.ar  702  HIS702      0.1986
    168  NE2       12.3150   16.0340   39.3250 N.ar  702  HIS702     -0.2212
@<TRIPOS>BOND
     1    57    55    1
     2    54    55    2
     3    54    53    1
     4    55    56    1
     5    33    32    2
     6    53    52    1
     7    50    49    2
     8    52    51    1
     9    32    31    1
    10    49    48    1
    11    34    31    1
    12    34    35    1
    13    31    30    1
    14    51    48    1
    15    48    47    1
    16    47    38   am
    17    36    37    1
    18    43    45   ar
    19    43    41   ar
    20    45    46   ar
    21    40    37    1
    22    40    41    1
    23     4     3    2
    24    38    37    1
    25    38    39    2
    26    41    42   ar
    27     3     2    1
    28    46    44   ar
    29     6     7    1
    30     6     5    1
    31     7     8    1
    32    42    44   ar
    33    24    23    2
    34     2     5    1
    35     2     1    1
    36    23    22    1
    37    10     9    1
    38    15    14    2
    39     8     9    2
    40    14    21   am
    41    14    13    1
    42    12    13    1
    43     9    11    1
    44    22    21    1
    45    22    25    1
    46    13    16    1
    47   142   141    1
    48   143   141    1
    49   141   140    2
    50   140   139    1
    51   139   138    1
    52    19    18   ar
    53    20    18   ar
    54    18    17    1
    55    64    66   ar
    56    64    63   ar
    57    25    26    1
    58    66    68   ar
    59    16    17    1
    60    62    63    1
    61    62    59    1
    62    63    65   ar
    63    28    27   ar
    64   138   137    1
    65    68    69    1
    66    68    67   ar
    67    65    67   ar
    68    26    27    1
    69    27    29   ar
    70   130   128   ar
    71   130   131   ar
    72   128   126   ar
    73   137   134    1
    74    59    58    1
    75    59    60    1
    76    60    61    2
    77   132   131    1
    78   131   129   ar
    79   136   135    2
    80   134   135    1
    81   134   133    1
    82   126   125    1
    83   126   127   ar
    84   122   125    1
    85   122   121    1
    86   122   123    1
    87   166   168   ar
    88   166   164   ar
    89    75    74    1
    90   151   149   am
    91   161   162    2
    92   161   160    1
    93   124   123    2
    94   163   164    1
    95   163   160    1
    96   168   167   ar
    97   129   127   ar
    98   120   119    1
    99    74    71    1
   100   149   150    2
   101   149   148    1
   102   164   165   ar
   103    80    81    1
   104    80    77    1
   105   160   159    1
   106    81    83   ar
   107    81    82   ar
   108   148   145    1
   109    83    85   ar
   110    82    84   ar
   111    76    77    1
   112    76    72   am
   113   167   165   ar
   114    85    86   ar
   115   119   118   ar
   116   119   117   ar
   117    77    78    1
   118   118   116   ar
   119    84    86   ar
   120    70    71    1
   121    71    72    1
   122    86    87    1
   123    78    79    2
   124    72    73    2
   125   145   144    1
   126   145   146    1
   127   117   115   ar
   128   116   114   ar
   129   146   152   am
   130   146   147    2
   131   158   156    1
   132   152   153    1
   133   108   107   ar
   134   108   106   ar
   135   115   114   ar
   136   114   113    1
   137   107   105   ar
   138   156   153    1
   139   156   157    1
   140   106   104   ar
   141   153   154    1
   142    94    92    1
   143   105   102   ar
   144   113   110    1
   145   111   110    1
   146   111   112    2
   147   104   102   ar
   148   104   103   ar
   149   154   155    2
   150   102   100   ar
   151   110   109    1
   152    92    93    1
   153    92    89    1
   154    88    89    1
   155   103   101   ar
   156    89    90    1
   157   100   101   ar
   158   100    99    1
   159    99    96    1
   160    98    97    2
   161    91    90    2
   162    96    97    1
   163    96    95    1
