@<TRIPOS>MOLECULE
tmp/3qbnA00.pdb
 145 136 0 0 0
SMALL
GASTEIGER

@<TRIPOS>ATOM
      1  N          7.2260   28.7340   -3.9170 N.3    12  ARG12      -0.1245
      2  CA         6.5300   28.8330   -2.6290 C.3    12  ARG12       0.1563
      3  C          5.0480   28.5840   -2.7560 C.2    12  ARG12       0.2260
      4  O          4.4480   28.9180   -3.7780 O.2    12  ARG12      -0.2867
      5  CB         6.7290   30.1940   -1.9430 C.3    12  ARG12       0.0307
      6  CG         5.7850   31.2870   -2.4080 C.3    12  ARG12       0.0489
      7  CD         5.1920   32.1440   -1.2890 C.3    12  ARG12       0.2205
      8  NE         4.1970   33.0380   -1.8830 N.pl3  12  ARG12      -0.0865
      9  CZ         3.5630   34.0380   -1.2750 C.cat  12  ARG12       0.5346
     10  NH1        3.7980   34.3330   -0.0050 N.pl3  12  ARG12       0.1354
     11  NH2        2.6850   34.7570   -1.9570 N.pl3  12  ARG12       0.1354
     12  N          1.1030   29.0200   -2.2060 N.3    14  LEU14      -0.1231
     13  CA         0.2430   30.1850   -2.2310 C.3    14  LEU14       0.1693
     14  C         -0.9370   30.0640   -1.2710 C.2    14  LEU14       0.2592
     15  O         -1.2720   31.0160   -0.5730 O.2    14  LEU14      -0.2718
     16  CB        -0.2130   30.4700   -3.6610 C.3    14  LEU14       0.0284
     17  CG         0.8650   30.9380   -4.6440 C.3    14  LEU14       0.0019
     18  CD1        0.4690   30.5710   -6.0380 C.3    14  LEU14       0.0001
     19  CD2        1.1090   32.4370   -4.5510 C.3    14  LEU14       0.0001
     20  N         -1.5550   28.8910   -1.2300 N.am   15  GLY15      -0.1957
     21  CA        -2.6850   28.6520   -0.3430 C.3    15  GLY15       0.1869
     22  C         -2.7840   27.1860    0.0240 C.2    15  GLY15       0.2309
     23  O         -2.6950   26.3090   -0.8510 O.2    15  GLY15      -0.2863
     24  N         -1.8860   24.7830   -3.5800 N.3    22  VAL22      -0.1245
     25  CA        -1.5740   25.5230   -4.7930 C.3    22  VAL22       0.1561
     26  C         -0.2650   26.2870   -4.5860 C.2    22  VAL22       0.2260
     27  O         -0.0550   26.9340   -3.5540 O.2    22  VAL22      -0.2867
     28  CB        -2.7760   26.3930   -5.2760 C.3    22  VAL22       0.0252
     29  CG1       -3.4030   27.1170   -4.1290 C.3    22  VAL22       0.0019
     30  CG2       -2.3670   27.3650   -6.3580 C.3    22  VAL22       0.0019
     31  N          0.4310   29.7880  -11.6020 N.3    35  ALA35      -0.1245
     32  CA         0.0950   29.0110  -10.4110 C.3    35  ALA35       0.1562
     33  C         -0.2310   27.5670  -10.7790 C.2    35  ALA35       0.2260
     34  O         -0.8850   27.2990  -11.7870 O.2    35  ALA35      -0.2867
     35  CB        -1.0530   29.6450   -9.6590 C.3    35  ALA35       0.0290
     36  N        -10.1630   33.4420  -14.3740 N.3    69  LEU69      -0.1245
     37  CA        -8.8460   32.8120  -14.3060 C.3    69  LEU69       0.1561
     38  C         -8.7410   31.7310  -15.3730 C.2    69  LEU69       0.2260
     39  O         -9.5510   30.7970  -15.4360 O.2    69  LEU69      -0.2867
     40  CB        -8.5750   32.2140  -12.9210 C.3    69  LEU69       0.0270
     41  CG        -7.1400   32.2560  -12.4030 C.3    69  LEU69       0.0019
     42  CD1       -6.9870   33.5120  -11.5700 C.3    69  LEU69       0.0001
     43  CD2       -6.7710   31.0270  -11.5860 C.3    69  LEU69       0.0001
     44  N         -2.6400   26.8610  -13.6890 N.3    85  LEU85      -0.1231
     45  CA        -3.5380   28.0010  -13.6440 C.3    85  LEU85       0.1693
     46  C         -2.8970   29.3380  -13.9490 C.2    85  LEU85       0.2592
     47  O         -1.6910   29.4710  -13.8830 O.2    85  LEU85      -0.2718
     48  CB        -4.1540   28.0790  -12.2560 C.3    85  LEU85       0.0284
     49  CG        -5.1800   27.0270  -11.8740 C.3    85  LEU85       0.0019
     50  CD1       -5.7500   27.4240  -10.5290 C.3    85  LEU85       0.0001
     51  CD2       -6.2630   26.9480  -12.9290 C.3    85  LEU85       0.0001
     52  N         -3.7240   30.3340  -14.2550 N.am   86  GLU86      -0.1966
     53  CA        -3.2880   31.7230  -14.2410 C.3    86  GLU86       0.1733
     54  C         -2.6670   32.0170  -12.8640 C.2    86  GLU86       0.2616
     55  O         -2.9310   31.2960  -11.9050 O.2    86  GLU86      -0.2715
     56  CB        -4.4500   32.6890  -14.5690 C.3    86  GLU86       0.0429
     57  CG        -4.0400   34.1700  -14.5830 C.3    86  GLU86       0.1163
     58  CD        -5.0400   35.1520  -15.1980 C.2    86  GLU86       0.3649
     59  OE1       -6.0070   34.7480  -15.8760 O.co2  86  GLU86      -0.2457
     60  OE2       -4.8280   36.3680  -15.0130 O.co2  86  GLU86      -0.2457
     61  N         -1.7960   33.0260  -12.7850 N.am   87  TYR87      -0.1960
     62  CA        -1.3290   33.5490  -11.5150 C.3    87  TYR87       0.1771
     63  C         -1.9110   34.9490  -11.2690 C.2    87  TYR87       0.2619
     64  O         -1.8050   35.8600  -12.1010 O.2    87  TYR87      -0.2715
     65  CB         0.2030   33.4790  -11.4040 C.3    87  TYR87       0.0574
     66  CG         0.8000   34.2470  -10.2200 C.ar   87  TYR87      -0.0198
     67  CD1        0.3220   34.0650   -8.9160 C.ar   87  TYR87      -0.0009
     68  CD2        1.8510   35.1550  -10.4090 C.ar   87  TYR87      -0.0009
     69  CE1        0.8520   34.7820   -7.8480 C.ar   87  TYR87       0.0417
     70  CE2        2.3910   35.8630   -9.3470 C.ar   87  TYR87       0.0417
     71  CZ         1.8900   35.6750   -8.0700 C.ar   87  TYR87       0.1957
     72  OH         2.4360   36.3910   -7.0160 O.3    87  TYR87      -0.2866
     73  N         -2.5610   35.0640  -10.1100 N.am   88  ALA88      -0.1964
     74  CA        -3.2130   36.2730   -9.6270 C.3    88  ALA88       0.1713
     75  C         -2.3810   36.9110   -8.5130 C.2    88  ALA88       0.2458
     76  O         -2.4810   36.5430   -7.3550 O.2    88  ALA88      -0.2730
     77  CB        -4.5780   35.9330   -9.1280 C.3    88  ALA88       0.0333
     78  N         -1.5530   37.8890   -8.8650 N.am   89  PRO89      -0.2716
     79  CA        -0.5120   38.3760   -7.9680 C.3    89  PRO89       0.1536
     80  C         -1.0040   39.1680   -6.7680 C.2    89  PRO89       0.2598
     81  O         -0.1960   39.7470   -6.0550 O.2    89  PRO89      -0.2715
     82  CB         0.3360   39.2860   -8.8720 C.3    89  PRO89       0.0310
     83  CG        -0.0560   38.9380  -10.2730 C.3    89  PRO89       0.0237
     84  CD        -1.4930   38.5440  -10.1820 C.3    89  PRO89       0.0939
     85  N         -2.3020   39.2180   -6.5300 N.am   90  LEU90      -0.1964
     86  CA        -2.7590   39.9030   -5.3260 C.3    90  LEU90       0.1728
     87  C         -3.7120   39.0660   -4.4630 C.2    90  LEU90       0.2617
     88  O         -4.5480   39.5980   -3.7360 O.2    90  LEU90      -0.2715
     89  CB        -3.3120   41.3060   -5.6420 C.3    90  LEU90       0.0311
     90  CG        -2.5160   42.3040   -6.5120 C.3    90  LEU90       0.0022
     91  CD1       -3.2690   43.6240   -6.6730 C.3    90  LEU90       0.0001
     92  CD2       -1.0900   42.5670   -6.0290 C.3    90  LEU90       0.0001
     93  N         -3.5620   37.7460   -4.5400 N.am   91  GLY91      -0.1940
     94  CA        -4.1820   36.8370   -3.5890 C.3    91  GLY91       0.2014
     95  C         -5.6740   36.7180   -3.6940 C.2    91  GLY91       0.2639
     96  O         -6.2430   36.9260   -4.7550 O.2    91  GLY91      -0.2714
     97  N         -6.3080   36.3830   -2.5790 N.am   92  THR92      -0.1950
     98  CA        -7.7450   36.1950   -2.5540 C.3    92  THR92       0.1897
     99  C         -8.4250   37.5390   -2.2990 C.2    92  THR92       0.2313
    100  O         -7.7770   38.4750   -1.8060 O.2    92  THR92      -0.2863
    101  CB        -8.1660   35.0920   -1.5400 C.3    92  THR92       0.1794
    102  OG1       -7.8730   35.4940   -0.2060 O.3    92  THR92      -0.2208
    103  CG2       -7.4060   33.8150   -1.8030 C.3    92  THR92       0.0378
    104  N         -8.6610   37.4830    1.4600 N.3    95  ARG95      -0.1245
    105  CA        -7.4700   38.0940    2.0330 C.3    95  ARG95       0.1563
    106  C         -7.6790   39.5940    2.1970 C.2    95  ARG95       0.2260
    107  O         -7.4310   40.1220    3.2760 O.2    95  ARG95      -0.2867
    108  CB        -6.1910   37.7640    1.2280 C.3    95  ARG95       0.0307
    109  CG        -4.8590   38.4660    1.6880 C.3    95  ARG95       0.0489
    110  CD        -4.5640   38.3930    3.2200 C.3    95  ARG95       0.2205
    111  NE        -4.4390   37.0260    3.7450 N.pl3  95  ARG95      -0.0865
    112  CZ        -5.4270   36.3080    4.2930 C.cat  95  ARG95       0.5346
    113  NH1       -6.6570   36.7920    4.4200 N.pl3  95  ARG95       0.1354
    114  NH2       -5.1840   35.0780    4.7180 N.pl3  95  ARG95       0.1354
    115  N         -8.5470   41.6360    6.0360 N.3    99  LYS99      -0.1245
    116  CA        -7.6040   42.7220    6.3340 C.3    99  LYS99       0.1561
    117  C         -8.1870   44.1640    6.2990 C.2    99  LYS99       0.2260
    118  O         -7.6250   45.0830    6.9100 O.2    99  LYS99      -0.2867
    119  CB        -6.3720   42.5980    5.4200 C.3    99  LYS99       0.0271
    120  CG        -5.7230   41.1910    5.5290 C.3    99  LYS99       0.0035
    121  CD        -4.1620   41.3600    5.3640 C.3    99  LYS99       0.0206
    122  CE        -3.4480   40.1030    5.8690 C.3    99  LYS99       0.1093
    123  NZ        -2.0290   39.9520    5.3690 N.3    99  LYS99      -0.1314
    124  N        -13.7590   32.9990   -1.4150 N.3   135  GLU135     -0.1245
    125  CA       -12.5890   32.1460   -1.1760 C.3   135  GLU135      0.1567
    126  C        -11.8810   31.9510   -2.5010 C.2   135  GLU135      0.2260
    127  O        -10.7040   31.5820   -2.5490 O.2   135  GLU135     -0.2867
    128  CB       -12.9670   30.7750   -0.6270 C.3   135  GLU135      0.0388
    129  CG       -13.3360   30.7720    0.8220 C.3   135  GLU135      0.1160
    130  CD       -14.8210   31.0000    1.0310 C.2   135  GLU135      0.3649
    131  OE1      -15.5570   29.9890    0.9410 O.co2 135  GLU135     -0.2457
    132  OE2      -15.2420   32.1660    1.2900 O.co2 135  GLU135     -0.2457
    133  N         -9.9710   36.1430   -7.1520 N.3   138  LEU138     -0.1245
    134  CA        -8.5790   36.5000   -7.0820 C.3   138  LEU138      0.1561
    135  C         -8.3130   37.8060   -7.8020 C.2   138  LEU138      0.2260
    136  O         -9.0990   38.2460   -8.6380 O.2   138  LEU138     -0.2867
    137  CB        -7.7650   35.3840   -7.7040 C.3   138  LEU138      0.0270
    138  CG        -7.9120   34.0090   -7.0690 C.3   138  LEU138      0.0019
    139  CD1       -7.1200   32.9490   -7.8170 C.3   138  LEU138      0.0001
    140  CD2       -7.4450   34.0970   -5.6460 C.3   138  LEU138      0.0001
    141  N        -12.0620   31.9660  -10.0400 N.3   148  ALA148     -0.1245
    142  CA       -11.3830   30.6910  -10.2200 C.3   148  ALA148      0.1562
    143  C        -12.1940   29.5280   -9.6340 C.2   148  ALA148      0.2260
    144  O        -12.0630   29.2320   -8.4600 O.2   148  ALA148     -0.2867
    145  CB       -10.0260   30.7490   -9.5820 C.3   148  ALA148      0.0290
@<TRIPOS>BOND
     1    59    58   ar
     2    39    38    2
     3    38    37    1
     4    58    60   ar
     5    58    57    1
     6    57    56    1
     7    56    53    1
     8    36    37    1
     9    37    40    1
    10    52    53    1
    11    52    46   am
    12    53    54    1
    13    46    47    2
    14    46    45    1
    15    44    45    1
    16    45    48    1
    17    51    49    1
    18    40    41    1
    19    54    61   am
    20    54    55    2
    21    61    62    1
    22    41    43    1
    23    41    42    1
    24    48    49    1
    25    64    63    2
    26    49    50    1
    27    34    33    2
    28    31    32    1
    29    62    65    1
    30    62    63    1
    31    65    66    1
    32    63    73   am
    33    33    32    1
    34    32    35    1
    35    68    66   ar
    36    68    70   ar
    37    83    84    1
    38    83    82    1
    39   142   141    1
    40   142   143    1
    41   142   145    1
    42    66    67   ar
    43    84    78    1
    44    73    74    1
    45   143   144    2
    46    74    77    1
    47    74    75    1
    48    70    71   ar
    49    67    69   ar
    50    82    79    1
    51    78    75   am
    52    78    79    1
    53   136   135    2
    54    75    76    2
    55    71    69   ar
    56    71    72    1
    57    79    80    1
    58   139   138    1
    59   135   134    1
    60   137   134    1
    61   137   138    1
    62   133   134    1
    63   138   140    1
    64    80    85   am
    65    80    81    2
    66    91    90    1
    67    85    86    1
    68    90    92    1
    69    90    89    1
    70    30    28    1
    71    18    17    1
    72    89    86    1
    73    86    87    1
    74    28    25    1
    75    28    29    1
    76    25    26    1
    77    25    24    1
    78    96    95    2
    79    17    19    1
    80    17    16    1
    81    26    27    2
    82    93    87   am
    83    93    94    1
    84    87    88    2
    85     1     2    1
    86     4     3    2
    87    95    94    1
    88    95    97   am
    89    16    13    1
    90     3     2    1
    91     2     5    1
    92    97    98    1
    93    98    99    1
    94    98   101    1
    95   127   126    2
    96   126   125    1
    97     6     5    1
    98     6     7    1
    99    99   100    2
   100    13    12    1
   101    13    14    1
   102    11     9    1
   103     8     7    1
   104     8     9    2
   105   103   101    1
   106   101   102    1
   107   124   125    1
   108     9    10    1
   109    14    20   am
   110    14    15    2
   111    20    21    1
   112   125   128    1
   113    23    22    2
   114   128   129    1
   115    21    22    1
   116   129   130    1
   117   131   130   ar
   118   130   132   ar
   119   108   109    1
   120   108   105    1
   121   104   105    1
   122   109   110    1
   123   105   106    1
   124   106   107    2
   125   110   111    1
   126   111   112    2
   127   112   113    1
   128   112   114    1
   129   121   120    1
   130   121   122    1
   131   123   122    1
   132   119   120    1
   133   119   116    1
   134   115   116    1
   135   117   116    1
   136   117   118    2
