@<TRIPOS>MOLECULE
tmp/3qboB00.pdb
 112 105 0 0 0
SMALL
GASTEIGER

@<TRIPOS>ATOM
      1  N         60.6590   89.9490   18.0600 N.3    72  GLY72      -0.1210
      2  CA        59.8640   90.6540   19.0890 C.3    72  GLY72       0.1956
      3  C         59.6370   92.1640   18.9010 C.2    72  GLY72       0.2612
      4  O         58.7590   92.7800   19.5870 O.2    72  GLY72      -0.2717
      5  N         60.4290   92.7630   18.0010 N.am   73  GLY73      -0.1942
      6  CA        60.4280   94.2020   17.8030 C.3    73  GLY73       0.2014
      7  C         61.1210   94.9050   18.9350 C.2    73  GLY73       0.2639
      8  O         61.5400   94.2800   19.8690 O.2    73  GLY73      -0.2714
      9  N         61.2040   96.2220   18.8590 N.am   74  ALA74      -0.1963
     10  CA        61.9320   96.9960   19.8550 C.3    74  ALA74       0.1728
     11  C         61.1590   97.0380   21.1710 C.2    74  ALA74       0.2616
     12  O         61.7860   97.1620   22.2180 O.2    74  ALA74      -0.2715
     13  CB        62.1850   98.3730   19.3710 C.3    74  ALA74       0.0334
     14  N         59.8260   96.8710   21.1250 N.am   75  ARG75      -0.1977
     15  CA        59.0560   96.7920   22.3400 C.3    75  ARG75       0.1597
     16  C         59.3920   95.5750   23.1600 C.2    75  ARG75       0.2287
     17  O         59.1880   95.5840   24.3470 O.2    75  ARG75      -0.2864
     18  CB        57.5490   96.8620   22.1260 C.3    75  ARG75       0.0334
     19  CG        57.0660   98.2870   21.9520 C.3    75  ARG75       0.0492
     20  CD        55.5390   98.4130   21.8490 C.3    75  ARG75       0.2205
     21  NE        55.0460   99.5130   22.6990 N.pl3  75  ARG75      -0.0865
     22  CZ        54.3340  100.5520   22.2660 C.cat  75  ARG75       0.5346
     23  NH1       53.9990  100.6890   20.9680 N.pl3  75  ARG75       0.1354
     24  NH2       53.9500  101.4650   23.1420 N.pl3  75  ARG75       0.1354
     25  N         62.4140   96.5190   25.1290 N.3    78  PHE78      -0.1241
     26  CA        62.0970   97.3230   26.3210 C.3    78  PHE78       0.1605
     27  C         62.0320   96.4440   27.5700 C.2    78  PHE78       0.2264
     28  O         62.1510   96.9320   28.7060 O.2    78  PHE78      -0.2867
     29  CB        60.7510   98.0200   26.1670 C.3    78  PHE78       0.0534
     30  CG        60.7060   99.1170   25.0900 C.ar   78  PHE78      -0.0203
     31  CD1       61.8560   99.6270   24.5150 C.ar   78  PHE78      -0.0042
     32  CD2       59.4870   99.7090   24.7610 C.ar   78  PHE78      -0.0042
     33  CE1       61.7790  100.6620   23.6130 C.ar   78  PHE78      -0.0003
     34  CE2       59.4140  100.7360   23.8580 C.ar   78  PHE78      -0.0003
     35  CZ        60.5500  101.2040   23.2580 C.ar   78  PHE78      -0.0000
     36  N         59.2410  107.4360   22.4160 N.3   100  TRP100     -0.1241
     37  CA        59.7550  106.0820   22.3810 C.3   100  TRP100      0.1605
     38  C         60.6380  105.8110   23.5430 C.2   100  TRP100      0.2264
     39  O         60.6020  104.7240   24.0930 O.2   100  TRP100     -0.2867
     40  CB        60.4590  105.7930   21.0630 C.3   100  TRP100      0.0550
     41  CG        59.5000  105.5260   20.0140 C.ar  100  TRP100      0.0003
     42  CD1       59.3690  106.1890   18.8400 C.ar  100  TRP100      0.0946
     43  CD2       58.4840  104.5170   20.0260 C.ar  100  TRP100      0.0152
     44  NE1       58.3460  105.6480   18.1000 N.ar  100  TRP100     -0.2442
     45  CE2       57.7760  104.6260   18.8060 C.ar  100  TRP100      0.0810
     46  CE3       58.0980  103.5300   20.9500 C.ar  100  TRP100      0.0012
     47  CZ2       56.7160  103.7790   18.4680 C.ar  100  TRP100      0.0191
     48  CZ3       57.0390  102.6820   20.6010 C.ar  100  TRP100      0.0001
     49  CH2       56.3720  102.8100   19.3640 C.ar  100  TRP100      0.0015
     50  N         67.1320  107.1570   23.5100 N.3   147  CYS147     -0.1235
     51  CA        66.7360  107.0240   22.1000 C.3   147  CYS147      0.1677
     52  C         67.3610  108.1370   21.2610 C.2   147  CYS147      0.2270
     53  O         66.9100  109.2560   21.3180 O.2   147  CYS147     -0.2867
     54  CB        65.2150  107.0650   21.9740 C.3   147  CYS147      0.0956
     55  SG        64.6370  106.9440   20.2290 S.3   147  CYS147     -0.0801
     56  N         67.0220  108.7760   18.1560 N.3   149  ASN149     -0.1240
     57  CA        66.1360  109.3240   17.1520 C.3   149  ASN149      0.1653
     58  C         64.6760  108.9740   17.4130 C.2   149  ASN149      0.2266
     59  O         64.2500  107.8090   17.3040 O.2   149  ASN149     -0.2867
     60  CB        66.5570  108.8830   15.7450 C.3   149  ASN149      0.1155
     61  CG        65.8020  109.6210   14.6640 C.2   149  ASN149      0.2627
     62  OD1       66.2300  110.6760   14.1830 O.2   149  ASN149     -0.2716
     63  ND2       64.6560  109.0880   14.3020 N.am  149  ASN149     -0.0877
     64  N         61.0920  108.9290   16.4420 N.3   151  THR151     -0.1218
     65  CA        60.4270  108.8300   15.1350 C.3   151  THR151      0.1862
     66  C         59.2460  109.7560   14.9730 C.2   151  THR151      0.2287
     67  O         59.0300  110.3120   13.9000 O.2   151  THR151     -0.2866
     68  CB        59.9500  107.3890   14.9140 C.3   151  THR151      0.1770
     69  OG1       60.8930  106.4840   15.5190 O.3   151  THR151     -0.2211
     70  CG2       59.8460  107.1120   13.4960 C.3   151  THR151      0.0375
     71  N         68.3030  102.8720   21.6950 N.3   171  ASP171     -0.1239
     72  CA        67.2490  102.4620   20.7610 C.3   171  ASP171      0.1674
     73  C         67.4550  103.2040   19.4420 C.2   171  ASP171      0.2266
     74  O         66.9240  104.2910   19.2450 O.2   171  ASP171     -0.2867
     75  CB        65.8260  102.7550   21.3380 C.3   171  ASP171      0.1410
     76  CG        64.6920  102.4030   20.3580 C.2   171  ASP171      0.3668
     77  OD1       64.9860  101.9790   19.2190 O.co2 171  ASP171     -0.2456
     78  OD2       63.4990  102.5590   20.7270 O.co2 171  ASP171     -0.2456
     79  N         66.3650  102.2990   16.5590 N.3   173  SER173     -0.1202
     80  CA        65.4100  101.7890   15.5750 C.3   173  SER173      0.2020
     81  C         65.2350  102.5780   14.2900 C.2   173  SER173      0.2619
     82  O         65.2620  101.9870   13.2140 O.2   173  SER173     -0.2717
     83  CB        64.0350  101.5870   16.2060 C.3   173  SER173      0.2103
     84  OG        64.0860  100.4620   17.0810 O.3   173  SER173     -0.2182
     85  N         65.0250  103.8940   14.4030 N.am  174  SER174     -0.1951
     86  CA        64.7480  104.7100   13.2450 C.3   174  SER174      0.1924
     87  C         65.9710  105.4060   12.6020 C.2   174  SER174      0.2314
     88  O         65.8090  106.1380   11.6280 O.2   174  SER174     -0.2863
     89  CB        63.6650  105.7320   13.5700 C.3   174  SER174      0.2116
     90  OG        63.8690  106.3330   14.8190 O.3   174  SER174     -0.2180
     91  N         64.5660   97.6780   15.8890 N.3   192  GLY192     -0.1225
     92  CA        63.6060   96.9770   15.0610 C.3   192  GLY192      0.1811
     93  C         64.0320   97.1750   13.6060 C.2   192  GLY192      0.2280
     94  O         64.4960   98.2320   13.2330 O.2   192  GLY192     -0.2866
     95  N         62.3180   97.3110   10.8140 N.3   194  GLN194     -0.1231
     96  CA        61.2450   97.7800    9.8930 C.3   194  GLN194      0.1698
     97  C         61.4210   99.1930    9.3680 C.2   194  GLN194      0.2592
     98  O         60.5450   99.7110    8.6660 O.2   194  GLN194     -0.2718
     99  CB        59.8940   97.9490   10.6070 C.3   194  GLN194      0.0381
    100  CG        59.5130   97.0730   11.6580 C.3   194  GLN194      0.0905
    101  CD        59.9680   97.4790   13.0000 C.2   194  GLN194      0.2608
    102  OE1       61.0290   97.0600   13.3880 O.2   194  GLN194     -0.2717
    103  NE2       59.1520   98.1840   13.7620 N.am  194  GLN194     -0.0878
    104  N         62.4590   99.8720    9.7880 N.am  195  LYS195     -0.1980
    105  CA        62.5970  101.2440    9.3750 C.3   195  LYS195      0.1596
    106  C         63.7640  101.4350    8.4480 C.2   195  LYS195      0.2287
    107  O         63.6230  101.5540    7.2290 O.2   195  LYS195     -0.2864
    108  CB        62.7290  102.1000   10.6140 C.3   195  LYS195      0.0298
    109  CG        61.3470  102.2380   11.2870 C.3   195  LYS195      0.0038
    110  CD        61.3410  101.8400   12.7150 C.3   195  LYS195      0.0206
    111  CE        60.7850  102.9340   13.5630 C.3   195  LYS195      0.1093
    112  NZ        59.4270  102.6690   14.0330 N.3   195  LYS195     -0.1314
@<TRIPOS>BOND
     1   107   106    2
     2   106   105    1
     3    98    97    2
     4    97   104   am
     5    97    96    1
     6   105   104    1
     7   105   108    1
     8    96    99    1
     9    96    95    1
    10    99   100    1
    11   108   109    1
    12   109   110    1
    13    88    87    2
    14   100   101    1
    15    87    86    1
    16   110   111    1
    17   101   102    2
    18   101   103   am
    19    82    81    2
    20    94    93    2
    21    86    89    1
    22    86    85    1
    23    70    68    1
    24   111   112    1
    25    89    90    1
    26    93    92    1
    27    67    66    2
    28    62    61    2
    29    81    85   am
    30    81    80    1
    31    63    61   am
    32    61    60    1
    33    68    65    1
    34    68    69    1
    35    66    65    1
    36    92    91    1
    37    65    64    1
    38    80    83    1
    39    80    79    1
    40    60    57    1
    41    83    84    1
    42    57    58    1
    43    57    56    1
    44    59    58    2
    45     6     5    1
    46     6     7    1
    47     5     3   am
    48     1     2    1
    49    44    45   ar
    50    44    42   ar
    51    47    45   ar
    52    47    49   ar
    53    45    43   ar
    54    42    41   ar
    55     9     7   am
    56     9    10    1
    57     3     2    1
    58     3     4    2
    59     7     8    2
    60    77    76   ar
    61    74    73    2
    62    49    48   ar
    63    13    10    1
    64    73    72    1
    65    10    11    1
    66    41    43   ar
    67    41    40    1
    68    43    46   ar
    69    55    54    1
    70    76    78   ar
    71    76    75    1
    72    48    46   ar
    73    72    75    1
    74    72    71    1
    75    23    22    1
    76    40    37    1
    77    14    11   am
    78    14    15    1
    79    11    12    2
    80    52    53    2
    81    52    51    1
    82    20    19    1
    83    20    21    1
    84    19    18    1
    85    54    51    1
    86    51    50    1
    87    18    15    1
    88    22    21    2
    89    22    24    1
    90    15    16    1
    91    37    36    1
    92    37    38    1
    93    16    17    2
    94    35    33   ar
    95    35    34   ar
    96    38    39    2
    97    33    31   ar
    98    34    32   ar
    99    31    30   ar
   100    32    30   ar
   101    30    29    1
   102    25    26    1
   103    29    26    1
   104    26    27    1
   105    27    28    2
