@<TRIPOS>MOLECULE
tmp/3qbwB00.pdb
 162 152 0 0 0
SMALL
GASTEIGER

@<TRIPOS>ATOM
      1  N         38.8530   58.8900  118.6620 N.3     7  MET7       -0.1245
      2  CA        37.7030   59.3560  119.4220 C.3     7  MET7        0.1570
      3  C         37.6220   60.8850  119.3570 C.2     7  MET7        0.2261
      4  O         38.6410   61.6020  119.3550 O.2     7  MET7       -0.2867
      5  CB        37.8080   58.8690  120.8850 C.3     7  MET7        0.0387
      6  CG        36.6580   59.2590  121.8180 C.3     7  MET7        0.0595
      7  SD        35.0430   58.7050  121.2240 S.3     7  MET7       -0.1393
      8  CE        33.9340   59.6500  122.2680 C.3     7  MET7        0.0692
      9  N         34.6060   63.0780  121.2150 N.3     9  GLY9       -0.1210
     10  CA        33.3380   63.0350  121.9360 C.3     9  GLY9        0.1956
     11  C         32.5530   64.3190  121.8190 C.2     9  GLY9        0.2613
     12  O         33.0000   65.2730  121.1490 O.2     9  GLY9       -0.2717
     13  N         31.4040   64.3520  122.5030 N.am   10  THR10      -0.1938
     14  CA        30.4390   65.4490  122.3880 C.3    10  THR10       0.2028
     15  C         30.9400   66.7610  123.0020 C.2    10  THR10       0.2642
     16  O         30.3300   67.8080  122.8100 O.2    10  THR10      -0.2714
     17  CB        29.0770   65.0740  123.0500 C.3    10  THR10       0.1808
     18  OG1       29.3030   64.6680  124.4080 O.3    10  THR10      -0.2208
     19  CG2       28.3750   63.9390  122.2880 C.3    10  THR10       0.0379
     20  N         32.0490   66.7180  123.7360 N.am   11  SER11      -0.1949
     21  CA        32.5530   67.9450  124.3670 C.3    11  SER11       0.1924
     22  C         33.3230   68.8300  123.3920 C.2    11  SER11       0.2314
     23  O         33.4670   70.0350  123.6130 O.2    11  SER11      -0.2863
     24  CB        33.4050   67.6150  125.5800 C.3    11  SER11       0.2116
     25  OG        32.6670   66.8320  126.5050 O.3    11  SER11      -0.2180
     26  N         36.4050   69.1240  122.7800 N.3    13  ASP13      -0.1239
     27  CA        37.6880   69.6040  123.2540 C.3    13  ASP13       0.1674
     28  C         38.8140   69.3120  122.2520 C.2    13  ASP13       0.2266
     29  O         39.7140   70.1360  122.0600 O.2    13  ASP13      -0.2867
     30  CB        38.0040   68.9650  124.6110 C.3    13  ASP13       0.1410
     31  CG        38.1190   67.4470  124.5330 C.2    13  ASP13       0.3668
     32  OD1       37.0780   66.7670  124.3310 O.co2  13  ASP13      -0.2456
     33  OD2       39.2600   66.9380  124.6700 O.co2  13  ASP13      -0.2456
     34  N         41.1560   62.4610  120.0700 N.3    16  ASP16      -0.1239
     35  CA        41.9700   61.5160  120.7830 C.3    16  ASP16       0.1674
     36  C         42.3470   60.3960  119.8420 C.2    16  ASP16       0.2266
     37  O         41.4790   59.8250  119.1740 O.2    16  ASP16      -0.2867
     38  CB        41.2020   60.9500  121.9910 C.3    16  ASP16       0.1410
     39  CG        40.6370   62.0480  122.8980 C.2    16  ASP16       0.3668
     40  OD1       41.2470   63.1300  122.9680 O.co2  16  ASP16      -0.2456
     41  OD2       39.5860   61.8410  123.5480 O.co2  16  ASP16      -0.2456
     42  N         32.1970   56.8050  133.0910 N.3   158  ASN158     -0.1240
     43  CA        32.7640   57.7810  132.1490 C.3   158  ASN158      0.1653
     44  C         32.0990   59.1330  132.3270 C.2   158  ASN158      0.2266
     45  O         30.8790   59.2340  132.2980 O.2   158  ASN158     -0.2867
     46  CB        32.6280   57.3400  130.6900 C.3   158  ASN158      0.1155
     47  CG        33.0080   58.4640  129.7030 C.2   158  ASN158      0.2627
     48  OD1       34.1670   58.8500  129.6040 O.2   158  ASN158     -0.2716
     49  ND2       32.0190   58.9960  128.9950 N.am  158  ASN158     -0.0877
     50  N         32.3200   62.3950  130.3580 N.3   160  GLY160     -0.1210
     51  CA        32.7140   63.2730  129.2670 C.3   160  GLY160      0.1956
     52  C         31.7550   64.4440  129.2990 C.2   160  GLY160      0.2612
     53  O         31.4720   64.9930  130.3740 O.2   160  GLY160     -0.2717
     54  N         31.2360   64.8060  128.1310 N.am  161  GLY161     -0.1956
     55  CA        30.1230   65.7600  128.0430 C.3   161  GLY161      0.1869
     56  C         28.9280   65.2190  128.7870 C.2   161  GLY161      0.2309
     57  O         28.2290   65.9540  129.4700 O.2   161  GLY161     -0.2863
     58  N         30.1840   66.9640  131.9400 N.3   183  ASN183     -0.1240
     59  CA        30.7040   68.3170  131.8000 C.3   183  ASN183      0.1653
     60  C         29.8910   69.2350  130.8940 C.2   183  ASN183      0.2266
     61  O         30.1710   70.4300  130.8410 O.2   183  ASN183     -0.2867
     62  CB        32.1260   68.2700  131.2720 C.3   183  ASN183      0.1155
     63  CG        33.0100   67.3970  132.1030 C.2   183  ASN183      0.2627
     64  OD1       33.3150   67.7180  133.2450 O.2   183  ASN183     -0.2716
     65  ND2       33.4250   66.2800  131.5410 N.am  183  ASN183     -0.0877
     66  N         30.2860   73.1760  131.0510 N.3   187  ASP187     -0.1239
     67  CA        31.0240   73.7200  129.9090 C.3   187  ASP187      0.1674
     68  C         30.1890   74.7930  129.2410 C.2   187  ASP187      0.2266
     69  O         30.6660   75.8860  129.0280 O.2   187  ASP187     -0.2867
     70  CB        31.3790   72.6250  128.8790 C.3   187  ASP187      0.1410
     71  CG        32.4600   71.6690  129.3720 C.2   187  ASP187      0.3668
     72  OD1       33.1620   71.9890  130.3540 O.co2 187  ASP187     -0.2456
     73  OD2       32.6180   70.5890  128.7620 O.co2 187  ASP187     -0.2456
     74  N         36.2080   77.5220  127.8930 N.3   197  HIS197     -0.1226
     75  CA        35.7960   76.2370  127.3280 C.3   197  HIS197      0.1752
     76  C         35.4090   75.2120  128.3970 C.2   197  HIS197      0.2596
     77  O         34.5210   74.3940  128.1780 O.2   197  HIS197     -0.2718
     78  CB        36.8490   75.7160  126.3460 C.3   197  HIS197      0.0759
     79  CG        36.7500   76.3390  124.9820 C.ar  197  HIS197      0.0818
     80  ND1       36.9860   75.6360  123.8200 N.ar  197  HIS197     -0.2268
     81  CD2       36.4100   77.5930  124.5960 C.ar  197  HIS197      0.1154
     82  CE1       36.8160   76.4350  122.7800 C.ar  197  HIS197      0.1986
     83  NE2       36.4590   77.6260  123.2230 N.ar  197  HIS197     -0.2212
     84  N         36.0670   75.2800  129.5500 N.am  198  PHE198     -0.1962
     85  CA        35.6740   74.4800  130.7130 C.3   198  PHE198      0.1771
     86  C         36.0940   75.1190  132.0310 C.2   198  PHE198      0.2620
     87  O         36.9230   76.0330  132.0560 O.2   198  PHE198     -0.2715
     88  CB        36.1980   73.0330  130.6200 C.3   198  PHE198      0.0574
     89  CG        37.7040   72.9100  130.5910 C.ar  198  PHE198     -0.0200
     90  CD1       38.4270   72.7440  131.7720 C.ar  198  PHE198     -0.0042
     91  CD2       38.3960   72.9140  129.3800 C.ar  198  PHE198     -0.0042
     92  CE1       39.8170   72.6100  131.7520 C.ar  198  PHE198     -0.0003
     93  CE2       39.7870   72.7740  129.3450 C.ar  198  PHE198     -0.0003
     94  CZ        40.4980   72.6260  130.5320 C.ar  198  PHE198     -0.0000
     95  N         35.5120   74.6280  133.1200 N.am  199  ASP199     -0.1957
     96  CA        35.8270   75.1010  134.4620 C.3   199  ASP199      0.1840
     97  C         36.9650   74.2740  135.0700 C.2   199  ASP199      0.2622
     98  O         36.7280   73.2270  135.6830 O.2   199  ASP199     -0.2715
     99  CB        34.5640   75.0540  135.3350 C.3   199  ASP199      0.1450
    100  CG        34.8220   75.4420  136.7840 C.2   199  ASP199      0.3671
    101  OD1       35.9300   75.9220  137.1080 O.co2 199  ASP199     -0.2456
    102  OD2       33.9060   75.2560  137.6110 O.co2 199  ASP199     -0.2456
    103  N         38.1970   74.7580  134.9050 N.am  200  ARG200     -0.1963
    104  CA        39.3930   74.0330  135.3500 C.3   200  ARG200      0.1729
    105  C         39.3380   73.6400  136.8220 C.2   200  ARG200      0.2616
    106  O         39.0500   74.4700  137.6890 O.2   200  ARG200     -0.2715
    107  CB        40.6800   74.8280  135.0790 C.3   200  ARG200      0.0348
    108  CG        41.9500   74.0490  135.4780 C.3   200  ARG200      0.0492
    109  CD        43.2470   74.7480  135.1060 C.3   200  ARG200      0.2205
    110  NE        43.3130   75.0580  133.6820 N.pl3 200  ARG200     -0.0865
    111  CZ        43.7610   74.2290  132.7400 C.cat 200  ARG200      0.5346
    112  NH1       44.1950   73.0100  133.0510 N.pl3 200  ARG200      0.1354
    113  NH2       43.7700   74.6260  131.4740 N.pl3 200  ARG200      0.1354
    114  N         39.6320   72.3680  137.0870 N.am  201  ASP201     -0.1971
    115  CA        39.5720   71.7790  138.4320 C.3   201  ASP201      0.1709
    116  C         38.2180   71.9480  139.1360 C.2   201  ASP201      0.2293
    117  O         38.0800   71.5980  140.3130 O.2   201  ASP201     -0.2864
    118  CB        40.7110   72.3080  139.3170 C.3   201  ASP201      0.1436
    119  CG        42.0320   71.6250  139.0350 C.2   201  ASP201      0.3671
    120  OD1       42.7280   72.0220  138.0750 O.co2 201  ASP201     -0.2456
    121  OD2       42.3810   70.6890  139.7830 O.co2 201  ASP201     -0.2456
    122  N         37.2670   59.5300  131.6250 N.3   283  GLY283     -0.1210
    123  CA        36.8590   60.7350  130.9170 C.3   283  GLY283      0.1956
    124  C         37.4000   61.9780  131.6000 C.2   283  GLY283      0.2612
    125  O         37.9070   61.9130  132.7240 O.2   283  GLY283     -0.2717
    126  N         37.2740   63.1180  130.9240 N.am  284  GLY284     -0.1956
    127  CA        37.8080   64.3890  131.4050 C.3   284  GLY284      0.1869
    128  C         37.2100   64.8930  132.7110 C.2   284  GLY284      0.2309
    129  O         37.8070   65.7440  133.3720 O.2   284  GLY284     -0.2863
    130  N         39.1760   64.6660  136.0360 N.3   287  PHE287     -0.1227
    131  CA        40.1320   65.7190  136.3950 C.3   287  PHE287      0.1736
    132  C         39.4610   66.8720  137.1420 C.2   287  PHE287      0.2595
    133  O         40.1430   67.7390  137.6860 O.2   287  PHE287     -0.2718
    134  CB        40.8960   66.2440  135.1590 C.3   287  PHE287      0.0547
    135  CG        41.5590   65.1640  134.3340 C.ar  287  PHE287     -0.0202
    136  CD1       42.2460   64.1130  134.9480 C.ar  287  PHE287     -0.0042
    137  CD2       41.5090   65.2100  132.9370 C.ar  287  PHE287     -0.0042
    138  CE1       42.8550   63.1210  134.1880 C.ar  287  PHE287     -0.0003
    139  CE2       42.1110   64.2240  132.1670 C.ar  287  PHE287     -0.0003
    140  CZ        42.7890   63.1760  132.7920 C.ar  287  PHE287     -0.0000
    141  N         38.1300   66.8970  137.1570 N.am  288  ASN288     -0.1974
    142  CA        37.4030   67.8950  137.9380 C.3   288  ASN288      0.1688
    143  C         37.4310   67.4730  139.4080 C.2   288  ASN288      0.2292
    144  O         36.5620   66.7350  139.8690 O.2   288  ASN288     -0.2864
    145  CB        35.9670   68.0650  137.4230 C.3   288  ASN288      0.1181
    146  CG        35.2380   69.2430  138.0670 C.2   288  ASN288      0.2629
    147  OD1       35.3640   69.4900  139.2650 O.2   288  ASN288     -0.2716
    148  ND2       34.4650   69.9680  137.2680 N.am  288  ASN288     -0.0877
    149  N         41.7700   59.7350  130.4990 N.3   315  ALA315     -0.1245
    150  CA        41.5380   60.4940  129.2760 C.3   315  ALA315      0.1562
    151  C         41.4240   59.6050  128.0400 C.2   315  ALA315      0.2260
    152  O         40.7090   59.9600  127.1210 O.2   315  ALA315     -0.2867
    153  CB        42.6350   61.5500  129.0750 C.3   315  ALA315      0.0290
    154  N         38.0220   55.8680  126.3760 N.3   318  GLU318     -0.1245
    155  CA        37.0880   55.8220  125.2410 C.3   318  GLU318      0.1567
    156  C         37.7780   55.4830  123.9250 C.2   318  GLU318      0.2260
    157  O         37.2770   54.6990  123.1420 O.2   318  GLU318     -0.2867
    158  CB        36.3610   57.1630  125.1020 C.3   318  GLU318      0.0388
    159  CG        35.3220   57.4290  126.1750 C.3   318  GLU318      0.1160
    160  CD        33.8910   57.4040  125.6350 C.2   318  GLU318      0.3649
    161  OE1       33.2030   58.4560  125.7490 O.co2 318  GLU318     -0.2457
    162  OE2       33.4520   56.3450  125.1050 O.co2 318  GLU318     -0.2457
@<TRIPOS>BOND
     1     1     2    1
     2    37    36    2
     3     4     3    2
     4     3     2    1
     5     2     5    1
     6    36    35    1
     7    34    35    1
     8    35    38    1
     9     5     6    1
    10    12    11    2
    11     9    10    1
    12     7     6    1
    13     7     8    1
    14    11    10    1
    15    11    13   am
    16    38    39    1
    17    29    28    2
    18    28    27    1
    19    19    17    1
    20    14    13    1
    21    14    15    1
    22    14    17    1
    23    82    83   ar
    24    82    80   ar
    25    26    27    1
    26    16    15    2
    27    39    40   ar
    28    39    41   ar
    29    15    20   am
    30    17    18    1
    31   157   156    2
    32    83    81   ar
    33    27    30    1
    34    22    23    2
    35    22    21    1
    36    20    21    1
    37    80    79   ar
    38   156   155    1
    39    32    31   ar
    40    21    24    1
    41    31    30    1
    42    31    33   ar
    43    81    79   ar
    44    79    78    1
    45   158   155    1
    46   158   159    1
    47   162   160   ar
    48   155   154    1
    49    24    25    1
    50   160   161   ar
    51   160   159    1
    52    78    75    1
    53   152   151    2
    54    75    74    1
    55    75    76    1
    56   151   150    1
    57    55    54    1
    58    55    56    1
    59    54    52   am
    60    77    76    2
    61    76    84   am
    62    73    71   ar
    63    56    57    2
    64    70    71    1
    65    70    67    1
    66    49    47   am
    67    69    68    2
    68   153   150    1
    69    68    67    1
    70    51    52    1
    71    51    50    1
    72   150   149    1
    73    52    53    2
    74    93    91   ar
    75    93    94   ar
    76    71    72   ar
    77    91    89   ar
    78    84    85    1
    79    48    47    2
    80    47    46    1
    81    67    66    1
    82    94    92   ar
    83    89    88    1
    84    89    90   ar
    85    88    85    1
    86    46    43    1
    87    85    86    1
    88    61    60    2
    89    60    59    1
    90   123   124    1
    91   123   122    1
    92   126   127    1
    93   126   124   am
    94    62    59    1
    95    62    63    1
    96   127   128    1
    97   113   111    1
    98    65    63   am
    99   124   125    2
   100    92    90   ar
   101    59    58    1
   102    86    87    2
   103    86    95   am
   104    63    64    2
   105    43    44    1
   106    43    42    1
   107   139   140   ar
   108   139   137   ar
   109    45    44    2
   110   128   129    2
   111   111   112    1
   112   111   110    2
   113   140   138   ar
   114   137   135   ar
   115    95    96    1
   116   110   109    1
   117   138   136   ar
   118   135   136   ar
   119   135   134    1
   120    96    97    1
   121    96    99    1
   122   103    97   am
   123   103   104    1
   124    97    98    2
   125   107   104    1
   126   107   108    1
   127   109   108    1
   128   134   131    1
   129    99   100    1
   130   104   105    1
   131   130   131    1
   132   131   132    1
   133   100   101   ar
   134   100   102   ar
   135   105   114   am
   136   105   106    2
   137   114   115    1
   138   132   141   am
   139   132   133    2
   140   141   142    1
   141   148   146   am
   142   145   142    1
   143   145   146    1
   144   142   143    1
   145   146   147    2
   146   120   119   ar
   147   115   116    1
   148   115   118    1
   149   119   118    1
   150   119   121   ar
   151   116   117    2
   152   143   144    2
