@<TRIPOS>MOLECULE
tmp/3qbxB00.pdb
 157 147 0 0 0
SMALL
GASTEIGER

@<TRIPOS>ATOM
      1  N         39.6070   59.6670  116.2780 N.3     7  MET7       -0.1245
      2  CA        38.4420   60.1960  116.9840 C.3     7  MET7        0.1570
      3  C         38.4720   61.7110  116.9190 C.2     7  MET7        0.2261
      4  O         39.5210   62.3330  117.0420 O.2     7  MET7       -0.2867
      5  CB        38.4160   59.7030  118.4440 C.3     7  MET7        0.0387
      6  CG        37.1770   60.0910  119.2700 C.3     7  MET7        0.0595
      7  SD        35.6200   59.3910  118.6570 S.3     7  MET7       -0.1393
      8  CE        34.4470   60.6790  119.1010 C.3     7  MET7        0.0692
      9  N         33.1530   65.9140  120.6930 N.3    10  THR10      -0.1218
     10  CA        32.2180   67.0210  120.8730 C.3    10  THR10       0.1862
     11  C         32.8640   68.4140  120.9460 C.2    10  THR10       0.2287
     12  O         32.3080   69.3750  120.4220 O.2    10  THR10      -0.2866
     13  CB        31.3720   66.7780  122.1620 C.3    10  THR10       0.1770
     14  OG1       30.7510   65.4860  122.0990 O.3    10  THR10      -0.2211
     15  CG2       30.2910   67.8540  122.3370 C.3    10  THR10       0.0375
     16  N         35.9900   56.9840  113.6540 N.3    93  HIS93      -0.1241
     17  CA        34.6210   57.3310  114.0730 C.3    93  HIS93       0.1621
     18  C         33.9650   58.2660  113.0660 C.2    93  HIS93       0.2264
     19  O         32.7560   58.1780  112.8250 O.2    93  HIS93      -0.2867
     20  CB        34.5880   57.9770  115.4660 C.3    93  HIS93       0.0745
     21  CG        33.2790   58.6370  115.7900 C.ar   93  HIS93       0.0817
     22  ND1       32.1370   57.9220  116.0950 N.ar   93  HIS93      -0.2268
     23  CD2       32.9160   59.9430  115.8010 C.ar   93  HIS93       0.1154
     24  CE1       31.1360   58.7590  116.2980 C.ar   93  HIS93       0.1986
     25  NE2       31.5810   59.9910  116.1270 N.ar   93  HIS93      -0.2212
     26  N         30.3480   63.2940  114.3040 N.3    96  THR96      -0.1218
     27  CA        28.9030   63.3410  114.5130 C.3    96  THR96       0.1862
     28  C         28.3910   64.7450  114.2250 C.2    96  THR96       0.2287
     29  O         28.7990   65.6780  114.8850 O.2    96  THR96      -0.2866
     30  CB        28.5580   62.9700  115.9820 C.3    96  THR96       0.1770
     31  OG1       28.9440   61.6180  116.2300 O.3    96  THR96      -0.2211
     32  CG2       27.0490   63.1510  116.2930 C.3    96  THR96       0.0375
     33  N         22.5930   63.3690  115.7450 N.3    99  HIS99      -0.1241
     34  CA        22.3310   62.1280  116.4410 C.3    99  HIS99       0.1621
     35  C         20.8710   62.1220  116.8510 C.2    99  HIS99       0.2264
     36  O         20.4840   62.8360  117.7850 O.2    99  HIS99      -0.2867
     37  CB        23.2340   61.9960  117.6680 C.3    99  HIS99       0.0745
     38  CG        23.1150   60.6710  118.3540 C.ar   99  HIS99       0.0817
     39  ND1       23.3780   59.4770  117.7140 N.ar   99  HIS99      -0.2268
     40  CD2       22.7470   60.3490  119.6160 C.ar   99  HIS99       0.1154
     41  CE1       23.1800   58.4780  118.5540 C.ar   99  HIS99       0.1986
     42  NE2       22.7970   58.9800  119.7140 N.ar   99  HIS99      -0.2212
     43  N         21.6330   58.2890  112.8000 N.3   106  THR106     -0.1218
     44  CA        22.7690   59.0190  113.3390 C.3   106  THR106      0.1862
     45  C         23.7460   59.3260  112.1950 C.2   106  THR106      0.2287
     46  O         23.9910   58.4770  111.3440 O.2   106  THR106     -0.2866
     47  CB        23.4440   58.2720  114.5100 C.3   106  THR106      0.1770
     48  OG1       24.4360   59.1110  115.0880 O.3   106  THR106     -0.2211
     49  CG2       24.0910   56.9650  114.0560 C.3   106  THR106      0.0375
     50  N         28.3800   53.3580  114.0560 N.3   128  ARG128     -0.1245
     51  CA        27.1460   53.5450  114.8360 C.3   128  ARG128      0.1563
     52  C         25.8890   53.0770  114.1130 C.2   128  ARG128      0.2260
     53  O         24.9050   52.6970  114.7530 O.2   128  ARG128     -0.2867
     54  CB        26.9740   55.0050  115.2880 C.3   128  ARG128      0.0307
     55  CG        28.1180   55.5530  116.1390 C.3   128  ARG128      0.0489
     56  CD        27.7650   56.9080  116.7820 C.3   128  ARG128      0.2205
     57  NE        28.9490   57.4520  117.4420 N.pl3 128  ARG128     -0.0865
     58  CZ        29.3880   57.1090  118.6550 C.cat 128  ARG128      0.5346
     59  NH1       28.7210   56.2380  119.4120 N.pl3 128  ARG128      0.1354
     60  NH2       30.5100   57.6490  119.1160 N.pl3 128  ARG128      0.1354
     61  N         24.9270   54.6060  120.5310 N.3   139  ALA139     -0.1231
     62  CA        25.8190   55.2180  121.5150 C.3   139  ALA139      0.1679
     63  C         25.4080   54.7840  122.9360 C.2   139  ALA139      0.2434
     64  O         24.2340   54.4990  123.1820 O.2   139  ALA139     -0.2733
     65  CB        25.7800   56.7510  121.3980 C.3   139  ALA139      0.0304
     66  N         26.3720   54.7140  123.8730 N.am  140  PRO140     -0.2718
     67  CA        27.8180   54.8060  123.6720 C.3   140  PRO140      0.1535
     68  C         28.3820   53.5090  123.1020 C.2   140  PRO140      0.2598
     69  O         27.7760   52.4400  123.2700 O.2   140  PRO140     -0.2715
     70  CB        28.3620   55.0480  125.0900 C.3   140  PRO140      0.0310
     71  CG        27.3010   54.5580  126.0080 C.3   140  PRO140      0.0237
     72  CD        26.0080   54.8180  125.2980 C.3   140  PRO140      0.0939
     73  N         29.5300   53.6090  122.4350 N.am  141  LEU141     -0.1964
     74  CA        30.1580   52.4560  121.7890 C.3   141  LEU141      0.1728
     75  C         31.3970   51.9300  122.4990 C.2   141  LEU141      0.2616
     76  O         31.8250   50.8090  122.2430 O.2   141  LEU141     -0.2715
     77  CB        30.4630   52.7510  120.3120 C.3   141  LEU141      0.0311
     78  CG        29.2600   52.6670  119.3690 C.3   141  LEU141      0.0022
     79  CD1       29.7100   52.6840  117.9180 C.3   141  LEU141      0.0001
     80  CD2       28.4280   51.4100  119.6570 C.3   141  LEU141      0.0001
     81  N         31.9530   52.7120  123.4140 N.am  142  VAL142     -0.1977
     82  CA        33.1000   52.2470  124.2030 C.3   142  VAL142      0.1596
     83  C         32.8790   51.0430  125.1410 C.2   142  VAL142      0.2287
     84  O         33.8420   50.3460  125.4300 O.2   142  VAL142     -0.2864
     85  CB        33.8000   53.3890  124.9900 C.3   142  VAL142      0.0276
     86  CG1       34.4900   54.3520  124.0300 C.3   142  VAL142      0.0022
     87  CG2       32.8300   54.1190  125.9160 C.3   142  VAL142      0.0022
     88  N         33.4140   57.9490  131.1350 N.3   161  ASN161     -0.1240
     89  CA        33.9980   58.9710  130.2700 C.3   161  ASN161      0.1653
     90  C         33.3810   60.3280  130.5290 C.2   161  ASN161      0.2266
     91  O         32.1700   60.4830  130.4480 O.2   161  ASN161     -0.2867
     92  CB        33.7920   58.6320  128.7910 C.3   161  ASN161      0.1155
     93  CG        34.1340   59.8040  127.8740 C.2   161  ASN161      0.2627
     94  OD1       33.2710   60.3330  127.1620 O.2   161  ASN161     -0.2716
     95  ND2       35.3890   60.2190  127.8980 N.am  161  ASN161     -0.0877
     96  N         33.7060   63.6540  128.6640 N.3   163  GLY163     -0.1210
     97  CA        34.1190   64.5200  127.5630 C.3   163  GLY163      0.1956
     98  C         33.1430   65.6720  127.4940 C.2   163  GLY163      0.2612
     99  O         32.6250   66.1280  128.5330 O.2   163  GLY163     -0.2717
    100  N         32.8810   66.1560  126.2830 N.am  164  GLY164     -0.1942
    101  CA        31.8100   67.1310  126.0690 C.3   164  GLY164      0.2014
    102  C         30.5390   66.5990  126.7080 C.2   164  GLY164      0.2638
    103  O         29.8650   67.3080  127.4660 O.2   164  GLY164     -0.2714
    104  N         30.2420   65.3360  126.4000 N.am  165  PHE165     -0.1973
    105  CA        29.1770   64.5730  127.0540 C.3   165  PHE165      0.1639
    106  C         29.7430   63.4560  127.9390 C.2   165  PHE165      0.2290
    107  O         30.8800   63.0190  127.7500 O.2   165  PHE165     -0.2864
    108  CB        28.1770   64.0540  126.0060 C.3   165  PHE165      0.0560
    109  CG        27.4030   65.1570  125.3560 C.ar  165  PHE165     -0.0200
    110  CD1       26.2670   65.6760  125.9730 C.ar  165  PHE165     -0.0042
    111  CD2       27.8500   65.7350  124.1700 C.ar  165  PHE165     -0.0042
    112  CE1       25.5650   66.7230  125.3990 C.ar  165  PHE165     -0.0003
    113  CE2       27.1620   66.7880  123.5930 C.ar  165  PHE165     -0.0003
    114  CZ        26.0200   67.2860  124.2080 C.ar  165  PHE165     -0.0000
    115  N         29.3900   59.5700  129.6410 N.3   167  ASN167     -0.1240
    116  CA        28.7960   58.2540  129.4620 C.3   167  ASN167      0.1653
    117  C         29.4820   57.2180  130.3460 C.2   167  ASN167      0.2266
    118  O         30.6590   57.3500  130.6600 O.2   167  ASN167     -0.2867
    119  CB        28.8040   57.8300  127.9870 C.3   167  ASN167      0.1155
    120  CG        30.1800   57.9120  127.3630 C.2   167  ASN167      0.2627
    121  OD1       30.6210   58.9840  126.9500 O.2   167  ASN167     -0.2716
    122  ND2       30.8720   56.7850  127.3090 N.am  167  ASN167     -0.0877
    123  N         24.5690   57.3000  128.0220 N.3   181  ASP181     -0.1239
    124  CA        25.0210   58.6660  128.2800 C.3   181  ASP181      0.1674
    125  C         24.3670   59.1320  129.5740 C.2   181  ASP181      0.2266
    126  O         23.2170   58.8000  129.8280 O.2   181  ASP181     -0.2867
    127  CB        24.6270   59.6110  127.1330 C.3   181  ASP181      0.1410
    128  CG        25.3740   59.3310  125.8430 C.2   181  ASP181      0.3668
    129  OD1       26.3710   58.5670  125.8570 O.co2 181  ASP181     -0.2456
    130  OD2       24.9520   59.8800  124.7920 O.co2 181  ASP181     -0.2456
    131  N         22.4630   60.9670  124.0640 N.3   235  THR235     -0.1218
    132  CA        22.0930   62.3610  123.8740 C.3   235  THR235      0.1862
    133  C         23.1540   63.0780  123.0380 C.2   235  THR235      0.2287
    134  O         24.0100   62.4190  122.4440 O.2   235  THR235     -0.2866
    135  CB        21.7870   63.0740  125.2340 C.3   235  THR235      0.1770
    136  OG1       21.2050   64.3510  124.9760 O.3   235  THR235     -0.2211
    137  CG2       23.0420   63.2120  126.1280 C.3   235  THR235      0.0375
    138  N         39.2110   56.8390  124.0710 N.3   325  GLU325     -0.1245
    139  CA        38.2740   56.8040  122.9410 C.3   325  GLU325      0.1567
    140  C         38.9410   56.4470  121.6250 C.2   325  GLU325      0.2260
    141  O         38.4270   55.6210  120.8690 O.2   325  GLU325     -0.2867
    142  CB        37.5000   58.1160  122.8150 C.3   325  GLU325      0.0388
    143  CG        36.4540   58.2850  123.9100 C.3   325  GLU325      0.1160
    144  CD        35.6010   59.5120  123.7140 C.2   325  GLU325      0.3649
    145  OE1       35.9780   60.3890  122.8980 O.co2 325  GLU325     -0.2457
    146  OE2       34.5490   59.5950  124.3700 O.co2 325  GLU325     -0.2457
    147  N         38.3190   52.9470  119.1630 N.3   329  PHE329     -0.1241
    148  CA        37.9710   52.9040  117.7490 C.3   329  PHE329      0.1605
    149  C         38.9620   52.1180  116.9010 C.2   329  PHE329      0.2264
    150  O         38.5760   51.4660  115.9370 O.2   329  PHE329     -0.2867
    151  CB        37.6390   54.2940  117.1980 C.3   329  PHE329      0.0534
    152  CG        36.2540   54.7300  117.5440 C.ar  329  PHE329     -0.0203
    153  CD1       35.1650   54.2650  116.8130 C.ar  329  PHE329     -0.0042
    154  CD2       36.0240   55.5430  118.6450 C.ar  329  PHE329     -0.0042
    155  CE1       33.8730   54.6350  117.1580 C.ar  329  PHE329     -0.0003
    156  CE2       34.7400   55.9190  118.9930 C.ar  329  PHE329     -0.0003
    157  CZ        33.6610   55.4690  118.2550 C.ar  329  PHE329     -0.0000
@<TRIPOS>BOND
     1    46    45    2
     2    45    44    1
     3    43    44    1
     4    19    18    2
     5    18    17    1
     6    44    47    1
     7    16    17    1
     8    50    51    1
     9    49    47    1
    10    17    20    1
    11    52    53    2
    12    52    51    1
    13    28    27    1
    14    28    29    2
    15    26    27    1
    16    47    48    1
    17    27    30    1
    18    51    54    1
    19    54    55    1
    20    20    21    1
    21    33    34    1
    22    21    23   ar
    23    21    22   ar
    24    23    25   ar
    25   150   149    2
    26    30    31    1
    27    30    32    1
    28    22    24   ar
    29    25    24   ar
    30    55    56    1
    31     1     2    1
    32    34    35    1
    33    34    37    1
    34    56    57    1
    35   153   155   ar
    36   153   152   ar
    37    35    36    2
    38   149   148    1
    39     3     2    1
    40     3     4    2
    41     2     5    1
    42   155   157   ar
    43   151   152    1
    44   151   148    1
    45    57    58    2
    46   152   154   ar
    47    37    38    1
    48    39    38   ar
    49    39    41   ar
    50   148   147    1
    51    79    78    1
    52   157   156   ar
    53    38    40   ar
    54     5     6    1
    55    41    42   ar
    56   154   156   ar
    57    58    60    1
    58    58    59    1
    59     7     8    1
    60     7     6    1
    61    78    80    1
    62    78    77    1
    63    40    42   ar
    64    77    74    1
    65    12    11    2
    66    61    62    1
    67     9    10    1
    68   141   140    2
    69    10    11    1
    70    10    13    1
    71    65    62    1
    72    62    63    1
    73   140   139    1
    74    74    73    1
    75    74    75    1
    76    14    13    1
    77    13    15    1
    78    76    75    2
    79    73    68   am
    80   134   133    2
    81    75    81   am
    82   142   139    1
    83   142   143    1
    84   145   144   ar
    85    63    64    2
    86    63    66   am
    87   139   138    1
    88   133   132    1
    89    68    69    2
    90    68    67    1
    91    81    82    1
    92   113   111   ar
    93   113   114   ar
    94    67    66    1
    95    67    70    1
    96   144   143    1
    97   144   146   ar
    98    66    72    1
    99   132   131    1
   100   132   135    1
   101    86    85    1
   102   111   109   ar
   103    82    85    1
   104    82    83    1
   105   114   112   ar
   106   130   128   ar
   107   136   135    1
   108    85    87    1
   109    70    71    1
   110    83    84    2
   111   135   137    1
   112    72    71    1
   113   109   110   ar
   114   109   108    1
   115   112   110   ar
   116   128   129   ar
   117   128   127    1
   118   108   105    1
   119   101   100    1
   120   101   102    1
   121   100    98   am
   122   104   102   am
   123   104   105    1
   124   102   103    2
   125   121   120    2
   126   105   106    1
   127   127   124    1
   128    94    93    2
   129   122   120   am
   130   120   119    1
   131    98    97    1
   132    98    99    2
   133    97    96    1
   134   107   106    2
   135    93    95   am
   136    93    92    1
   137   119   116    1
   138   123   124    1
   139   124   125    1
   140    92    89    1
   141   116   115    1
   142   116   117    1
   143   125   126    2
   144    89    90    1
   145    89    88    1
   146   117   118    2
   147    91    90    2
