@<TRIPOS>MOLECULE
tmp/3qbyB00.pdb
 95 95 0 0 0
SMALL
GASTEIGER

@<TRIPOS>ATOM
      1  N         18.1790  -16.9840  -33.3240 N.3    10  ALA10      -0.1245
      2  CA        19.2010  -17.7540  -32.6440 C.3    10  ALA10       0.1562
      3  C         18.6000  -18.7200  -31.6170 C.2    10  ALA10       0.2260
      4  O         17.7720  -18.3290  -30.7910 O.2    10  ALA10      -0.2867
      5  CB        20.2040  -16.8340  -32.0030 C.3    10  ALA10       0.0290
      6  N         18.7220  -21.3020  -28.4430 N.3    12  MET12      -0.1245
      7  CA        19.3520  -21.8190  -27.2290 C.3    12  MET12       0.1570
      8  C         18.4190  -22.7890  -26.5270 C.2    12  MET12       0.2261
      9  O         17.1940  -22.6650  -26.6360 O.2    12  MET12      -0.2867
     10  CB        19.7190  -20.6810  -26.2900 C.3    12  MET12       0.0387
     11  CG        20.6660  -19.6730  -26.9610 C.3    12  MET12       0.0595
     12  SD        21.5310  -18.6610  -25.7840 S.3    12  MET12      -0.1393
     13  CE        22.4270  -19.8600  -24.7880 C.3    12  MET12       0.0692
     14  N         14.5520  -22.3220  -24.9270 N.3    15  TYR15      -0.1228
     15  CA        13.9540  -21.1100  -25.4880 C.3    15  TYR15       0.1721
     16  C         13.5620  -21.2850  -26.9590 C.2    15  TYR15       0.2437
     17  O         14.2210  -22.0300  -27.6880 O.2    15  TYR15      -0.2733
     18  CB        14.9150  -19.9130  -25.3460 C.3    15  TYR15       0.0547
     19  CG        15.3200  -19.6760  -23.9030 C.ar   15  TYR15      -0.0200
     20  CD1       14.5410  -18.8870  -23.0580 C.ar   15  TYR15      -0.0009
     21  CD2       16.4700  -20.2760  -23.3770 C.ar   15  TYR15      -0.0009
     22  CE1       14.9010  -18.7020  -21.7190 C.ar   15  TYR15       0.0417
     23  CE2       16.8370  -20.0920  -22.0460 C.ar   15  TYR15       0.0417
     24  CZ        16.0550  -19.2950  -21.2290 C.ar   15  TYR15       0.1957
     25  OH        16.4230  -19.1350  -19.9150 O.3    15  TYR15      -0.2866
     26  N         12.5030  -20.5770  -27.4010 N.am   16  PRO16      -0.2729
     27  CA        12.2060  -20.5550  -28.8470 C.3    16  PRO16       0.1401
     28  C         13.3270  -19.9070  -29.6310 C.2    16  PRO16       0.2269
     29  O         14.1290  -19.1360  -29.0660 O.2    16  PRO16      -0.2865
     30  CB        10.9450  -19.6900  -28.9430 C.3    16  PRO16       0.0296
     31  CG        10.9390  -18.8360  -27.6400 C.3    16  PRO16       0.0237
     32  CD        11.5500  -19.7590  -26.6120 C.3    16  PRO16       0.0939
     33  N         15.0530  -17.2890  -31.3720 N.3    18  TRP18      -0.1241
     34  CA        14.8980  -15.9340  -30.8320 C.3    18  TRP18       0.1605
     35  C         15.4840  -14.8910  -31.7960 C.2    18  TRP18       0.2264
     36  O         16.6160  -15.0520  -32.2490 O.2    18  TRP18      -0.2867
     37  CB        15.5920  -15.8360  -29.4700 C.3    18  TRP18       0.0550
     38  CG        15.0780  -14.6900  -28.5840 C.ar   18  TRP18       0.0003
     39  CD1       15.3430  -13.3520  -28.7180 C.ar   18  TRP18       0.0946
     40  CD2       14.2010  -14.8180  -27.4650 C.ar   18  TRP18       0.0152
     41  NE1       14.6830  -12.6390  -27.7360 N.ar   18  TRP18      -0.2442
     42  CE2       13.9720  -13.5180  -26.9580 C.ar   18  TRP18       0.0810
     43  CE3       13.5700  -15.9120  -26.8540 C.ar   18  TRP18       0.0012
     44  CZ2       13.1520  -13.2760  -25.8680 C.ar   18  TRP18       0.0191
     45  CZ3       12.7510  -15.6760  -25.7470 C.ar   18  TRP18       0.0001
     46  CH2       12.5490  -14.3560  -25.2680 C.ar   18  TRP18       0.0015
     47  N         20.6630  -10.6990  -28.5300 N.3    34  PHE34      -0.1241
     48  CA        19.2530  -11.0850  -28.5820 C.3    34  PHE34       0.1605
     49  C         18.3830   -9.8700  -28.4390 C.2    34  PHE34       0.2264
     50  O         18.4830   -9.1460  -27.4470 O.2    34  PHE34      -0.2867
     51  CB        18.9290  -12.0770  -27.4480 C.3    34  PHE34       0.0534
     52  CG        19.5920  -13.4020  -27.6230 C.ar   34  PHE34      -0.0203
     53  CD1       18.9610  -14.4140  -28.3380 C.ar   34  PHE34      -0.0042
     54  CD2       20.8510  -13.6340  -27.1000 C.ar   34  PHE34      -0.0042
     55  CE1       19.5790  -15.6470  -28.5260 C.ar   34  PHE34      -0.0003
     56  CE2       21.4860  -14.8550  -27.3000 C.ar   34  PHE34      -0.0003
     57  CZ        20.8490  -15.8620  -28.0170 C.ar   34  PHE34      -0.0000
     58  N         15.4030   -8.8380  -25.0340 N.3    37  THR37      -0.1203
     59  CA        16.0370   -9.0450  -23.7410 C.3    37  THR37       0.1994
     60  C         17.3370   -8.2670  -23.6390 C.2    37  THR37       0.2618
     61  O         17.7890   -7.9330  -22.5390 O.2    37  THR37      -0.2717
     62  CB        16.3150  -10.5230  -23.4670 C.3    37  THR37       0.1784
     63  OG1       17.2110  -11.0310  -24.4650 O.3    37  THR37      -0.2211
     64  CG2       15.0240  -11.3100  -23.5120 C.3    37  THR37       0.0376
     65  N         17.9210   -7.9920  -24.8020 N.am   38  HIS38      -0.1961
     66  CA        19.2210   -7.3300  -24.9250 C.3    38  HIS38       0.1787
     67  C         20.3670   -8.1060  -24.2660 C.2    38  HIS38       0.2620
     68  O         21.3860   -7.5240  -23.8700 O.2    38  HIS38      -0.2715
     69  CB        19.1570   -5.8550  -24.4950 C.3    38  HIS38       0.0785
     70  CG        17.9470   -5.1480  -25.0140 C.ar   38  HIS38       0.0821
     71  ND1       17.1770   -4.3140  -24.2310 N.ar   38  HIS38      -0.2267
     72  CD2       17.3360   -5.2030  -26.2220 C.ar   38  HIS38       0.1154
     73  CE1       16.1600   -3.8630  -24.9450 C.ar   38  HIS38       0.1986
     74  NE2       16.2310   -4.3910  -26.1560 N.ar   38  HIS38      -0.2212
     75  N         20.1910   -9.4230  -24.1790 N.am   39  GLU39      -0.1963
     76  CA        21.2210  -10.3200  -23.6700 C.3    39  GLU39       0.1733
     77  C         22.1980  -10.6730  -24.7690 C.2    39  GLU39       0.2617
     78  O         21.9130  -10.4900  -25.9370 O.2    39  GLU39      -0.2715
     79  CB        20.5910  -11.6170  -23.1580 C.3    39  GLU39       0.0429
     80  CG        19.8490  -11.4510  -21.8710 C.3    39  GLU39       0.1163
     81  CD        18.9440  -12.6340  -21.5910 C.2    39  GLU39       0.3649
     82  OE1       18.2020  -13.0560  -22.5030 O.co2  39  GLU39      -0.2457
     83  OE2       18.9880  -13.1380  -20.4670 O.co2  39  GLU39      -0.2457
     84  N         23.3500  -11.1880  -24.3690 N.am   40  THR40      -0.1937
     85  CA        24.3540  -11.6610  -25.3070 C.3    40  THR40       0.2028
     86  C         24.7250  -13.1150  -25.0090 C.2    40  THR40       0.2642
     87  O         24.5920  -13.5780  -23.8770 O.2    40  THR40      -0.2714
     88  CB        25.6310  -10.7600  -25.2740 C.3    40  THR40       0.1808
     89  OG1       26.0790  -10.6160  -23.9200 O.3    40  THR40      -0.2208
     90  CG2       25.3480   -9.3610  -25.8550 C.3    40  THR40       0.0379
     91  N         25.1850  -13.8270  -26.0360 N.am   41  ALA41      -0.1977
     92  CA        25.7590  -15.1550  -25.8810 C.3    41  ALA41       0.1597
     93  C         26.7310  -15.4040  -27.0340 C.2    41  ALA41       0.2287
     94  O         26.8080  -14.6140  -27.9800 O.2    41  ALA41      -0.2864
     95  CB        24.6750  -16.2030  -25.8680 C.3    41  ALA41       0.0319
@<TRIPOS>BOND
     1     1     2    1
     2     2     5    1
     3     2     3    1
     4    36    35    2
     5    35    34    1
     6     3     4    2
     7    33    34    1
     8    34    37    1
     9    28    29    2
    10    28    27    1
    11    37    38    1
    12    30    27    1
    13    30    31    1
    14    27    26    1
    15    39    38   ar
    16    39    41   ar
    17    38    40   ar
    18    48    47    1
    19    48    49    1
    20    48    51    1
    21    55    53   ar
    22    55    57   ar
    23     6     7    1
    24    49    50    2
    25    53    52   ar
    26    57    56   ar
    27    94    93    2
    28    41    42   ar
    29    17    16    2
    30    31    32    1
    31    52    51    1
    32    52    54   ar
    33    40    42   ar
    34    40    43   ar
    35    26    16   am
    36    26    32    1
    37    56    54   ar
    38     7     8    1
    39     7    10    1
    40    93    92    1
    41    11    10    1
    42    11    12    1
    43    16    15    1
    44    42    44   ar
    45    43    45   ar
    46     9     8    2
    47    72    74   ar
    48    72    70   ar
    49    74    73   ar
    50    91    92    1
    51    91    86   am
    52    78    77    2
    53    92    95    1
    54    44    46   ar
    55    90    88    1
    56    12    13    1
    57    45    46   ar
    58    15    18    1
    59    15    14    1
    60    18    19    1
    61    85    88    1
    62    85    86    1
    63    85    84    1
    64    88    89    1
    65    58    59    1
    66    70    69    1
    67    70    71   ar
    68    86    87    2
    69    73    71   ar
    70    66    65    1
    71    66    69    1
    72    66    67    1
    73    65    60   am
    74    77    84   am
    75    77    76    1
    76    63    62    1
    77    67    75   am
    78    67    68    2
    79    75    76    1
    80    19    21   ar
    81    19    20   ar
    82    59    60    1
    83    59    62    1
    84    76    79    1
    85    60    61    2
    86    64    62    1
    87    21    23   ar
    88    79    80    1
    89    20    22   ar
    90    82    81   ar
    91    23    24   ar
    92    80    81    1
    93    22    24   ar
    94    81    83   ar
    95    24    25    1
