@<TRIPOS>MOLECULE
tmp/3qc0A00.pdb
 132 125 0 0 0
SMALL
GASTEIGER

@<TRIPOS>ATOM
      1  N        -19.2110   37.7610    3.7450 N.3    36  TRP36      -0.1241
      2  CA       -19.1710   38.5580    4.9340 C.3    36  TRP36       0.1605
      3  C        -19.4990   37.7330    6.1640 C.2    36  TRP36       0.2264
      4  O        -20.2200   36.7070    6.0920 O.2    36  TRP36      -0.2867
      5  CB       -20.1460   39.7330    4.8080 C.3    36  TRP36       0.0550
      6  CG       -19.7170   40.7500    3.8140 C.ar   36  TRP36       0.0003
      7  CD1      -19.4350   40.5600    2.4980 C.ar   36  TRP36       0.0946
      8  CD2      -19.4530   42.1380    4.0730 C.ar   36  TRP36       0.0152
      9  NE1      -19.0310   41.7380    1.9210 N.ar   36  TRP36      -0.2442
     10  CE2      -19.0420   42.7120    2.8720 C.ar   36  TRP36       0.0810
     11  CE3      -19.5650   42.9430    5.2020 C.ar   36  TRP36       0.0012
     12  CZ2      -18.7480   44.0670    2.7560 C.ar   36  TRP36       0.0191
     13  CZ3      -19.2490   44.2970    5.0800 C.ar   36  TRP36       0.0001
     14  CH2      -18.8250   44.8210    3.8830 C.ar   36  TRP36       0.0015
     15  N        -15.5520   41.2730    7.6000 N.3    64  ARG64      -0.1245
     16  CA       -14.2650   41.9410    7.7720 C.3    64  ARG64       0.1563
     17  C        -13.9410   41.9880    9.2450 C.2    64  ARG64       0.2260
     18  O        -14.8210   41.9260   10.1090 O.2    64  ARG64      -0.2867
     19  CB       -14.2880   43.3950    7.1980 C.3    64  ARG64       0.0307
     20  CG       -15.2120   44.4000    7.8880 C.3    64  ARG64       0.0489
     21  CD       -16.6330   44.2280    7.5810 C.3    64  ARG64       0.2205
     22  NE       -17.4490   45.4290    7.8230 N.pl3  64  ARG64      -0.0865
     23  CZ       -18.4340   45.5850    8.6780 C.cat  64  ARG64       0.5346
     24  NH1      -18.9010   44.5980    9.4660 N.pl3  64  ARG64       0.1354
     25  NH2      -19.0310   46.7870    8.6900 N.pl3  64  ARG64       0.1354
     26  N        -12.1450   47.7530   13.0240 N.3    67  PHE67      -0.1241
     27  CA       -12.8780   48.5210   14.0230 C.3    67  PHE67       0.1605
     28  C        -12.1700   48.5880   15.3500 C.2    67  PHE67       0.2264
     29  O        -12.7250   48.2860   16.3980 O.2    67  PHE67      -0.2867
     30  CB       -14.3300   47.9920   14.0950 C.3    67  PHE67       0.0534
     31  CG       -15.0120   48.1210   12.7810 C.ar   67  PHE67      -0.0203
     32  CD1      -15.4540   49.3570   12.3600 C.ar   67  PHE67      -0.0042
     33  CD2      -15.1370   47.0330   11.9280 C.ar   67  PHE67      -0.0042
     34  CE1      -16.0380   49.5260   11.0790 C.ar   67  PHE67      -0.0003
     35  CE2      -15.7040   47.1980   10.6680 C.ar   67  PHE67      -0.0003
     36  CZ       -16.1420   48.4330   10.2550 C.ar   67  PHE67      -0.0000
     37  N        -11.1430   46.6600    8.0170 N.3   101  VAL101     -0.1245
     38  CA       -11.7320   47.9960    7.8980 C.3   101  VAL101      0.1561
     39  C        -11.4770   48.6810    9.2250 C.2   101  VAL101      0.2260
     40  O        -11.9870   48.2520   10.2490 O.2   101  VAL101     -0.2867
     41  CB       -13.2240   47.8900    7.5760 C.3   101  VAL101      0.0252
     42  CG1      -13.8760   49.2790    7.5910 C.3   101  VAL101      0.0019
     43  CG2      -13.4530   47.2610    6.2060 C.3   101  VAL101      0.0019
     44  N         -7.3170   47.3730    4.3910 N.3   139  GLU139     -0.1245
     45  CA        -8.0200   47.9750    3.2430 C.3   139  GLU139      0.1567
     46  C         -8.0730   49.4890    3.4770 C.2   139  GLU139      0.2260
     47  O         -8.8360   49.9550    4.3050 O.2   139  GLU139     -0.2867
     48  CB        -9.4270   47.4050    3.0920 C.3   139  GLU139      0.0388
     49  CG       -10.0510   47.7720    1.7490 C.3   139  GLU139      0.1160
     50  CD       -11.4900   47.3540    1.6070 C.2   139  GLU139      0.3649
     51  OE1      -12.1420   47.1790    2.6380 O.co2 139  GLU139     -0.2457
     52  OE2      -11.9280   47.2160    0.4520 O.co2 139  GLU139     -0.2457
     53  N         -9.5770   52.8690    3.0350 N.3   141  LEU141     -0.1245
     54  CA       -10.9450   53.2000    2.6900 C.3   141  LEU141      0.1561
     55  C        -10.9850   54.6350    2.1840 C.2   141  LEU141      0.2260
     56  O        -10.1640   55.4750    2.5470 O.2   141  LEU141     -0.2867
     57  CB       -11.9110   53.0460    3.8650 C.3   141  LEU141      0.0270
     58  CG       -12.8900   51.8620    3.7450 C.3   141  LEU141      0.0019
     59  CD1      -12.1800   50.4900    3.7780 C.3   141  LEU141      0.0001
     60  CD2      -13.9950   52.0140    4.7890 C.3   141  LEU141      0.0001
     61  N        -14.9430   58.0790    4.4270 N.3   144  TYR144     -0.1241
     62  CA       -15.2320   57.1910    5.5370 C.3   144  TYR144      0.1605
     63  C        -14.3670   57.4110    6.7790 C.2   144  TYR144      0.2264
     64  O        -14.4820   56.6740    7.7760 O.2   144  TYR144     -0.2867
     65  CB       -15.0450   55.7370    5.0640 C.3   144  TYR144      0.0534
     66  CG       -15.9260   55.3940    3.8570 C.ar  144  TYR144     -0.0201
     67  CD1      -17.3000   55.6420    3.8670 C.ar  144  TYR144     -0.0009
     68  CD2      -15.4020   54.8210    2.7210 C.ar  144  TYR144     -0.0009
     69  CE1      -18.1010   55.3360    2.7670 C.ar  144  TYR144      0.0417
     70  CE2      -16.1870   54.5020    1.6340 C.ar  144  TYR144      0.0417
     71  CZ       -17.5370   54.7880    1.6300 C.ar  144  TYR144      0.1957
     72  OH       -18.3150   54.4160    0.5250 O.3   144  TYR144     -0.2866
     73  N        -15.9250   55.1630    9.8920 N.3   148  ARG148     -0.1245
     74  CA       -15.7830   53.7670    9.4390 C.3   148  ARG148      0.1563
     75  C        -14.3390   53.2870    9.3780 C.2   148  ARG148      0.2260
     76  O        -14.0690   52.1690    9.7910 O.2   148  ARG148     -0.2867
     77  CB       -16.4590   53.5110    8.0900 C.3   148  ARG148      0.0307
     78  CG       -17.9490   53.9270    7.9980 C.3   148  ARG148      0.0489
     79  CD       -18.4870   53.8580    6.6020 C.3   148  ARG148      0.2205
     80  NE       -19.7790   54.5740    6.4580 N.pl3 148  ARG148     -0.0865
     81  CZ       -20.9530   54.0130    6.7020 C.cat 148  ARG148      0.5346
     82  NH1      -21.0170   52.7150    7.0350 N.pl3 148  ARG148      0.1354
     83  NH2      -22.0760   54.7200    6.5600 N.pl3 148  ARG148      0.1354
     84  N        -11.9460   52.9090   -3.2330 N.3   176  HIS176     -0.1241
     85  CA       -11.3440   53.6430   -2.1410 C.3   176  HIS176      0.1621
     86  C        -10.0980   54.4130   -2.5560 C.2   176  HIS176      0.2264
     87  O         -9.7070   55.3680   -1.8510 O.2   176  HIS176     -0.2867
     88  CB       -10.9670   52.6720   -1.0170 C.3   176  HIS176      0.0745
     89  CG       -12.1420   51.9580   -0.4440 C.ar  176  HIS176      0.0817
     90  ND1      -13.3210   52.6120   -0.1480 N.ar  176  HIS176     -0.2268
     91  CD2      -12.3240   50.6550   -0.0960 C.ar  176  HIS176      0.1154
     92  CE1      -14.1910   51.7280    0.3240 C.ar  176  HIS176      0.1986
     93  NE2      -13.6080   50.5420    0.3710 N.ar  176  HIS176     -0.2212
     94  N        -22.4510   55.5140    0.5060 N.3   210  LEU210     -0.1245
     95  CA       -22.1750   54.1140    0.8270 C.3   210  LEU210      0.1561
     96  C        -22.7230   53.1290   -0.1760 C.2   210  LEU210      0.2260
     97  O        -21.9920   52.1790   -0.5310 O.2   210  LEU210     -0.2867
     98  CB       -22.7400   53.7590    2.2160 C.3   210  LEU210      0.0270
     99  CG       -22.2980   52.3940    2.7390 C.3   210  LEU210      0.0019
    100  CD1      -20.8150   52.3860    3.0790 C.3   210  LEU210      0.0001
    101  CD2      -23.1170   52.0160    3.9640 C.3   210  LEU210      0.0001
    102  N        -22.0990   52.4070   -5.2990 N.3   213  ARG213     -0.1245
    103  CA       -21.0100   51.9230   -6.1370 C.3   213  ARG213      0.1563
    104  C        -21.5430   51.5090   -7.5020 C.2   213  ARG213      0.2260
    105  O        -22.6890   51.0170   -7.6100 O.2   213  ARG213     -0.2867
    106  CB       -20.2780   50.7330   -5.5400 C.3   213  ARG213      0.0307
    107  CG       -19.6560   50.9560   -4.1900 C.3   213  ARG213      0.0489
    108  CD       -18.6860   49.8380   -3.8810 C.3   213  ARG213      0.2205
    109  NE       -17.9890   50.0140   -2.6230 N.pl3 213  ARG213     -0.0865
    110  CZ       -16.8800   49.3660   -2.2820 C.cat 213  ARG213      0.5346
    111  NH1      -16.3790   48.4070   -3.0540 N.pl3 213  ARG213      0.1354
    112  NH2      -16.2880   49.6470   -1.1280 N.pl3 213  ARG213      0.1354
    113  N        -17.0800   43.9420   -5.8380 N.3   240  GLU240     -0.1245
    114  CA       -17.7070   44.3780   -4.6040 C.3   240  GLU240      0.1567
    115  C        -18.5080   45.6350   -4.8940 C.2   240  GLU240      0.2260
    116  O        -17.9800   46.7380   -5.0170 O.2   240  GLU240     -0.2867
    117  CB       -16.6590   44.6300   -3.5100 C.3   240  GLU240      0.0388
    118  CG       -17.2690   45.0150   -2.1820 C.3   240  GLU240      0.1160
    119  CD       -16.2440   45.2900   -1.1360 C.2   240  GLU240      0.3649
    120  OE1      -15.1630   45.7340   -1.4940 O.co2 240  GLU240     -0.2457
    121  OE2      -16.5150   45.0040    0.0460 O.co2 240  GLU240     -0.2457
    122  N        -21.9870   47.8010   -3.7720 N.3   242  PHE242     -0.1241
    123  CA       -23.0970   48.1710   -2.9080 C.3   242  PHE242      0.1605
    124  C        -23.9910   49.1100   -3.7230 C.2   242  PHE242      0.2264
    125  O        -23.5690   50.2260   -4.0310 O.2   242  PHE242     -0.2867
    126  CB       -22.6480   48.9060   -1.6210 C.3   242  PHE242      0.0534
    127  CG       -21.4810   48.2780   -0.8760 C.ar  242  PHE242     -0.0203
    128  CD1      -21.2040   46.9330   -0.9130 C.ar  242  PHE242     -0.0042
    129  CD2      -20.6980   49.0710   -0.0530 C.ar  242  PHE242     -0.0042
    130  CE1      -20.1120   46.4000   -0.2090 C.ar  242  PHE242     -0.0003
    131  CE2      -19.6220   48.5380    0.6500 C.ar  242  PHE242     -0.0003
    132  CZ       -19.3180   47.1940    0.5520 C.ar  242  PHE242     -0.0000
@<TRIPOS>BOND
     1   105   104    2
     2   104   103    1
     3   103   106    1
     4   103   102    1
     5   113   114    1
     6   106   107    1
     7   116   115    2
     8   115   114    1
     9   114   117    1
    10   107   108    1
    11   125   124    2
    12   108   109    1
    13   122   123    1
    14   124   123    1
    15   117   118    1
    16    84    85    1
    17   111   110    1
    18   123   126    1
    19   109   110    2
    20    86    85    1
    21    86    87    2
    22   110   112    1
    23   118   119    1
    24    85    88    1
    25   126   127    1
    26   120   119   ar
    27   119   121   ar
    28    88    89    1
    29   128   127   ar
    30   128   130   ar
    31   127   129   ar
    32    97    96    2
    33    89    90   ar
    34    89    91   ar
    35   130   132   ar
    36    96    95    1
    37    90    92   ar
    38    91    93   ar
    39   129   131   ar
    40    92    93   ar
    41    52    50   ar
    42    94    95    1
    43    72    71    1
    44   132   131   ar
    45    95    98    1
    46    50    49    1
    47    50    51   ar
    48    71    70   ar
    49    71    69   ar
    50    70    68   ar
    51    49    48    1
    52     9     7   ar
    53     9    10   ar
    54    55    56    2
    55    55    54    1
    56    98    99    1
    57     7     6   ar
    58    54    53    1
    59    54    57    1
    60    68    66   ar
    61    99   100    1
    62    99   101    1
    63    12    10   ar
    64    12    14   ar
    65    69    67   ar
    66    10     8   ar
    67    48    45    1
    68    45    46    1
    69    45    44    1
    70    46    47    2
    71     1     2    1
    72    58    59    1
    73    58    57    1
    74    58    60    1
    75     6     8   ar
    76     6     5    1
    77    66    67   ar
    78    66    65    1
    79    14    13   ar
    80     8    11   ar
    81    61    62    1
    82     5     2    1
    83     2     3    1
    84    65    62    1
    85    13    11   ar
    86    62    63    1
    87     4     3    2
    88    43    41    1
    89    80    79    1
    90    80    81    2
    91    83    81    1
    92    79    78    1
    93    81    82    1
    94    63    64    2
    95    19    16    1
    96    19    20    1
    97    41    42    1
    98    41    38    1
    99    21    22    1
   100    21    20    1
   101    15    16    1
   102    16    17    1
   103    22    23    2
   104    38    37    1
   105    38    39    1
   106    78    77    1
   107    77    74    1
   108    23    25    1
   109    23    24    1
   110    39    40    2
   111    17    18    2
   112    75    74    1
   113    75    76    2
   114    74    73    1
   115    36    35   ar
   116    36    34   ar
   117    35    33   ar
   118    34    32   ar
   119    33    31   ar
   120    32    31   ar
   121    31    30    1
   122    26    27    1
   123    27    30    1
   124    27    28    1
   125    28    29    2
