@<TRIPOS>MOLECULE
tmp/3qc0A09.pdb
 89 86 0 0 0
SMALL
GASTEIGER

@<TRIPOS>ATOM
      1  N        -15.1400   27.8310  -17.1770 N.3     1  GLN1       -0.1231
      2  CA       -14.7490   28.6040  -15.9840 C.3     1  GLN1        0.1698
      3  C        -14.4380   30.0660  -16.3470 C.2     1  GLN1        0.2592
      4  O        -13.8670   30.3360  -17.4000 O.2     1  GLN1       -0.2718
      5  CB       -13.5300   27.9830  -15.2950 C.3     1  GLN1        0.0381
      6  CG       -13.7320   26.5910  -14.7010 C.3     1  GLN1        0.0905
      7  CD       -14.8460   26.5550  -13.6860 C.2     1  GLN1        0.2608
      8  OE1      -14.8370   27.3770  -12.7480 O.2     1  GLN1       -0.2717
      9  NE2      -15.8370   25.7480  -13.8960 N.am    1  GLN1       -0.0878
     10  N        -14.8260   30.9970  -15.4780 N.am    2  VAL2       -0.1966
     11  CA       -14.4090   32.4040  -15.6320 C.3     2  VAL2        0.1727
     12  C        -13.1790   32.5830  -14.7570 C.2     2  VAL2        0.2616
     13  O        -13.2930   32.8030  -13.5450 O.2     2  VAL2       -0.2715
     14  CB       -15.5090   33.3920  -15.2330 C.3     2  VAL2        0.0290
     15  CG1      -15.0190   34.8590  -15.4380 C.3     2  VAL2        0.0023
     16  CG2      -16.7680   33.1350  -16.0350 C.3     2  VAL2        0.0023
     17  N        -12.0090   32.4490  -15.3730 N.am    3  GLU3       -0.1963
     18  CA       -10.7470   32.5180  -14.6630 C.3     3  GLU3        0.1733
     19  C        -10.5030   33.9680  -14.2110 C.2     3  GLU3        0.2617
     20  O        -10.7320   34.9040  -14.9770 O.2     3  GLU3       -0.2715
     21  CB        -9.5830   32.1290  -15.5620 C.3     3  GLU3        0.0429
     22  CG        -9.7240   30.7050  -16.0740 C.3     3  GLU3        0.1163
     23  CD       -10.3220   30.6960  -17.4680 C.2     3  GLU3        0.3649
     24  OE1      -10.6920   31.7640  -18.0060 O.co2   3  GLU3       -0.2457
     25  OE2      -10.4100   29.5910  -18.0440 O.co2   3  GLU3       -0.2457
     26  N         -9.9980   34.1000  -12.9950 N.am    4  GLY4       -0.1940
     27  CA        -9.5940   35.4060  -12.4080 C.3     4  GLY4        0.2014
     28  C        -10.6640   36.3230  -11.8420 C.2     4  GLY4        0.2638
     29  O        -10.3580   37.4810  -11.5620 O.2     4  GLY4       -0.2714
     30  N        -11.9020   35.8510  -11.7400 N.am    5  LEU5       -0.1977
     31  CA       -13.0310   36.6160  -11.2200 C.3     5  LEU5        0.1596
     32  C        -13.5130   36.0300   -9.8840 C.2     5  LEU5        0.2287
     33  O        -13.7460   34.8230   -9.7570 O.2     5  LEU5       -0.2864
     34  CB       -14.1900   36.6390  -12.2200 C.3     5  LEU5        0.0297
     35  CG       -15.4340   37.4530  -11.8530 C.3     5  LEU5        0.0022
     36  CD1      -15.0450   38.9370  -11.5740 C.3     5  LEU5        0.0001
     37  CD2      -16.5030   37.3540  -12.9390 C.3     5  LEU5        0.0001
     38  N        -19.8000   29.7960  -13.6380 N.3    29  GLY29      -0.1210
     39  CA       -18.3830   29.4570  -13.7910 C.3    29  GLY29       0.1956
     40  C        -17.4550   30.1940  -12.8280 C.2    29  GLY29       0.2612
     41  O        -16.2320   30.2610  -13.0600 O.2    29  GLY29      -0.2717
     42  N        -18.0350   30.7580  -11.7670 N.am   30  ILE30      -0.1965
     43  CA       -17.2300   31.5490  -10.8120 C.3    30  ILE30       0.1727
     44  C        -16.9100   30.6430   -9.6270 C.2    30  ILE30       0.2617
     45  O        -17.8280   30.0850   -9.0030 O.2    30  ILE30      -0.2715
     46  CB       -17.9330   32.8690  -10.4010 C.3    30  ILE30       0.0290
     47  CG1      -18.0200   33.8210  -11.6010 C.3    30  ILE30       0.0022
     48  CG2      -17.1920   33.5580   -9.2420 C.3    30  ILE30       0.0023
     49  CD1      -19.1190   34.8560  -11.4590 C.3    30  ILE30       0.0001
     50  N        -15.6170   30.4630   -9.3460 N.am   31  THR31      -0.1937
     51  CA       -15.1940   29.6160   -8.2180 C.3    31  THR31       0.2028
     52  C        -14.4630   30.3440   -7.0870 C.2    31  THR31       0.2642
     53  O        -13.7440   29.7180   -6.2830 O.2    31  THR31      -0.2714
     54  CB       -14.2960   28.4520   -8.7020 C.3    31  THR31       0.1808
     55  OG1      -13.1520   28.9810   -9.3820 O.3    31  THR31      -0.2208
     56  CG2      -15.0790   27.4910   -9.6340 C.3    31  THR31       0.0379
     57  N        -14.6170   31.6640   -7.0340 N.am   32  ALA32      -0.1977
     58  CA       -14.0160   32.4290   -5.9650 C.3    32  ALA32       0.1597
     59  C        -15.0520   33.4360   -5.4830 C.2    32  ALA32       0.2287
     60  O        -15.7650   34.0340   -6.2870 O.2    32  ALA32      -0.2864
     61  CB       -12.7780   33.1590   -6.4830 C.3    32  ALA32       0.0319
     62  N        -12.3320   29.1500   -3.7700 N.3    58  LYS58      -0.1245
     63  CA       -11.3420   30.0850   -3.2270 C.3    58  LYS58       0.1561
     64  C        -12.1100   31.2120   -2.5480 C.2    58  LYS58       0.2260
     65  O        -13.1600   31.6330   -3.0360 O.2    58  LYS58      -0.2867
     66  CB       -10.4510   30.6390   -4.3440 C.3    58  LYS58       0.0271
     67  CG        -9.7170   31.9250   -3.9620 C.3    58  LYS58       0.0035
     68  CD        -8.8030   32.4320   -5.0810 C.3    58  LYS58       0.0206
     69  CE        -7.5360   31.5890   -5.2360 C.3    58  LYS58       0.1093
     70  NZ        -6.7650   31.4060   -3.9820 N.3    58  LYS58      -0.1314
     71  N         -1.3290   38.7340   -9.3140 N.3   234  HIS234     -0.1226
     72  CA        -2.0910   38.1320  -10.3950 C.3   234  HIS234      0.1752
     73  C         -3.3340   37.3950   -9.8970 C.2   234  HIS234      0.2597
     74  O         -3.9510   36.6200  -10.6510 O.2   234  HIS234     -0.2718
     75  CB        -1.1650   37.1940  -11.1990 C.3   234  HIS234      0.0759
     76  CG         0.0160   37.9090  -11.7900 C.ar  234  HIS234      0.0818
     77  ND1       -0.0560   38.6300  -12.9660 N.ar  234  HIS234     -0.2268
     78  CD2        1.2800   38.0640  -11.3280 C.ar  234  HIS234      0.1154
     79  CE1        1.1190   39.1900  -13.2040 C.ar  234  HIS234      0.1986
     80  NE2        1.9430   38.8680  -12.2190 N.ar  234  HIS234     -0.2212
     81  N         -3.7160   37.6550   -8.6450 N.am  235  GLY235     -0.1942
     82  CA        -4.9250   37.0750   -8.0600 C.3   235  GLY235      0.2014
     83  C         -6.2100   37.5750   -8.6900 C.2   235  GLY235      0.2638
     84  O         -6.2160   38.5470   -9.4980 O.2   235  GLY235     -0.2714
     85  N         -7.3130   36.9640   -8.2870 N.am  236  ALA236     -0.1977
     86  CA        -8.5890   37.2570   -8.8710 C.3   236  ALA236      0.1597
     87  C         -9.0220   38.6760   -8.5170 C.2   236  ALA236      0.2287
     88  O         -8.6530   39.2250   -7.4710 O.2   236  ALA236     -0.2864
     89  CB        -9.6410   36.2730   -8.4000 C.3   236  ALA236      0.0319
@<TRIPOS>BOND
     1    25    23   ar
     2    24    23   ar
     3    23    22    1
     4     4     3    2
     5     1     2    1
     6     3     2    1
     7     3    10   am
     8    22    21    1
     9    16    14    1
    10     2     5    1
    11    11    10    1
    12    11    14    1
    13    11    12    1
    14    21    18    1
    15    15    14    1
    16    17    12   am
    17    17    18    1
    18     5     6    1
    19    20    19    2
    20    12    13    2
    21     6     7    1
    22    18    19    1
    23    19    26   am
    24     9     7   am
    25    39    38    1
    26    39    40    1
    27     7     8    2
    28    79    77   ar
    29    79    80   ar
    30    41    40    2
    31    26    27    1
    32    77    76   ar
    33    37    35    1
    34    40    42   am
    35    27    28    1
    36    34    35    1
    37    34    31    1
    38    80    78   ar
    39    35    36    1
    40    28    30   am
    41    28    29    2
    42    76    78   ar
    43    76    75    1
    44    42    43    1
    45    30    31    1
    46    47    49    1
    47    47    46    1
    48    31    32    1
    49    75    72    1
    50    43    46    1
    51    43    44    1
    52    74    73    2
    53    46    48    1
    54    72    73    1
    55    72    71    1
    56    73    81   am
    57    32    33    2
    58    56    54    1
    59    44    50   am
    60    44    45    2
    61    84    83    2
    62    55    54    1
    63    50    51    1
    64    86    87    1
    65    86    89    1
    66    86    85    1
    67    54    51    1
    68    83    85   am
    69    83    82    1
    70    81    82    1
    71    87    88    2
    72    51    52    1
    73    52    57   am
    74    52    53    2
    75    57    58    1
    76    61    58    1
    77    60    59    2
    78    58    59    1
    79    69    68    1
    80    69    70    1
    81    68    67    1
    82    66    67    1
    83    66    63    1
    84    62    63    1
    85    63    64    1
    86    65    64    2
