@<TRIPOS>MOLECULE
tmp/3qc2B01.pdb
 78 76 0 0 0
SMALL
GASTEIGER

@<TRIPOS>ATOM
      1  N        -14.3500  -74.9520  -12.7390 N.3   106  SER106     -0.1202
      2  CA       -14.0840  -75.0080  -11.3020 C.3   106  SER106      0.2020
      3  C        -13.6860  -73.6750  -10.6450 C.2   106  SER106      0.2618
      4  O        -13.6400  -73.5910   -9.4280 O.2   106  SER106     -0.2717
      5  CB       -12.9950  -76.0550  -11.0200 C.3   106  SER106      0.2103
      6  OG       -11.7600  -75.6600  -11.5960 O.3   106  SER106     -0.2182
      7  N        -13.3860  -72.6560  -11.4500 N.am  107  GLN107     -0.1979
      8  CA       -12.9800  -71.3330  -10.9320 C.3   107  GLN107      0.1601
      9  C        -14.0970  -70.2970  -10.9980 C.2   107  GLN107      0.2287
     10  O        -13.9000  -69.1600  -10.5930 O.2   107  GLN107     -0.2864
     11  CB       -11.7730  -70.7980  -11.7370 C.3   107  GLN107      0.0394
     12  CG       -10.6020  -71.7440  -11.8250 C.3   107  GLN107      0.0908
     13  CD       -10.0870  -72.1500  -10.4850 C.2   107  GLN107      0.2608
     14  OE1       -9.8630  -71.3070   -9.6020 O.2   107  GLN107     -0.2717
     15  NE2       -9.8810  -73.4550  -10.3040 N.am  107  GLN107     -0.0878
     16  N        -14.8720  -67.8100   -8.1970 N.3   110  LEU110     -0.1245
     17  CA       -13.7890  -66.8890   -7.9400 C.3   110  LEU110      0.1561
     18  C        -13.6460  -65.8660   -9.0750 C.2   110  LEU110      0.2260
     19  O        -13.1020  -64.7690   -8.8680 O.2   110  LEU110     -0.2867
     20  CB       -12.4640  -67.6600   -7.7630 C.3   110  LEU110      0.0270
     21  CG       -12.4340  -68.8630   -6.8030 C.3   110  LEU110      0.0019
     22  CD1      -11.0270  -69.4740   -6.7710 C.3   110  LEU110      0.0001
     23  CD2      -12.8950  -68.4970   -5.3740 C.3   110  LEU110      0.0001
     24  N         -6.3390  -73.5140  -16.1280 N.3   154  LYS154     -0.1231
     25  CA        -6.4960  -72.7290  -14.9100 C.3   154  LYS154      0.1693
     26  C         -6.1300  -73.5960  -13.7040 C.2   154  LYS154      0.2592
     27  O         -6.6510  -74.7200  -13.5470 O.2   154  LYS154     -0.2718
     28  CB        -7.9310  -72.2310  -14.7640 C.3   154  LYS154      0.0285
     29  CG        -8.4180  -71.3370  -15.9050 C.3   154  LYS154      0.0035
     30  CD        -9.8350  -70.9300  -15.6690 C.3   154  LYS154      0.0206
     31  CE       -10.3900  -70.0810  -16.8060 C.3   154  LYS154      0.1093
     32  NZ       -11.8070  -69.6570  -16.5310 N.3   154  LYS154     -0.1314
     33  N         -5.2430  -73.0620  -12.8560 N.am  155  HIS155     -0.1962
     34  CA        -4.7550  -73.7460  -11.6580 C.3   155  HIS155      0.1787
     35  C         -5.2630  -73.0990  -10.3690 C.2   155  HIS155      0.2621
     36  O         -4.9260  -73.5410   -9.2980 O.2   155  HIS155     -0.2715
     37  CB        -3.2200  -73.7240  -11.6290 C.3   155  HIS155      0.0785
     38  CG        -2.5760  -74.4000  -12.7960 C.ar  155  HIS155      0.0821
     39  ND1       -2.3810  -75.7620  -12.8500 N.ar  155  HIS155     -0.2267
     40  CD2       -2.0520  -73.8980  -13.9440 C.ar  155  HIS155      0.1154
     41  CE1       -1.7800  -76.0720  -13.9870 C.ar  155  HIS155      0.1986
     42  NE2       -1.5690  -74.9600  -14.6670 N.ar  155  HIS155     -0.2212
     43  N         -6.0570  -72.0500  -10.4770 N.am  156  GLY156     -0.1940
     44  CA        -6.5870  -71.3870   -9.3000 C.3   156  GLY156      0.1998
     45  C         -5.6130  -70.4260   -8.6270 C.2   156  GLY156      0.2480
     46  O         -4.5420  -70.1420   -9.1570 O.2   156  GLY156     -0.2729
     47  N         -6.0000  -69.9050   -7.4530 N.am  157  PRO157     -0.2726
     48  CA        -5.1960  -68.9570   -6.6950 C.3   157  PRO157      0.1402
     49  C         -3.7600  -69.4160   -6.4810 C.2   157  PRO157      0.2269
     50  O         -3.5170  -70.6000   -6.1640 O.2   157  PRO157     -0.2865
     51  CB        -5.9490  -68.8600   -5.3640 C.3   157  PRO157      0.0296
     52  CG        -7.3700  -69.1000   -5.7390 C.3   157  PRO157      0.0237
     53  CD        -7.3360  -70.1000   -6.8430 C.3   157  PRO157      0.0939
     54  N         -3.1440  -70.6720   -2.8780 N.3   160  ALA160     -0.1231
     55  CA        -4.2170  -71.5540   -2.3850 C.3   160  ALA160      0.1694
     56  C         -3.7790  -72.6050   -1.3620 C.2   160  ALA160      0.2591
     57  O         -4.4710  -72.8170   -0.3630 O.2   160  ALA160     -0.2718
     58  CB        -4.9440  -72.2440   -3.5780 C.3   160  ALA160      0.0304
     59  N         -2.6400  -73.2530   -1.6000 N.am  161  LYS161     -0.1980
     60  CA        -2.1800  -74.3450   -0.7240 C.3   161  LYS161      0.1596
     61  C         -1.1520  -73.9540    0.3700 C.2   161  LYS161      0.2287
     62  O         -1.0810  -74.6070    1.4060 O.2   161  LYS161     -0.2864
     63  CB        -1.6130  -75.4980   -1.5850 C.3   161  LYS161      0.0298
     64  CG        -2.6070  -76.1160   -2.5430 C.3   161  LYS161      0.0038
     65  CD        -3.7900  -76.6940   -1.7920 C.3   161  LYS161      0.0206
     66  CE        -4.5860  -77.6400   -2.6740 C.3   161  LYS161      0.1093
     67  NZ        -4.9070  -76.9760   -3.9680 N.3   161  LYS161     -0.1314
     68  N         -5.7110  -68.3700    1.2430 N.3   168  PHE168     -0.1241
     69  CA        -6.6940  -68.6040    0.1470 C.3   168  PHE168      0.1605
     70  C         -7.6270  -67.3830   -0.0660 C.2   168  PHE168      0.2264
     71  O         -7.9330  -67.0220   -1.2010 O.2   168  PHE168     -0.2867
     72  CB        -7.5390  -69.8510    0.4090 C.3   168  PHE168      0.0534
     73  CG        -8.3710  -70.2710   -0.7780 C.ar  168  PHE168     -0.0203
     74  CD1       -9.6410  -69.7380   -0.9840 C.ar  168  PHE168     -0.0042
     75  CD2       -7.8770  -71.1860   -1.6980 C.ar  168  PHE168     -0.0042
     76  CE1      -10.4080  -70.1230   -2.0860 C.ar  168  PHE168     -0.0003
     77  CE2       -8.6360  -71.5730   -2.8000 C.ar  168  PHE168     -0.0003
     78  CZ        -9.9040  -71.0390   -2.9920 C.ar  168  PHE168     -0.0000
@<TRIPOS>BOND
     1    31    32    1
     2    31    30    1
     3    24    25    1
     4    29    30    1
     5    29    28    1
     6    25    28    1
     7    25    26    1
     8    42    41   ar
     9    42    40   ar
    10    41    39   ar
    11    40    38   ar
    12    26    27    2
    13    26    33   am
    14    33    34    1
    15    39    38   ar
    16    38    37    1
    17     1     2    1
    18    12    11    1
    19    12    13    1
    20    11     8    1
    21    34    37    1
    22    34    35    1
    23     6     5    1
    24     7     8    1
    25     7     3   am
    26     2     5    1
    27     2     3    1
    28     9     8    1
    29     9    10    2
    30     3     4    2
    31    13    15   am
    32    13    14    2
    33    43    35   am
    34    43    44    1
    35    35    36    2
    36    44    45    1
    37    46    45    2
    38    18    19    2
    39    18    17    1
    40    45    47   am
    41    16    17    1
    42    17    20    1
    43    20    21    1
    44    47    53    1
    45    47    48    1
    46    53    52    1
    47    21    22    1
    48    21    23    1
    49    48    49    1
    50    48    51    1
    51    49    50    2
    52    52    51    1
    53    67    66    1
    54    58    55    1
    55    78    77   ar
    56    78    76   ar
    57    54    55    1
    58    77    75   ar
    59    66    65    1
    60    64    65    1
    61    64    63    1
    62    55    56    1
    63    76    74   ar
    64    75    73   ar
    65    59    56   am
    66    59    60    1
    67    63    60    1
    68    56    57    2
    69    71    70    2
    70    74    73   ar
    71    73    72    1
    72    60    61    1
    73    70    69    1
    74    69    72    1
    75    69    68    1
    76    61    62    2
