@<TRIPOS>MOLECULE
tmp/3qc4B00.pdb
 228 215 0 0 0
SMALL
GASTEIGER

@<TRIPOS>ATOM
      1  N         20.0010   45.7570   46.5900 N.3    23  LEU23      -0.1245
      2  CA        19.4520   45.2370   47.8330 C.3    23  LEU23       0.1561
      3  C         18.2100   44.3830   47.5860 C.2    23  LEU23       0.2260
      4  O         17.9480   43.4290   48.3040 O.2    23  LEU23      -0.2867
      5  CB        19.0990   46.4210   48.7580 C.3    23  LEU23       0.0270
      6  CG        20.2590   47.2820   49.2600 C.3    23  LEU23       0.0019
      7  CD1       19.7620   48.4460   50.0510 C.3    23  LEU23       0.0001
      8  CD2       21.2840   46.4470   50.1290 C.3    23  LEU23       0.0001
      9  N          8.4180   43.8110   41.9830 N.3    27  SER27      -0.1217
     10  CA         7.3360   44.8090   42.0920 C.3    27  SER27       0.1889
     11  C          7.6910   45.9970   41.1970 C.2    27  SER27       0.2288
     12  O          7.5600   47.1810   41.5910 O.2    27  SER27      -0.2866
     13  CB         7.0840   45.2440   43.5350 C.3    27  SER27       0.2089
     14  OG         5.8010   45.8180   43.6300 O.3    27  SER27      -0.2183
     15  N         10.4060   47.4030   40.3620 N.3    29  SER29      -0.1217
     16  CA        11.3640   48.4270   40.8040 C.3    29  SER29       0.1889
     17  C         12.6820   47.8250   41.3190 C.2    29  SER29       0.2288
     18  O         12.7860   46.6100   41.4700 O.2    29  SER29      -0.2866
     19  CB        10.7300   49.3020   41.8800 C.3    29  SER29       0.2089
     20  OG        10.4770   48.5130   43.0110 O.3    29  SER29      -0.2183
     21  N         15.8530   48.3980   44.3810 N.3    31  VAL31      -0.1245
     22  CA        16.3020   49.1070   45.5610 C.3    31  VAL31       0.1561
     23  C         17.8400   49.0510   45.6610 C.2    31  VAL31       0.2260
     24  O         18.4130   47.9710   45.6890 O.2    31  VAL31      -0.2867
     25  CB        15.6520   48.5410   46.8430 C.3    31  VAL31       0.0252
     26  CG1       16.0490   49.3820   48.0490 C.3    31  VAL31       0.0019
     27  CG2       14.1090   48.4570   46.6800 C.3    31  VAL31       0.0019
     28  N         18.8160   53.1460   51.4580 N.3    44  ALA44      -0.1245
     29  CA        18.3530   52.1880   50.4770 C.3    44  ALA44       0.1562
     30  C         17.4740   53.0340   49.5560 C.2    44  ALA44       0.2260
     31  O         16.4550   53.5970   49.9660 O.2    44  ALA44      -0.2867
     32  CB        17.5610   51.0110   51.1530 C.3    44  ALA44       0.0290
     33  N         15.0590   53.4450   46.4290 N.3    46  LYS46      -0.1245
     34  CA        14.1720   52.7710   45.5350 C.3    46  LYS46       0.1561
     35  C         14.0870   53.5440   44.2190 C.2    46  LYS46       0.2260
     36  O         13.6950   54.7140   44.1910 O.2    46  LYS46      -0.2867
     37  CB        12.7780   52.6870   46.1750 C.3    46  LYS46       0.0271
     38  CG        11.7820   51.9730   45.3090 C.3    46  LYS46       0.0035
     39  CD        10.3590   52.1740   45.8240 C.3    46  LYS46       0.0206
     40  CE         9.3580   51.7960   44.7400 C.3    46  LYS46       0.1093
     41  NZ         7.9660   51.5000   45.2940 N.3    46  LYS46      -0.1314
     42  N         -1.9030   55.0930   49.4540 N.3    58  ARG58      -0.1245
     43  CA        -0.4660   55.0010   49.2020 C.3    58  ARG58       0.1563
     44  C          0.2590   55.9650   50.1620 C.2    58  ARG58       0.2260
     45  O          1.2800   55.5790   50.7650 O.2    58  ARG58      -0.2867
     46  CB        -0.1050   55.2510   47.7120 C.3    58  ARG58       0.0307
     47  CG         1.3930   55.0290   47.3430 C.3    58  ARG58       0.0489
     48  CD         1.8940   53.7080   47.9290 C.3    58  ARG58       0.2205
     49  NE         1.2110   52.5260   47.3610 N.pl3  58  ARG58      -0.0865
     50  CZ         1.4120   51.2830   47.8150 C.cat  58  ARG58       0.5346
     51  NH1        2.2260   51.0780   48.8470 N.pl3  58  ARG58       0.1354
     52  NH2        0.7950   50.2550   47.2460 N.pl3  58  ARG58       0.1354
     53  N          0.6440   54.6510   53.9460 N.3    61  MET61      -0.1230
     54  CA         1.6690   53.6150   54.0640 C.3    61  MET61       0.1702
     55  C          3.0560   54.2270   53.8310 C.2    61  MET61       0.2593
     56  O          4.0220   53.8460   54.4950 O.2    61  MET61      -0.2718
     57  CB         1.3960   52.5210   53.0470 C.3    61  MET61       0.0401
     58  CG         0.1450   51.7490   53.4260 C.3    61  MET61       0.0596
     59  SD        -0.0710   50.2740   52.3610 S.3    61  MET61      -0.1393
     60  CE        -0.6350   51.0480   50.8920 C.3    61  MET61       0.0692
     61  N          3.1460   55.1540   52.8920 N.am   62  SER62      -0.1952
     62  CA         4.4430   55.7910   52.5700 C.3    62  SER62       0.1924
     63  C          4.9750   56.6740   53.7050 C.2    62  SER62       0.2314
     64  O          6.1900   56.7310   53.9140 O.2    62  SER62      -0.2863
     65  CB         4.3460   56.6150   51.2660 C.3    62  SER62       0.2116
     66  OG         4.3920   55.6460   50.1940 O.3    62  SER62      -0.2180
     67  N          4.5390   55.8300   56.8700 N.3    64  LEU64      -0.1245
     68  CA         4.6400   55.0170   58.0900 C.3    64  LEU64       0.1561
     69  C          5.9920   55.3360   58.7580 C.2    64  LEU64       0.2260
     70  O          7.0740   55.2220   58.0950 O.2    64  LEU64      -0.2867
     71  CB         4.5570   53.5140   57.7390 C.3    64  LEU64       0.0270
     72  CG         4.3860   52.5700   58.9350 C.3    64  LEU64       0.0019
     73  CD1        2.9700   52.5960   59.4400 C.3    64  LEU64       0.0001
     74  CD2        4.5840   51.2140   58.4270 C.3    64  LEU64       0.0001
     75  N          9.8570   49.4750   61.2820 N.3    69  PHE69      -0.1227
     76  CA         9.5410   49.5320   59.8400 C.3    69  PHE69       0.1736
     77  C         10.5330   50.4270   59.1580 C.2    69  PHE69       0.2595
     78  O         10.9720   51.4150   59.7510 O.2    69  PHE69      -0.2718
     79  CB         8.0880   50.1190   59.6890 C.3    69  PHE69       0.0547
     80  CG         7.0270   49.1410   60.1560 C.ar   69  PHE69      -0.0202
     81  CD1        6.5800   48.1430   59.2950 C.ar   69  PHE69      -0.0042
     82  CD2        6.5430   49.1970   61.4540 C.ar   69  PHE69      -0.0042
     83  CE1        5.5770   47.2500   59.7620 C.ar   69  PHE69      -0.0003
     84  CE2        5.5880   48.2980   61.9250 C.ar   69  PHE69      -0.0003
     85  CZ         5.1090   47.3460   61.0720 C.ar   69  PHE69      -0.0000
     86  N         10.7920   50.1550   57.8820 N.am   70  VAL70      -0.1966
     87  CA        11.5920   51.0490   57.0270 C.3    70  VAL70       0.1727
     88  C         10.8370   52.3770   56.9480 C.2    70  VAL70       0.2616
     89  O          9.6190   52.4080   57.0100 O.2    70  VAL70      -0.2715
     90  CB        11.6950   50.2650   55.6640 C.3    70  VAL70       0.0290
     91  CG1       11.8260   51.0800   54.4970 C.3    70  VAL70       0.0023
     92  CG2       12.9180   49.2560   55.8480 C.3    70  VAL70       0.0023
     93  N         11.5760   53.4790   56.7830 N.am   71  LYS71      -0.1963
     94  CA        10.9210   54.8110   56.7460 C.3    71  LYS71       0.1728
     95  C         11.3720   55.4850   55.4690 C.2    71  LYS71       0.2616
     96  O         12.4970   55.2360   54.9720 O.2    71  LYS71      -0.2715
     97  CB        11.5210   55.6120   57.9140 C.3    71  LYS71       0.0311
     98  CG        11.0770   57.0430   58.1050 C.3    71  LYS71       0.0038
     99  CD        12.0750   57.6930   59.1050 C.3    71  LYS71       0.0206
    100  CE        11.4680   58.7820   59.9990 C.3    71  LYS71       0.1093
    101  NZ        11.3840   60.2180   59.5200 N.3    71  LYS71      -0.1314
    102  N         10.5590   56.4110   54.9710 N.am   72  LEU72      -0.1977
    103  CA        10.9240   57.1450   53.7810 C.3    72  LEU72       0.1596
    104  C         11.5110   58.5250   54.2080 C.2    72  LEU72       0.2287
    105  O         10.8820   59.2410   54.9670 O.2    72  LEU72      -0.2864
    106  CB         9.6490   57.3020   52.8650 C.3    72  LEU72       0.0297
    107  CG         9.7430   58.3220   51.7060 C.3    72  LEU72       0.0022
    108  CD1       10.7560   57.8990   50.6820 C.3    72  LEU72       0.0001
    109  CD2        8.3400   58.4280   51.0700 C.3    72  LEU72       0.0001
    110  N         13.3660   57.0640   45.6080 N.3    84  PHE84      -0.1241
    111  CA        12.9060   57.1040   46.9850 C.3    84  PHE84       0.1605
    112  C         13.9670   56.6400   47.9740 C.2    84  PHE84       0.2264
    113  O         14.4450   55.4910   47.9300 O.2    84  PHE84      -0.2867
    114  CB        11.6820   56.1840   47.1800 C.3    84  PHE84       0.0534
    115  CG        10.5590   56.4830   46.2500 C.ar   84  PHE84      -0.0203
    116  CD1        9.5960   57.4370   46.5870 C.ar   84  PHE84      -0.0042
    117  CD2       10.4730   55.8540   45.0130 C.ar   84  PHE84      -0.0042
    118  CE1        8.5510   57.7540   45.6990 C.ar   84  PHE84      -0.0003
    119  CE2        9.3950   56.1930   44.1000 C.ar   84  PHE84      -0.0003
    120  CZ         8.4580   57.1280   44.4650 C.ar   84  PHE84      -0.0000
    121  N         15.1200   55.4880   51.3690 N.3    86  LEU86      -0.1231
    122  CA        14.5620   54.6950   52.4900 C.3    86  LEU86       0.1693
    123  C         15.6170   54.2280   53.4440 C.2    86  LEU86       0.2593
    124  O         16.8150   54.2680   53.1090 O.2    86  LEU86      -0.2718
    125  CB        13.8260   53.4910   51.9660 C.3    86  LEU86       0.0284
    126  CG        12.7680   53.7080   50.8760 C.3    86  LEU86       0.0019
    127  CD1       12.6220   52.3070   50.2800 C.3    86  LEU86       0.0001
    128  CD2       11.4500   54.2240   51.4280 C.3    86  LEU86       0.0001
    129  N         15.1750   53.8140   54.6410 N.am   87  SER87      -0.1938
    130  CA        16.1210   53.2760   55.6770 C.3    87  SER87       0.2055
    131  C         16.9730   52.1910   55.0330 C.2    87  SER87       0.2643
    132  O         16.4180   51.3010   54.3460 O.2    87  SER87      -0.2714
    133  CB        15.3110   52.5430   56.7650 C.3    87  SER87       0.2130
    134  OG        14.3180   53.3750   57.3620 O.3    87  SER87      -0.2179
    135  N         18.2950   52.1950   55.2790 N.am   88  TYR88      -0.1959
    136  CA        19.1350   51.0050   55.0010 C.3    88  TYR88       0.1771
    137  C         19.2930   50.1940   56.2700 C.2    88  TYR88       0.2619
    138  O         19.8080   50.6890   57.2870 O.2    88  TYR88      -0.2715
    139  CB        20.5560   51.4550   54.5100 C.3    88  TYR88       0.0574
    140  CG        21.6270   50.3790   54.3490 C.ar   88  TYR88      -0.0198
    141  CD1       21.3430   49.1580   53.7280 C.ar   88  TYR88      -0.0009
    142  CD2       22.9420   50.6180   54.7820 C.ar   88  TYR88      -0.0009
    143  CE1       22.3050   48.1720   53.5760 C.ar   88  TYR88       0.0417
    144  CE2       23.9270   49.6550   54.6280 C.ar   88  TYR88       0.0417
    145  CZ        23.5810   48.4170   54.0330 C.ar   88  TYR88       0.1957
    146  OH        24.5430   47.4810   53.8800 O.3    88  TYR88      -0.2866
    147  N         18.9290   48.9160   56.1920 N.am   89  ALA89      -0.1977
    148  CA        19.1060   48.0350   57.3030 C.3    89  ALA89       0.1597
    149  C         20.4430   47.3560   57.1230 C.2    89  ALA89       0.2287
    150  O         20.5640   46.4230   56.3320 O.2    89  ALA89      -0.2864
    151  CB        17.9780   47.0100   57.3460 C.3    89  ALA89       0.0319
    152  N          1.0550   48.0790   63.0340 N.3   123  LEU123     -0.1245
    153  CA         0.5990   48.1450   61.6170 C.3   123  LEU123      0.1561
    154  C         -0.9170   47.9140   61.4700 C.2   123  LEU123      0.2260
    155  O         -1.6440   48.7210   60.8050 O.2   123  LEU123     -0.2867
    156  CB         1.4450   47.1470   60.7650 C.3   123  LEU123      0.0270
    157  CG         1.1480   47.3160   59.2600 C.3   123  LEU123      0.0019
    158  CD1        1.8550   48.5190   58.5900 C.3   123  LEU123      0.0001
    159  CD2        1.5700   45.9150   58.6080 C.3   123  LEU123      0.0001
    160  N         -3.6320   48.7730   58.3450 N.3   128  ILE128     -0.1245
    161  CA        -2.8290   48.3260   57.2160 C.3   128  ILE128      0.1561
    162  C         -2.5800   46.7980   57.4280 C.2   128  ILE128      0.2260
    163  O         -2.2720   46.3560   58.5720 O.2   128  ILE128     -0.2867
    164  CB        -1.4520   49.0140   57.1390 C.3   128  ILE128      0.0252
    165  CG1       -1.6840   50.5590   56.8620 C.3   128  ILE128      0.0019
    166  CG2       -0.5760   48.4570   56.0640 C.3   128  ILE128      0.0019
    167  CD1       -0.4520   51.4800   57.3010 C.3   128  ILE128      0.0001
    168  N         -0.1570   43.6130   55.8020 N.3   130  HIS130     -0.1241
    169  CA         0.9960   43.3790   54.9850 C.3   130  HIS130      0.1621
    170  C          0.8260   42.4460   53.7930 C.2   130  HIS130      0.2264
    171  O          1.1430   42.7990   52.7080 O.2   130  HIS130     -0.2867
    172  CB         2.1230   42.8760   55.8710 C.3   130  HIS130      0.0745
    173  CG         3.4660   42.9840   55.2520 C.ar  130  HIS130      0.0817
    174  ND1        3.8460   42.2320   54.1810 N.ar  130  HIS130     -0.2268
    175  CD2        4.5150   43.7650   55.5520 C.ar  130  HIS130      0.1154
    176  CE1        5.0820   42.5270   53.8610 C.ar  130  HIS130      0.1986
    177  NE2        5.5000   43.4770   54.6600 N.ar  130  HIS130     -0.2212
    178  N         13.9430   42.9900   57.9770 N.3   139  LEU139     -0.1245
    179  CA        15.3730   43.3050   57.9160 C.3   139  LEU139      0.1561
    180  C         15.8950   43.5600   59.3170 C.2   139  LEU139      0.2260
    181  O         15.1140   43.6790   60.2600 O.2   139  LEU139     -0.2867
    182  CB        15.6690   44.5010   57.0110 C.3   139  LEU139      0.0270
    183  CG        14.9860   44.3960   55.6080 C.3   139  LEU139      0.0019
    184  CD1       15.3700   45.6250   54.8300 C.3   139  LEU139      0.0001
    185  CD2       15.3670   43.1080   54.8380 C.3   139  LEU139      0.0001
    186  N         10.8410   46.1170   59.1220 N.3   148  ILE148     -0.1231
    187  CA        10.0080   45.3950   58.1770 C.3   148  ILE148      0.1692
    188  C          9.8200   46.3060   56.9690 C.2   148  ILE148      0.2593
    189  O          9.6140   47.5940   57.0640 O.2   148  ILE148     -0.2718
    190  CB         8.6490   45.0650   58.8420 C.3   148  ILE148      0.0266
    191  CG1        8.9810   43.9430   59.9020 C.3   148  ILE148      0.0019
    192  CG2        7.6650   44.4820   57.7510 C.3   148  ILE148      0.0020
    193  CD1        7.7390   43.6110   60.7560 C.3   148  ILE148      0.0001
    194  N          9.9420   45.6910   55.8090 N.am  149  THR149     -0.1939
    195  CA         9.7630   46.3430   54.5040 C.3   149  THR149      0.2028
    196  C          8.4610   45.9160   53.8740 C.2   149  THR149      0.2642
    197  O          8.0450   44.7440   54.0350 O.2   149  THR149     -0.2714
    198  CB        10.9140   45.8790   53.4960 C.3   149  THR149      0.1808
    199  OG1       10.9540   44.4450   53.3850 O.3   149  THR149     -0.2208
    200  CG2       12.2480   46.3010   54.0220 C.3   149  THR149      0.0379
    201  N          7.8150   46.8310   53.1380 N.am  150  ASP150     -0.1957
    202  CA         6.7790   46.3380   52.2190 C.3   150  ASP150      0.1840
    203  C          7.4730   46.2230   50.8400 C.2   150  ASP150      0.2622
    204  O          8.4420   46.9720   50.5660 O.2   150  ASP150     -0.2715
    205  CB         5.6980   47.4100   52.0800 C.3   150  ASP150      0.1450
    206  CG         4.6640   47.0060   50.9900 C.2   150  ASP150      0.3671
    207  OD1        4.1880   45.8230   50.9790 O.co2 150  ASP150     -0.2456
    208  OD2        4.3760   47.8550   50.1860 O.co2 150  ASP150     -0.2456
    209  N          7.0080   45.3500   49.9690 N.am  151  PHE151     -0.1960
    210  CA         7.5870   45.3270   48.6130 C.3   151  PHE151      0.1771
    211  C          6.4550   45.3260   47.5930 C.2   151  PHE151      0.2620
    212  O          6.5890   44.7230   46.5110 O.2   151  PHE151     -0.2715
    213  CB         8.4620   44.0580   48.4970 C.3   151  PHE151      0.0574
    214  CG         9.8680   44.3390   48.0860 C.ar  151  PHE151     -0.0200
    215  CD1       10.1450   44.8800   46.8250 C.ar  151  PHE151     -0.0042
    216  CD2       10.9290   44.0540   48.9490 C.ar  151  PHE151     -0.0042
    217  CE1       11.4790   45.1380   46.4240 C.ar  151  PHE151     -0.0003
    218  CE2       12.2310   44.2750   48.5430 C.ar  151  PHE151     -0.0003
    219  CZ        12.5010   44.8330   47.2890 C.ar  151  PHE151     -0.0000
    220  N          5.3530   46.0140   47.9220 N.am  152  GLY152     -0.1954
    221  CA         4.2490   46.2090   47.0230 C.3   152  GLY152      0.1869
    222  C          2.9770   45.4000   47.3620 C.2   152  GLY152      0.2309
    223  O          2.0000   45.4440   46.5700 O.2   152  GLY152     -0.2863
    224  N          1.4710   45.4040   50.7360 N.3   154  ALA154     -0.1245
    225  CA         0.6560   45.9740   51.8690 C.3   154  ALA154      0.1562
    226  C         -0.5060   46.7980   51.3300 C.2   154  ALA154      0.2260
    227  O         -0.4310   47.4440   50.2540 O.2   154  ALA154     -0.2867
    228  CB         1.5430   46.9330   52.8570 C.3   154  ALA154      0.0290
@<TRIPOS>BOND
     1    15    16    1
     2    16    17    1
     3    16    19    1
     4    11    12    2
     5    11    10    1
     6    17    18    2
     7    19    20    1
     8     9    10    1
     9    10    13    1
    10    13    14    1
    11   119   120   ar
    12   119   117   ar
    13    36    35    2
    14    35    34    1
    15    21    22    1
    16   120   118   ar
    17    40    41    1
    18    40    39    1
    19   117   115   ar
    20    38    39    1
    21    38    37    1
    22    34    37    1
    23    34    33    1
    24    22    23    1
    25    22    25    1
    26   110   111    1
    27    23    24    2
    28   118   116   ar
    29   115   116   ar
    30   115   114    1
    31   217   215   ar
    32   217   219   ar
    33   212   211    2
    34   223   222    2
    35     1     2    1
    36    27    25    1
    37   215   214   ar
    38    25    26    1
    39   111   114    1
    40   111   112    1
    41   221   222    1
    42   221   220    1
    43    52    50    1
    44   219   218   ar
    45    47    46    1
    46    47    48    1
    47    49    50    2
    48    49    48    1
    49     3     2    1
    50     3     4    2
    51   211   220   am
    52   211   210    1
    53    46    43    1
    54    50    51    1
    55     2     5    1
    56   113   112    2
    57   214   213    1
    58   214   216   ar
    59   213   210    1
    60   218   216   ar
    61   210   209    1
    62     5     6    1
    63    43    42    1
    64    43    44    1
    65     6     7    1
    66     6     8    1
    67    30    31    2
    68    30    29    1
    69   209   203   am
    70    44    45    2
    71   208   206   ar
    72    66    65    1
    73   227   226    2
    74   127   126    1
    75    29    32    1
    76    29    28    1
    77   204   203    2
    78   108   107    1
    79   224   225    1
    80   203   202    1
    81   126   128    1
    82   126   125    1
    83    60    59    1
    84   207   206   ar
    85   206   205    1
    86   109   107    1
    87    65    62    1
    88   226   225    1
    89   121   122    1
    90   107   106    1
    91   225   228    1
    92   125   122    1
    93   205   202    1
    94   202   201    1
    95    59    58    1
    96   122   123    1
    97    62    61    1
    98    62    63    1
    99   171   170    2
   100   106   103    1
   101    61    55   am
   102    57    58    1
   103    57    54    1
   104   124   123    2
   105   201   196   am
   106   199   198    1
   107   123   129   am
   108   198   200    1
   109   198   195    1
   110   143   141   ar
   111   143   145   ar
   112    63    64    2
   113   141   140   ar
   114   103   104    1
   115   103   102    1
   116   170   169    1
   117    55    54    1
   118    55    56    2
   119   176   174   ar
   120   176   177   ar
   121   196   197    2
   122   196   195    1
   123   146   145    1
   124    53    54    1
   125   145   144   ar
   126   174   173   ar
   127   104   105    2
   128   132   131    2
   129   140   139    1
   130   140   142   ar
   131    91    90    1
   132   195   194    1
   133   139   136    1
   134   144   142   ar
   135   129   130    1
   136   177   175   ar
   137   184   183    1
   138   185   183    1
   139   102    95   am
   140    96    95    2
   141   169   168    1
   142   169   172    1
   143   136   135    1
   144   136   137    1
   145   131   135   am
   146   131   130    1
   147   173   175   ar
   148   173   172    1
   149    95    94    1
   150   183   182    1
   151    90    92    1
   152    90    87    1
   153   130   133    1
   154   194   188   am
   155   166   164    1
   156   147   137   am
   157   147   148    1
   158   137   138    2
   159   150   149    2
   160    94    93    1
   161    94    97    1
   162   133   134    1
   163    93    88   am
   164   165   164    1
   165   165   167    1
   166    67    68    1
   167    88    89    2
   168    88    87    1
   169   188   189    2
   170   188   187    1
   171   182   179    1
   172    87    86    1
   173   149   148    1
   174   164   161    1
   175   161   162    1
   176   161   160    1
   177   148   151    1
   178   162   163    2
   179    71    68    1
   180    71    72    1
   181   192   190    1
   182    86    77   am
   183    97    98    1
   184   179   178    1
   185   179   180    1
   186    68    69    1
   187    70    69    2
   188    98    99    1
   189   187   190    1
   190   187   186    1
   191    74    72    1
   192   158   157    1
   193   159   157    1
   194   190   191    1
   195    72    73    1
   196    99   100    1
   197    77    78    2
   198    77    76    1
   199   157   156    1
   200    81    83   ar
   201    81    80   ar
   202   180   181    2
   203   101   100    1
   204    79    76    1
   205    79    80    1
   206    83    85   ar
   207    76    75    1
   208   191   193    1
   209    80    82   ar
   210   156   153    1
   211   155   154    2
   212    85    84   ar
   213    82    84   ar
   214   154   153    1
   215   153   152    1
