@<TRIPOS>MOLECULE
tmp/3qcfB00.pdb
 147 142 0 0 0
SMALL
GASTEIGER

@<TRIPOS>ATOM
      1  N         29.6510   60.6970   70.4340 N.3   125  ILE125     -0.1245
      2  CA        30.4400   60.2730   71.5850 C.3   125  ILE125      0.1561
      3  C         31.6890   59.5110   71.1520 C.2   125  ILE125      0.2260
      4  O         31.9170   58.3960   71.5900 O.2   125  ILE125     -0.2867
      5  CB        29.6020   59.3740   72.5220 C.3   125  ILE125      0.0252
      6  CG1       28.1900   59.9340   72.6510 C.3   125  ILE125      0.0019
      7  CG2       30.2280   59.3330   73.9050 C.3   125  ILE125      0.0019
      8  CD1       27.3680   59.2410   73.7100 C.3   125  ILE125      0.0001
      9  N         31.5170   65.0170   72.2330 N.3   185  TYR185     -0.1241
     10  CA        32.4560   64.7800   73.3110 C.3   185  TYR185      0.1605
     11  C         33.8410   64.4500   72.7700 C.2   185  TYR185      0.2264
     12  O         34.0090   63.4980   72.0100 O.2   185  TYR185     -0.2867
     13  CB        31.9710   63.6440   74.2040 C.3   185  TYR185      0.0534
     14  CG        32.6160   63.6660   75.5650 C.ar  185  TYR185     -0.0201
     15  CD1       32.0590   64.4050   76.6000 C.ar  185  TYR185     -0.0009
     16  CD2       33.7980   62.9750   75.8110 C.ar  185  TYR185     -0.0009
     17  CE1       32.6550   64.4580   77.8380 C.ar  185  TYR185      0.0417
     18  CE2       34.4100   63.0210   77.0550 C.ar  185  TYR185      0.0417
     19  CZ        33.8320   63.7650   78.0660 C.ar  185  TYR185      0.1957
     20  OH        34.4160   63.8150   79.3170 O.3   185  TYR185     -0.2866
     21  N         39.0740   62.2900   74.7530 N.3   188  TRP188     -0.1241
     22  CA        39.3210   60.8600   74.6900 C.3   188  TRP188      0.1605
     23  C         40.8010   60.5340   74.8270 C.2   188  TRP188      0.2264
     24  O         41.5850   60.7450   73.9010 O.2   188  TRP188     -0.2867
     25  CB        38.7800   60.3120   73.3780 C.3   188  TRP188      0.0550
     26  CG        37.3100   60.4380   73.2900 C.ar  188  TRP188      0.0003
     27  CD1       36.6030   61.3310   72.5360 C.ar  188  TRP188      0.0946
     28  CD2       36.3450   59.6370   73.9760 C.ar  188  TRP188      0.0152
     29  NE1       35.2570   61.1310   72.7090 N.ar  188  TRP188     -0.2442
     30  CE2       35.0700   60.0970   73.5890 C.ar  188  TRP188      0.0810
     31  CE3       36.4340   58.5730   74.8790 C.ar  188  TRP188      0.0012
     32  CZ2       33.8950   59.5300   74.0730 C.ar  188  TRP188      0.0191
     33  CZ3       35.2650   58.0120   75.3570 C.ar  188  TRP188      0.0001
     34  CH2       34.0140   58.4910   74.9540 C.ar  188  TRP188      0.0015
     35  N         40.4700   54.8020   79.2490 N.3   193  VAL193     -0.1231
     36  CA        39.1460   55.3900   79.0480 C.3   193  VAL193      0.1678
     37  C         38.9790   56.6290   79.9190 C.2   193  VAL193      0.2434
     38  O         39.8130   56.9030   80.7830 O.2   193  VAL193     -0.2733
     39  CB        38.0270   54.3800   79.3940 C.3   193  VAL193      0.0265
     40  CG1       38.0040   53.2620   78.3660 C.3   193  VAL193      0.0020
     41  CG2       38.2540   53.8070   80.7880 C.3   193  VAL193      0.0020
     42  N         37.9030   57.4030   79.7010 N.am  194  PRO194     -0.2729
     43  CA        37.6760   58.5620   80.5730 C.3   194  PRO194      0.1401
     44  C         37.6400   58.1420   82.0390 C.2   194  PRO194      0.2269
     45  O         36.9440   57.1970   82.4030 O.2   194  PRO194     -0.2865
     46  CB        36.3340   59.1190   80.0910 C.3   194  PRO194      0.0296
     47  CG        36.2630   58.6960   78.6550 C.3   194  PRO194      0.0237
     48  CD        36.9050   57.3280   78.6200 C.3   194  PRO194      0.0939
     49  N         31.4870   64.1580   81.9130 N.3   200  VAL200     -0.1245
     50  CA        30.4080   63.5250   81.1790 C.3   200  VAL200      0.1561
     51  C         29.0210   63.9460   81.6760 C.2   200  VAL200      0.2260
     52  O         28.1220   64.2200   80.8760 O.2   200  VAL200     -0.2867
     53  CB        30.5240   62.0000   81.2510 C.3   200  VAL200      0.0252
     54  CG1       29.4040   61.3660   80.4630 C.3   200  VAL200      0.0019
     55  CG2       31.8720   61.5610   80.7040 C.3   200  VAL200      0.0019
     56  N         28.2790   67.0880   80.0670 N.3   203  PHE203     -0.1227
     57  CA        27.9600   66.9110   78.6520 C.3   203  PHE203      0.1736
     58  C         26.5620   66.3120   78.4570 C.2   203  PHE203      0.2595
     59  O         25.8080   66.7500   77.5830 O.2   203  PHE203     -0.2718
     60  CB        29.0080   66.0170   77.9730 C.3   203  PHE203      0.0547
     61  CG        28.6600   65.6450   76.5550 C.ar  203  PHE203     -0.0202
     62  CD1       28.9150   66.5200   75.5120 C.ar  203  PHE203     -0.0042
     63  CD2       28.0640   64.4300   76.2720 C.ar  203  PHE203     -0.0042
     64  CE1       28.5780   66.1920   74.2170 C.ar  203  PHE203     -0.0003
     65  CE2       27.7280   64.0960   74.9820 C.ar  203  PHE203     -0.0003
     66  CZ        27.9820   64.9730   73.9490 C.ar  203  PHE203     -0.0000
     67  N         26.2260   65.3170   79.2750 N.am  204  VAL204     -0.1980
     68  CA        24.9110   64.6950   79.2290 C.3   204  VAL204      0.1595
     69  C         23.8240   65.7090   79.5870 C.2   204  VAL204      0.2287
     70  O         22.8740   65.9110   78.8310 O.2   204  VAL204     -0.2864
     71  CB        24.8190   63.5150   80.2170 C.3   204  VAL204      0.0276
     72  CG1       23.4150   62.9540   80.2270 C.3   204  VAL204      0.0022
     73  CG2       25.8210   62.4440   79.8430 C.3   204  VAL204      0.0022
     74  N         29.1560   53.2750   73.8750 N.3   228  ARG228     -0.1245
     75  CA        29.0630   54.5870   74.5090 C.3   228  ARG228      0.1563
     76  C         27.6720   55.1680   74.2920 C.2   228  ARG228      0.2260
     77  O         27.0770   55.7490   75.2020 O.2   228  ARG228     -0.2867
     78  CB        30.1110   55.5450   73.9250 C.3   228  ARG228      0.0307
     79  CG        31.5570   55.2280   74.2880 C.3   228  ARG228      0.0489
     80  CD        32.4970   55.8180   73.2530 C.3   228  ARG228      0.2205
     81  NE        33.9000   55.5810   73.5800 N.pl3 228  ARG228     -0.0865
     82  CZ        34.9260   56.1210   72.9250 C.cat 228  ARG228      0.5346
     83  NH1       34.7110   56.9320   71.9050 N.pl3 228  ARG228      0.1354
     84  NH2       36.1710   55.8550   73.2970 N.pl3 228  ARG228      0.1354
     85  N         25.5870   53.7620   76.8440 N.3   231  THR231     -0.1203
     86  CA        25.9810   54.3600   78.1120 C.3   231  THR231      0.1994
     87  C         25.3920   55.7530   78.2590 C.2   231  THR231      0.2617
     88  O         24.9120   56.1190   79.3300 O.2   231  THR231     -0.2717
     89  CB        27.5020   54.4570   78.2320 C.3   231  THR231      0.1784
     90  OG1       28.0670   53.1370   78.2050 O.3   231  THR231     -0.2211
     91  CG2       27.8860   55.1510   79.5290 C.3   231  THR231      0.0376
     92  N         25.4080   56.5270   77.1820 N.am  232  TYR232     -0.1975
     93  CA        24.8480   57.8680   77.2400 C.3   232  TYR232      0.1639
     94  C         23.3520   57.7850   77.5250 C.2   232  TYR232      0.2290
     95  O         22.8210   58.5290   78.3490 O.2   232  TYR232     -0.2864
     96  CB        25.0880   58.5970   75.9220 C.3   232  TYR232      0.0560
     97  CG        24.3770   59.9210   75.8060 C.ar  232  TYR232     -0.0198
     98  CD1       25.0070   61.1060   76.1500 C.ar  232  TYR232     -0.0009
     99  CD2       23.0660   59.9810   75.3750 C.ar  232  TYR232     -0.0009
    100  CE1       24.3410   62.3090   76.0700 C.ar  232  TYR232      0.0417
    101  CE2       22.3930   61.1740   75.2910 C.ar  232  TYR232      0.0417
    102  CZ        23.0280   62.3370   75.6390 C.ar  232  TYR232      0.1957
    103  OH        22.3300   63.5250   75.5620 O.3   232  TYR232     -0.2866
    104  N         22.5480   56.7620   81.1650 N.3   235  ILE235     -0.1245
    105  CA        22.8860   57.8180   82.1100 C.3   235  ILE235      0.1561
    106  C         21.9060   58.9760   82.0260 C.2   235  ILE235      0.2260
    107  O         21.4100   59.4670   83.0410 O.2   235  ILE235     -0.2867
    108  CB        24.2810   58.3590   81.8470 C.3   235  ILE235      0.0252
    109  CG1       25.3170   57.2800   82.1770 C.3   235  ILE235      0.0019
    110  CG2       24.4950   59.6410   82.6470 C.3   235  ILE235      0.0019
    111  CD1       26.7430   57.6740   81.8500 C.3   235  ILE235      0.0001
    112  N         30.2450   46.7000   77.2030 N.3   267  THR267     -0.1218
    113  CA        31.2890   46.1180   78.0450 C.3   267  THR267      0.1862
    114  C         30.9380   46.3320   79.5140 C.2   267  THR267      0.2287
    115  O         30.1790   47.2410   79.8620 O.2   267  THR267     -0.2866
    116  CB        32.6740   46.7880   77.8130 C.3   267  THR267      0.1770
    117  OG1       32.5980   48.1670   78.2080 O.3   267  THR267     -0.2211
    118  CG2       33.1090   46.6840   76.3470 C.3   267  THR267      0.0375
    119  N         32.9110   47.4690   81.8330 N.3   269  GLU269     -0.1231
    120  CA        33.4490   48.7350   82.3080 C.3   269  GLU269      0.1699
    121  C         32.4320   49.8510   82.1010 C.2   269  GLU269      0.2592
    122  O         32.1910   50.6530   82.9980 O.2   269  GLU269     -0.2718
    123  CB        34.7540   49.0740   81.5800 C.3   269  GLU269      0.0402
    124  CG        35.8970   48.1290   81.9050 C.3   269  GLU269      0.1161
    125  CD        35.5440   46.6750   81.6310 C.2   269  GLU269      0.3649
    126  OE1       35.3470   46.3230   80.4420 O.co2 269  GLU269     -0.2457
    127  OE2       35.4580   45.8880   82.6040 O.co2 269  GLU269     -0.2457
    128  N         31.8370   49.8950   80.9170 N.am  270  GLN270     -0.1979
    129  CA        30.8100   50.8800   80.6230 C.3   270  GLN270      0.1601
    130  C         29.6520   50.7970   81.6210 C.2   270  GLN270      0.2287
    131  O         29.1350   51.8150   82.0890 O.2   270  GLN270     -0.2864
    132  CB        30.3000   50.6780   79.1900 C.3   270  GLN270      0.0394
    133  CG        31.3380   51.0800   78.1420 C.3   270  GLN270      0.0908
    134  CD        30.9730   50.6350   76.7400 C.2   270  GLN270      0.2608
    135  OE1       30.0950   49.7940   76.5530 O.2   270  GLN270     -0.2717
    136  NE2       31.6520   51.1980   75.7430 N.am  270  GLN270     -0.0878
    137  N         30.7430   52.1530   84.8090 N.3   273  PHE273     -0.1241
    138  CA        30.9120   53.5920   84.6870 C.3   273  PHE273      0.1605
    139  C         29.5780   54.3300   84.8000 C.2   273  PHE273      0.2264
    140  O         29.5160   55.4380   85.3430 O.2   273  PHE273     -0.2867
    141  CB        31.5750   53.9440   83.3550 C.3   273  PHE273      0.0534
    142  CG        31.6990   55.4160   83.1210 C.ar  273  PHE273     -0.0203
    143  CD1       32.7420   56.1340   83.6850 C.ar  273  PHE273     -0.0042
    144  CD2       30.7810   56.0820   82.3400 C.ar  273  PHE273     -0.0042
    145  CE1       32.8690   57.5060   83.4660 C.ar  273  PHE273     -0.0003
    146  CE2       30.8950   57.4370   82.1180 C.ar  273  PHE273     -0.0003
    147  CZ        31.9460   58.1530   82.6820 C.ar  273  PHE273     -0.0000
@<TRIPOS>BOND
     1     1     2    1
     2     3     2    1
     3     3     4    2
     4     2     5    1
     5    83    82    1
     6    12    11    2
     7     9    10    1
     8     5     6    1
     9     5     7    1
    10    27    29   ar
    11    27    26   ar
    12     6     8    1
    13    29    30   ar
    14    11    10    1
    15    82    84    1
    16    82    81    2
    17    80    81    1
    18    80    79    1
    19    26    25    1
    20    26    28   ar
    21    10    13    1
    22    25    22    1
    23    30    28   ar
    24    30    32   ar
    25    74    75    1
    26    24    23    2
    27    78    79    1
    28    78    75    1
    29    66    64   ar
    30    66    65   ar
    31    28    31   ar
    32    32    34   ar
    33    13    14    1
    34    64    62   ar
    35    76    75    1
    36    76    77    2
    37    22    21    1
    38    22    23    1
    39    31    33   ar
    40    34    33   ar
    41    65    63   ar
    42   101    99   ar
    43   101   102   ar
    44    99    97   ar
    45    62    61   ar
    46   103   102    1
    47    14    16   ar
    48    14    15   ar
    49   102   100   ar
    50   136   134   am
    51    97    96    1
    52    97    98   ar
    53    16    18   ar
    54    96    93    1
    55   100    98   ar
    56    63    61   ar
    57   118   116    1
    58   135   134    2
    59    61    60    1
    60    15    17   ar
    61   134   133    1
    62    85    86    1
    63    18    19   ar
    64    92    93    1
    65    92    87   am
    66   112   113    1
    67    93    94    1
    68    94    95    2
    69    59    58    2
    70   116   113    1
    71   116   117    1
    72    17    19   ar
    73    60    57    1
    74   113   114    1
    75    19    20    1
    76    86    89    1
    77    86    87    1
    78   133   132    1
    79    90    89    1
    80    89    91    1
    81    87    88    2
    82    40    39    1
    83    58    57    1
    84    58    67   am
    85    48    47    1
    86    48    42    1
    87    57    56    1
    88    47    46    1
    89    70    69    2
    90    36    35    1
    91    36    39    1
    92    36    37    1
    93   132   129    1
    94    68    67    1
    95    68    69    1
    96    68    71    1
    97    39    41    1
    98   114   115    2
    99    42    37   am
   100    42    43    1
   101    73    71    1
   102    37    38    2
   103    46    43    1
   104    71    72    1
   105   126   125   ar
   106    54    53    1
   107    43    44    1
   108   129   128    1
   109   129   130    1
   110    55    53    1
   111    52    51    2
   112   128   121   am
   113   104   105    1
   114    50    53    1
   115    50    51    1
   116    50    49    1
   117   123   124    1
   118   123   120    1
   119   130   131    2
   120   125   124    1
   121   125   127   ar
   122   119   120    1
   123   108   105    1
   124   108   109    1
   125   108   110    1
   126   111   109    1
   127   106   105    1
   128   106   107    2
   129    44    45    2
   130   121   120    1
   131   121   122    2
   132   146   144   ar
   133   146   147   ar
   134   144   142   ar
   135   147   145   ar
   136   142   141    1
   137   142   143   ar
   138   141   138    1
   139   145   143   ar
   140   138   139    1
   141   138   137    1
   142   139   140    2
