@<TRIPOS>MOLECULE
tmp/3qchA00.pdb
 169 163 0 0 0
SMALL
GASTEIGER

@<TRIPOS>ATOM
      1  N         20.1720   29.8490   51.1120 N.3   123  ILE123     -0.1245
      2  CA        19.7620   30.1350   52.4760 C.3   123  ILE123      0.1561
      3  C         20.4860   31.3690   52.9640 C.2   123  ILE123      0.2260
      4  O         21.0350   31.3960   54.0600 O.2   123  ILE123     -0.2867
      5  CB        20.0930   28.9730   53.4130 C.3   123  ILE123      0.0252
      6  CG1       19.6370   27.6540   52.7830 C.3   123  ILE123      0.0019
      7  CG2       19.4040   29.1860   54.7480 C.3   123  ILE123      0.0019
      8  CD1       19.9690   26.4380   53.5990 C.3   123  ILE123      0.0001
      9  N         22.4610   42.7360   56.9020 N.3   129  LYS129     -0.1245
     10  CA        22.9860   43.6520   57.9120 C.3   129  LYS129      0.1561
     11  C         24.0720   44.5540   57.3260 C.2   129  LYS129      0.2260
     12  O         24.9550   45.0170   58.0420 O.2   129  LYS129     -0.2867
     13  CB        23.5340   42.8650   59.1130 C.3   129  LYS129      0.0271
     14  CG        22.4450   42.1030   59.8830 C.3   129  LYS129      0.0035
     15  CD        23.0720   41.2790   61.0290 C.3   129  LYS129      0.0206
     16  CE        22.0450   40.2010   61.2700 C.3   129  LYS129      0.1093
     17  NZ        22.3690   39.2850   62.3740 N.3   129  LYS129     -0.1314
     18  N         15.4710   31.1310   50.6800 N.3   184  TYR184     -0.1241
     19  CA        14.9170   31.6250   51.9450 C.3   184  TYR184      0.1605
     20  C         15.4420   33.0250   52.1770 C.2   184  TYR184      0.2264
     21  O         16.6550   33.2370   52.2820 O.2   184  TYR184     -0.2867
     22  CB        15.3210   30.7520   53.1320 C.3   184  TYR184      0.0534
     23  CG        14.4180   30.9300   54.3450 C.ar  184  TYR184     -0.0201
     24  CD1       13.2430   30.1960   54.4710 C.ar  184  TYR184     -0.0009
     25  CD2       14.7290   31.8450   55.3510 C.ar  184  TYR184     -0.0009
     26  CE1       12.4020   30.3650   55.5530 C.ar  184  TYR184      0.0417
     27  CE2       13.8940   32.0230   56.4450 C.ar  184  TYR184      0.0417
     28  CZ        12.7300   31.2770   56.5380 C.ar  184  TYR184      0.1957
     29  OH        11.8920   31.4210   57.6220 O.3   184  TYR184     -0.2866
     30  N         15.2630   37.4370   56.7240 N.3   187  TRP187     -0.1241
     31  CA        16.3790   37.5330   57.6460 C.3   187  TRP187      0.1605
     32  C         16.3090   38.7640   58.5370 C.2   187  TRP187      0.2264
     33  O         16.0810   39.8790   58.0670 O.2   187  TRP187     -0.2867
     34  CB        17.6820   37.5060   56.8540 C.3   187  TRP187      0.0550
     35  CG        17.8550   36.1890   56.1800 C.ar  187  TRP187      0.0003
     36  CD1       17.6000   35.8870   54.8660 C.ar  187  TRP187      0.0946
     37  CD2       18.2340   34.9620   56.8090 C.ar  187  TRP187      0.0152
     38  NE1       17.7920   34.5420   54.6470 N.ar  187  TRP187     -0.2442
     39  CE2       18.1820   33.9530   55.8240 C.ar  187  TRP187      0.0810
     40  CE3       18.6130   34.6170   58.1120 C.ar  187  TRP187      0.0012
     41  CZ2       18.4940   32.6230   56.1050 C.ar  187  TRP187      0.0191
     42  CZ3       18.9230   33.2970   58.3880 C.ar  187  TRP187      0.0001
     43  CH2       18.8610   32.3180   57.3920 C.ar  187  TRP187      0.0015
     44  N         19.2670   36.7480   65.0480 N.3   192  VAL192     -0.1231
     45  CA        19.1330   35.5530   64.2070 C.3   192  VAL192      0.1678
     46  C         17.7400   34.9180   64.3850 C.2   192  VAL192      0.2434
     47  O         17.0090   35.2670   65.3140 O.2   192  VAL192     -0.2733
     48  CB        20.2190   34.5020   64.5640 C.3   192  VAL192      0.0265
     49  CG1       21.6120   35.1010   64.3790 C.3   192  VAL192      0.0020
     50  CG2       20.0300   34.0350   66.0020 C.3   192  VAL192      0.0020
     51  N         17.3620   33.9770   63.4950 N.am  193  PRO193     -0.2729
     52  CA        16.0260   33.3590   63.4890 C.3   193  PRO193      0.1401
     53  C         15.5950   32.7540   64.8250 C.2   193  PRO193      0.2269
     54  O         16.4360   32.4390   65.6710 O.2   193  PRO193     -0.2865
     55  CB        16.1190   32.3130   62.3790 C.3   193  PRO193      0.0296
     56  CG        17.1400   32.8760   61.4480 C.3   193  PRO193      0.0237
     57  CD        18.1630   33.5430   62.3370 C.3   193  PRO193      0.0939
     58  N         10.7960   27.8640   58.5240 N.3   199  VAL199     -0.1245
     59  CA        11.8960   27.0740   57.9890 C.3   199  VAL199      0.1561
     60  C         11.4640   25.6280   57.7350 C.2   199  VAL199      0.2260
     61  O         11.8180   25.0330   56.7140 O.2   199  VAL199     -0.2867
     62  CB        13.0850   27.0730   58.9510 C.3   199  VAL199      0.0252
     63  CG1       14.1300   26.0880   58.4770 C.3   199  VAL199      0.0019
     64  CG2       13.6640   28.4870   59.0550 C.3   199  VAL199      0.0019
     65  N          9.5490   25.6180   54.5590 N.3   202  PHE202     -0.1227
     66  CA        10.5240   25.7900   53.4900 C.3   202  PHE202      0.1736
     67  C         11.2420   24.4750   53.1750 C.2   202  PHE202      0.2595
     68  O         11.3440   24.0770   52.0180 O.2   202  PHE202     -0.2718
     69  CB        11.5580   26.8460   53.8860 C.3   202  PHE202      0.0547
     70  CG        12.6710   27.0180   52.8820 C.ar  202  PHE202     -0.0202
     71  CD1       12.4470   27.6630   51.6780 C.ar  202  PHE202     -0.0042
     72  CD2       13.9590   26.5770   53.1620 C.ar  202  PHE202     -0.0042
     73  CE1       13.4860   27.8660   50.7790 C.ar  202  PHE202     -0.0003
     74  CE2       14.9990   26.7810   52.2620 C.ar  202  PHE202     -0.0003
     75  CZ        14.7640   27.4250   51.0750 C.ar  202  PHE202     -0.0000
     76  N         11.7350   23.8060   54.2160 N.am  203  VAL203     -0.1980
     77  CA        12.4250   22.5230   54.0610 C.3   203  VAL203      0.1595
     78  C         11.5090   21.4490   53.4630 C.2   203  VAL203      0.2287
     79  O         11.8910   20.7630   52.5200 O.2   203  VAL203     -0.2864
     80  CB        12.9700   22.0080   55.4260 C.3   203  VAL203      0.0276
     81  CG1       13.5870   20.6260   55.2560 C.3   203  VAL203      0.0022
     82  CG2       13.9890   22.9770   55.9840 C.3   203  VAL203      0.0022
     83  N         27.2830   26.8170   57.7820 N.3   226  GLY226     -0.1210
     84  CA        26.3810   27.0210   58.8990 C.3   226  GLY226      0.1956
     85  C         24.9150   26.6990   58.6280 C.2   226  GLY226      0.2611
     86  O         24.3420   25.7860   59.2270 O.2   226  GLY226     -0.2717
     87  N         24.2940   27.4490   57.7300 N.am  227  ARG227     -0.1979
     88  CA        22.8790   27.2690   57.4810 C.3   227  ARG227      0.1597
     89  C         22.7100   26.1100   56.5310 C.2   227  ARG227      0.2287
     90  O         21.6870   25.4250   56.5320 O.2   227  ARG227     -0.2864
     91  CB        22.2810   28.5370   56.8750 C.3   227  ARG227      0.0334
     92  CG        22.3290   29.7330   57.8070 C.3   227  ARG227      0.0492
     93  CD        22.1710   31.0160   57.0330 C.3   227  ARG227      0.2205
     94  NE        22.3230   32.1820   57.8910 N.pl3 227  ARG227     -0.0865
     95  CZ        22.2440   33.4360   57.4580 C.cat 227  ARG227      0.5346
     96  NH1       22.3990   34.4400   58.3080 N.pl3 227  ARG227      0.1354
     97  NH2       22.0120   33.6820   56.1760 N.pl3 227  ARG227      0.1354
     98  N         22.4720   23.1430   58.6990 N.3   230  THR230     -0.1203
     99  CA        21.2080   23.1480   59.4310 C.3   230  THR230      0.1994
    100  C         20.0990   22.6020   58.5460 C.2   230  THR230      0.2617
    101  O         19.2660   21.8230   58.9920 O.2   230  THR230     -0.2717
    102  CB        20.8660   24.5910   59.8980 C.3   230  THR230      0.1784
    103  OG1       21.8970   25.0500   60.7840 O.3   230  THR230     -0.2211
    104  CG2       19.5310   24.6490   60.6180 C.3   230  THR230      0.0376
    105  N         20.1070   23.0030   57.2850 N.am  231  TYR231     -0.1975
    106  CA        19.1200   22.5250   56.3370 C.3   231  TYR231      0.1639
    107  C         19.2410   21.0100   56.2100 C.2   231  TYR231      0.2290
    108  O         18.2560   20.2700   56.3250 O.2   231  TYR231     -0.2864
    109  CB        19.3560   23.1700   54.9710 C.3   231  TYR231      0.0560
    110  CG        18.3780   22.7170   53.9080 C.ar  231  TYR231     -0.0198
    111  CD1       17.1060   23.2870   53.8070 C.ar  231  TYR231     -0.0009
    112  CD2       18.7040   21.6950   53.0230 C.ar  231  TYR231     -0.0009
    113  CE1       16.1910   22.8410   52.8560 C.ar  231  TYR231      0.0417
    114  CE2       17.7920   21.2490   52.0700 C.ar  231  TYR231      0.0417
    115  CZ        16.5420   21.8240   51.9970 C.ar  231  TYR231      0.1957
    116  OH        15.6390   21.3730   51.0660 O.3   231  TYR231     -0.2866
    117  N         18.1910   18.9080   59.2190 N.3   234  ILE234     -0.1245
    118  CA        16.7460   18.9230   59.4380 C.3   234  ILE234      0.1561
    119  C         16.0370   18.0790   58.3860 C.2   234  ILE234      0.2260
    120  O         15.1620   17.2740   58.6990 O.2   234  ILE234     -0.2867
    121  CB        16.1650   20.3630   59.3600 C.3   234  ILE234      0.0252
    122  CG1       16.7200   21.2150   60.4960 C.3   234  ILE234      0.0019
    123  CG2       14.6480   20.3210   59.3930 C.3   234  ILE234      0.0019
    124  CD1       16.3820   22.6730   60.3710 C.3   234  ILE234      0.0001
    125  N         27.4050   25.5400   62.3260 N.3   265  GLN265     -0.1231
    126  CA        28.5850   26.2420   62.8230 C.3   265  GLN265      0.1698
    127  C         28.4410   26.8170   64.2260 C.2   265  GLN265      0.2592
    128  O         29.4310   27.2070   64.8400 O.2   265  GLN265     -0.2718
    129  CB        28.9550   27.3670   61.8570 C.3   265  GLN265      0.0381
    130  CG        30.3920   27.8120   61.9490 C.3   265  GLN265      0.0905
    131  CD        30.7240   28.9090   60.9520 C.2   265  GLN265      0.2608
    132  OE1       31.7980   29.5110   61.0160 O.2   265  GLN265     -0.2717
    133  NE2       29.8030   29.1780   60.0290 N.am  265  GLN265     -0.0878
    134  N         27.2150   26.8900   64.7320 N.am  266  THR266     -0.1953
    135  CA        26.9970   27.4180   66.0670 C.3   266  THR266      0.1897
    136  C         25.9980   26.5780   66.8310 C.2   266  THR266      0.2313
    137  O         25.1470   25.8980   66.2610 O.2   266  THR266     -0.2863
    138  CB        26.4560   28.8750   66.0480 C.3   266  THR266      0.1794
    139  OG1       25.1700   28.8990   65.4100 O.3   266  THR266     -0.2208
    140  CG2       27.4290   29.8170   65.3240 C.3   266  THR266      0.0378
    141  N         23.5500   27.8180   68.4910 N.3   268  GLU268     -0.1231
    142  CA        22.2110   28.3610   68.2570 C.3   268  GLU268      0.1699
    143  C         21.5610   27.6470   67.0730 C.2   268  GLU268      0.2592
    144  O         20.3900   27.2910   67.1260 O.2   268  GLU268     -0.2718
    145  CB        22.2690   29.8750   67.9720 C.3   268  GLU268      0.0402
    146  CG        22.5670   30.7680   69.1840 C.3   268  GLU268      0.1161
    147  CD        23.9570   30.5350   69.8010 C.2   268  GLU268      0.3649
    148  OE1       24.9460   30.3140   69.0470 O.co2 268  GLU268     -0.2457
    149  OE2       24.0540   30.5750   71.0570 O.co2 268  GLU268     -0.2457
    150  N         22.3280   27.4490   66.0030 N.am  269  GLN269     -0.1979
    151  CA        21.8880   26.6230   64.8790 C.3   269  GLN269      0.1601
    152  C         21.6040   25.1770   65.3160 C.2   269  GLN269      0.2287
    153  O         20.6290   24.5580   64.8790 O.2   269  GLN269     -0.2864
    154  CB        22.9540   26.6350   63.7780 C.3   269  GLN269      0.0394
    155  CG        23.0780   27.9750   63.0510 C.3   269  GLN269      0.0908
    156  CD        24.3350   28.0850   62.1990 C.2   269  GLN269      0.2608
    157  OE1       25.2540   27.2660   62.3010 O.2   269  GLN269     -0.2717
    158  NE2       24.3770   29.0990   61.3490 N.am  269  GLN269     -0.0878
    159  N         18.3510   25.3340   66.8700 N.3   272  PHE272     -0.1241
    160  CA        17.3070   25.5780   65.8930 C.3   272  PHE272      0.1605
    161  C         16.8480   24.2810   65.2240 C.2   272  PHE272      0.2264
    162  O         15.6580   24.1090   64.9610 O.2   272  PHE272     -0.2867
    163  CB        17.7910   26.5670   64.8290 C.3   272  PHE272      0.0534
    164  CG        16.6860   27.1510   64.0100 C.ar  272  PHE272     -0.0203
    165  CD1       15.8620   28.1340   64.5380 C.ar  272  PHE272     -0.0042
    166  CD2       16.4570   26.7200   62.7140 C.ar  272  PHE272     -0.0042
    167  CE1       14.8170   28.6900   63.7800 C.ar  272  PHE272     -0.0003
    168  CE2       15.4210   27.2660   61.9520 C.ar  272  PHE272     -0.0003
    169  CZ        14.5970   28.2570   62.4880 C.ar  272  PHE272     -0.0000
@<TRIPOS>BOND
     1    18    19    1
     2    73    75   ar
     3    73    71   ar
     4   116   115    1
     5    75    74   ar
     6     1     2    1
     7    71    70   ar
     8    19    20    1
     9    19    22    1
    10   115   114   ar
    11   115   113   ar
    12    68    67    2
    13   114   112   ar
    14    20    21    2
    15    74    72   ar
    16     2     3    1
    17     2     5    1
    18    79    78    2
    19     6     5    1
    20     6     8    1
    21   113   111   ar
    22    70    72   ar
    23    70    69    1
    24     3     4    2
    25   112   110   ar
    26    22    23    1
    27    67    66    1
    28    67    76   am
    29     5     7    1
    30    78    77    1
    31    66    69    1
    32    66    65    1
    33   111   110   ar
    34   110   109    1
    35    77    76    1
    36    77    80    1
    37    23    24   ar
    38    23    25   ar
    39    24    26   ar
    40    38    36   ar
    41    38    39   ar
    42    36    35   ar
    43   109   106    1
    44    81    80    1
    45    25    27   ar
    46    80    82    1
    47    26    28   ar
    48    39    41   ar
    49    39    37   ar
    50    41    43   ar
    51    97    95    1
    52    35    37   ar
    53    35    34    1
    54   107   108    2
    55   107   106    1
    56   106   105    1
    57    27    28   ar
    58    89    90    2
    59    89    88    1
    60    28    29    1
    61    61    60    2
    62    30    31    1
    63    37    40   ar
    64    34    31    1
    65    91    88    1
    66    91    92    1
    67     9    10    1
    68    93    92    1
    69    93    94    1
    70   105   100   am
    71    11    10    1
    72    11    12    2
    73    43    42   ar
    74    95    94    2
    75    95    96    1
    76    88    87    1
    77    31    32    1
    78    87    85   am
    79    60    59    1
    80    83    84    1
    81    10    13    1
    82    59    58    1
    83    59    62    1
    84    33    32    2
    85    40    42   ar
    86   119   120    2
    87   119   118    1
    88    63    62    1
    89   100   101    2
    90   100    99    1
    91    85    84    1
    92    85    86    2
    93    98    99    1
    94    62    64    1
    95    13    14    1
    96   117   118    1
    97   121   123    1
    98   121   118    1
    99   121   122    1
   100    99   102    1
   101    14    15    1
   102   102   104    1
   103   102   103    1
   104   133   131   am
   105   124   122    1
   106   131   132    2
   107   131   130    1
   108    15    16    1
   109    16    17    1
   110   158   156   am
   111    56    57    1
   112    56    55    1
   113   129   130    1
   114   129   126    1
   115   168   169   ar
   116   168   166   ar
   117   156   157    2
   118   156   155    1
   119   125   126    1
   120    57    51    1
   121    55    52    1
   122   169   167   ar
   123   166   164   ar
   124   126   127    1
   125   155   154    1
   126    52    51    1
   127    52    53    1
   128    51    46   am
   129   154   151    1
   130   167   165   ar
   131   164   165   ar
   132   164   163    1
   133    45    46    1
   134    45    48    1
   135    45    44    1
   136   127   134   am
   137   127   128    2
   138    49    48    1
   139    46    47    2
   140    48    50    1
   141   134   135    1
   142    53    54    2
   143   163   160    1
   144   153   152    2
   145   151   152    1
   146   151   150    1
   147   162   161    2
   148   161   160    1
   149   140   138    1
   150   139   138    1
   151   160   159    1
   152   150   143   am
   153   138   135    1
   154   135   136    1
   155   137   136    2
   156   143   144    2
   157   143   142    1
   158   145   142    1
   159   145   146    1
   160   142   141    1
   161   148   147   ar
   162   146   147    1
   163   147   149   ar
