@<TRIPOS>MOLECULE
tmp/3qciA00.pdb
 180 172 0 0 0
SMALL
GASTEIGER

@<TRIPOS>ATOM
      1  N         19.9550   29.6530   51.3940 N.3   123  ILE123     -0.1245
      2  CA        19.6090   29.9820   52.7760 C.3   123  ILE123      0.1561
      3  C         20.3690   31.2140   53.2790 C.2   123  ILE123      0.2260
      4  O         20.9420   31.2280   54.3750 O.2   123  ILE123     -0.2867
      5  CB        19.8850   28.7950   53.7160 C.3   123  ILE123      0.0252
      6  CG1       19.3930   27.4970   53.0690 C.3   123  ILE123      0.0019
      7  CG2       19.1470   28.9930   55.0400 C.3   123  ILE123      0.0019
      8  CD1       19.7470   26.2390   53.8660 C.3   123  ILE123      0.0001
      9  N         22.2250   42.7410   57.0020 N.3   129  LYS129     -0.1245
     10  CA        22.7090   43.7320   57.9540 C.3   129  LYS129      0.1561
     11  C         23.8150   44.5570   57.3050 C.2   129  LYS129      0.2260
     12  O         24.8320   44.8530   57.9320 O.2   129  LYS129     -0.2867
     13  CB        23.2490   43.0420   59.2130 C.3   129  LYS129      0.0271
     14  CG        22.2610   42.1020   59.8850 C.3   129  LYS129      0.0035
     15  CD        22.8500   41.5160   61.1710 C.3   129  LYS129      0.0206
     16  CE        21.9490   40.4300   61.7630 C.3   129  LYS129      0.1093
     17  NZ        22.4270   39.9400   63.0920 N.3   129  LYS129     -0.1314
     18  N         15.2440   31.0200   50.9180 N.3   186  TYR186     -0.1241
     19  CA        14.7030   31.5360   52.1670 C.3   186  TYR186      0.1605
     20  C         15.1960   32.9500   52.3770 C.2   186  TYR186      0.2264
     21  O         16.3940   33.2110   52.3080 O.2   186  TYR186     -0.2867
     22  CB        15.1170   30.6690   53.3570 C.3   186  TYR186      0.0534
     23  CG        14.2290   30.8750   54.5560 C.ar  186  TYR186     -0.0201
     24  CD1       13.0390   30.1690   54.6860 C.ar  186  TYR186     -0.0009
     25  CD2       14.5780   31.7680   55.5640 C.ar  186  TYR186     -0.0009
     26  CE1       12.2210   30.3370   55.7820 C.ar  186  TYR186      0.0417
     27  CE2       13.7680   31.9450   56.6680 C.ar  186  TYR186      0.0417
     28  CZ        12.5870   31.2190   56.7680 C.ar  186  TYR186      0.1957
     29  OH        11.7760   31.3620   57.8670 O.3   186  TYR186     -0.2866
     30  N         14.9900   37.1550   57.1200 N.3   189  TRP189     -0.1241
     31  CA        16.1890   37.2590   57.9470 C.3   189  TRP189      0.1605
     32  C         16.1570   38.4590   58.8950 C.2   189  TRP189      0.2264
     33  O         15.7160   39.5450   58.5270 O.2   189  TRP189     -0.2867
     34  CB        17.4280   37.3120   57.0450 C.3   189  TRP189      0.0550
     35  CG        17.6330   36.0240   56.3100 C.ar  189  TRP189      0.0003
     36  CD1       17.4530   35.7930   54.9730 C.ar  189  TRP189      0.0946
     37  CD2       17.9700   34.7600   56.8940 C.ar  189  TRP189      0.0152
     38  NE1       17.6490   34.4560   54.6910 N.ar  189  TRP189     -0.2442
     39  CE2       17.9660   33.8030   55.8550 C.ar  189  TRP189      0.0810
     40  CE3       18.2710   34.3450   58.1960 C.ar  189  TRP189      0.0012
     41  CZ2       18.2520   32.4560   56.0820 C.ar  189  TRP189      0.0191
     42  CZ3       18.5540   33.0100   58.4200 C.ar  189  TRP189      0.0001
     43  CH2       18.5430   32.0800   57.3690 C.ar  189  TRP189      0.0015
     44  N         19.3050   36.6600   65.5580 N.3   194  VAL194     -0.1231
     45  CA        19.1930   35.4950   64.6810 C.3   194  VAL194      0.1678
     46  C         17.7770   34.9110   64.6640 C.2   194  VAL194      0.2434
     47  O         16.9520   35.2370   65.5250 O.2   194  VAL194     -0.2733
     48  CB        20.1790   34.3920   65.1190 C.3   194  VAL194      0.0265
     49  CG1       21.6010   34.9300   65.0820 C.3   194  VAL194      0.0020
     50  CG2       19.8260   33.9000   66.5230 C.3   194  VAL194      0.0020
     51  N         17.4810   34.0350   63.6780 N.am  195  PRO195     -0.2729
     52  CA        16.1790   33.3610   63.5810 C.3   195  PRO195      0.1401
     53  C         15.8380   32.6060   64.8540 C.2   195  PRO195      0.2269
     54  O         16.7270   32.1400   65.5630 O.2   195  PRO195     -0.2865
     55  CB        16.3400   32.4260   62.3810 C.3   195  PRO195      0.0296
     56  CG        17.3840   33.0830   61.5480 C.3   195  PRO195      0.0237
     57  CD        18.3490   33.6980   62.5350 C.3   195  PRO195      0.0939
     58  N         10.3110   27.7480   58.7660 N.3   201  VAL201     -0.1245
     59  CA        11.4560   27.0150   58.2460 C.3   201  VAL201      0.1561
     60  C         11.0800   25.5670   57.9720 C.2   201  VAL201      0.2260
     61  O         11.3890   25.0200   56.9110 O.2   201  VAL201     -0.2867
     62  CB        12.6170   27.0560   59.2490 C.3   201  VAL201      0.0252
     63  CG1       13.7510   26.1630   58.7780 C.3   201  VAL201      0.0019
     64  CG2       13.0970   28.4890   59.4170 C.3   201  VAL201      0.0019
     65  N          9.4170   25.5240   54.7720 N.3   204  PHE204     -0.1227
     66  CA        10.4100   25.6500   53.7240 C.3   204  PHE204      0.1736
     67  C         11.1080   24.3020   53.4700 C.2   204  PHE204      0.2595
     68  O         11.1660   23.8190   52.3340 O.2   204  PHE204     -0.2718
     69  CB        11.4390   26.7000   54.1230 C.3   204  PHE204      0.0547
     70  CG        12.5150   26.9060   53.1050 C.ar  204  PHE204     -0.0202
     71  CD1       12.2680   27.6440   51.9500 C.ar  204  PHE204     -0.0042
     72  CD2       13.7940   26.3940   53.3110 C.ar  204  PHE204     -0.0042
     73  CE1       13.2810   27.8720   51.0260 C.ar  204  PHE204     -0.0003
     74  CE2       14.8070   26.6190   52.3920 C.ar  204  PHE204     -0.0003
     75  CZ        14.5540   27.3590   51.2500 C.ar  204  PHE204     -0.0000
     76  N         11.6310   23.6990   54.5330 N.am  205  VAL205     -0.1980
     77  CA        12.3140   22.4160   54.4120 C.3   205  VAL205      0.1595
     78  C         11.4030   21.3670   53.7760 C.2   205  VAL205      0.2287
     79  O         11.8180   20.6490   52.8700 O.2   205  VAL205     -0.2864
     80  CB        12.8010   21.9080   55.7930 C.3   205  VAL205      0.0276
     81  CG1       13.3900   20.5070   55.6620 C.3   205  VAL205      0.0022
     82  CG2       13.8520   22.8590   56.3540 C.3   205  VAL205      0.0022
     83  N         24.4200   28.6140   51.7740 N.3   223  CYS223     -0.1235
     84  CA        24.1120   29.8930   52.3640 C.3   223  CYS223      0.1677
     85  C         25.2310   30.8380   51.9390 C.2   223  CYS223      0.2270
     86  O         25.4070   31.0980   50.7390 O.2   223  CYS223     -0.2867
     87  CB        24.0010   29.7610   53.8950 C.3   223  CYS223      0.0956
     88  SG        25.2630   28.7300   54.7010 S.3   223  CYS223     -0.0801
     89  N         28.8350   31.0430   53.7420 N.3   225  ALA225     -0.1245
     90  CA        29.9940   30.1670   53.8520 C.3   225  ALA225      0.1562
     91  C         29.6600   28.7470   53.4070 C.2   225  ALA225      0.2260
     92  O         30.5430   27.9930   52.9960 O.2   225  ALA225     -0.2867
     93  CB        30.5030   30.1520   55.2830 C.3   225  ALA225      0.0290
     94  N         27.0410   26.7880   58.1130 N.3   228  GLY228     -0.1210
     95  CA        26.1400   26.9440   59.2500 C.3   228  GLY228      0.1956
     96  C         24.6740   26.6540   58.9660 C.2   228  GLY228      0.2611
     97  O         24.1190   25.6480   59.4150 O.2   228  GLY228     -0.2717
     98  N         24.0430   27.5330   58.2030 N.am  229  ARG229     -0.1979
     99  CA        22.6340   27.3730   57.8550 C.3   229  ARG229      0.1597
    100  C         22.4630   26.1610   56.9480 C.2   229  ARG229      0.2287
    101  O         21.4430   25.4720   56.9840 O.2   229  ARG229     -0.2864
    102  CB        22.1190   28.6460   57.1530 C.3   229  ARG229      0.0334
    103  CG        21.3360   29.5900   58.0650 C.3   229  ARG229      0.0492
    104  CD        22.0340   30.9260   58.2980 C.3   229  ARG229      0.2205
    105  NE        21.7280   31.8740   57.2360 N.pl3 229  ARG229     -0.0865
    106  CZ        21.7580   33.2020   57.3530 C.cat 229  ARG229      0.5346
    107  NH1       22.0740   33.7890   58.4990 N.pl3 229  ARG229      0.1354
    108  NH2       21.4990   33.9480   56.2930 N.pl3 229  ARG229      0.1354
    109  N         22.3550   23.0800   59.0950 N.3   232  THR232     -0.1203
    110  CA        21.0830   23.0910   59.8040 C.3   232  THR232      0.1994
    111  C         19.9960   22.5090   58.9240 C.2   232  THR232      0.2617
    112  O         19.2050   21.6850   59.3630 O.2   232  THR232     -0.2717
    113  CB        20.6950   24.5410   60.2090 C.3   232  THR232      0.1784
    114  OG1       21.6990   25.0650   61.0860 O.3   232  THR232     -0.2211
    115  CG2       19.3570   24.5670   60.9270 C.3   232  THR232      0.0376
    116  N         19.9740   22.9480   57.6720 N.am  233  TYR233     -0.1975
    117  CA        19.0140   22.4550   56.6990 C.3   233  TYR233      0.1639
    118  C         19.1560   20.9400   56.5000 C.2   233  TYR233      0.2290
    119  O         18.1770   20.1980   56.5630 O.2   233  TYR233     -0.2864
    120  CB        19.2120   23.1650   55.3530 C.3   233  TYR233      0.0560
    121  CG        18.2560   22.6820   54.2920 C.ar  233  TYR233     -0.0198
    122  CD1       16.9700   23.2200   54.1850 C.ar  233  TYR233     -0.0009
    123  CD2       18.6090   21.6510   53.4270 C.ar  233  TYR233     -0.0009
    124  CE1       16.0590   22.7380   53.2480 C.ar  233  TYR233      0.0417
    125  CE2       17.7130   21.1610   52.4900 C.ar  233  TYR233      0.0417
    126  CZ        16.4370   21.7040   52.4060 C.ar  233  TYR233      0.1957
    127  OH        15.5270   21.1850   51.5090 O.3   233  TYR233     -0.2866
    128  N         17.9370   18.9480   59.5300 N.3   236  ILE236     -0.1245
    129  CA        16.4980   18.9740   59.7440 C.3   236  ILE236      0.1561
    130  C         15.8290   18.1140   58.6870 C.2   236  ILE236      0.2260
    131  O         14.9280   17.3260   58.9760 O.2   236  ILE236     -0.2867
    132  CB        15.9210   20.4050   59.6510 C.3   236  ILE236      0.0252
    133  CG1       16.3860   21.2340   60.8500 C.3   236  ILE236      0.0019
    134  CG2       14.3940   20.3510   59.6090 C.3   236  ILE236      0.0019
    135  CD1       16.1660   22.7160   60.6770 C.3   236  ILE236      0.0001
    136  N         26.9880   25.4870   62.5980 N.3   267  GLN267     -0.1231
    137  CA        28.1660   26.2290   63.0280 C.3   267  GLN267      0.1698
    138  C         28.0830   26.7360   64.4660 C.2   267  GLN267      0.2592
    139  O         29.1010   26.9740   65.1030 O.2   267  GLN267     -0.2718
    140  CB        28.3800   27.4010   62.0650 C.3   267  GLN267      0.0381
    141  CG        29.6920   28.1310   62.2040 C.3   267  GLN267      0.0905
    142  CD        29.9850   29.0160   60.9970 C.2   267  GLN267      0.2608
    143  OE1       31.1120   29.4830   60.8170 O.2   267  GLN267     -0.2717
    144  NE2       28.9680   29.2480   60.1640 N.am  267  GLN267     -0.0878
    145  N         26.8700   26.9230   64.9770 N.am  268  THR268     -0.1953
    146  CA        26.7220   27.4700   66.3150 C.3   268  THR268      0.1897
    147  C         25.7670   26.6430   67.1470 C.2   268  THR268      0.2313
    148  O         24.9440   25.9000   66.6210 O.2   268  THR268     -0.2863
    149  CB        26.1890   28.9280   66.2980 C.3   268  THR268      0.1794
    150  OG1       24.8310   28.9380   65.8390 O.3   268  THR268     -0.2208
    151  CG2       27.0500   29.8120   65.4000 C.3   268  THR268      0.0378
    152  N         23.3030   27.8950   68.7310 N.3   270  GLU270     -0.1231
    153  CA        21.9710   28.4150   68.4420 C.3   270  GLU270      0.1699
    154  C         21.3180   27.6850   67.2680 C.2   270  GLU270      0.2592
    155  O         20.1240   27.3830   67.3030 O.2   270  GLU270     -0.2718
    156  CB        22.0400   29.9130   68.1250 C.3   270  GLU270      0.0402
    157  CG        22.6020   30.7720   69.2510 C.3   270  GLU270      0.1161
    158  CD        24.0460   30.4080   69.6340 C.2   270  GLU270      0.3649
    159  OE1       24.8360   29.9790   68.7590 O.co2 270  GLU270     -0.2457
    160  OE2       24.3900   30.5500   70.8280 O.co2 270  GLU270     -0.2457
    161  N         22.1000   27.4130   66.2240 N.am  271  GLN271     -0.1979
    162  CA        21.6050   26.6470   65.0880 C.3   271  GLN271      0.1601
    163  C         21.3210   25.2120   65.5290 C.2   271  GLN271      0.2287
    164  O         20.3260   24.6060   65.1200 O.2   271  GLN271     -0.2864
    165  CB        22.6320   26.6640   63.9500 C.3   271  GLN271      0.0394
    166  CG        22.7450   28.0120   63.2420 C.3   271  GLN271      0.0908
    167  CD        24.0470   28.1800   62.4530 C.2   271  GLN271      0.2608
    168  OE1       25.0010   27.4270   62.6310 O.2   271  GLN271     -0.2717
    169  NE2       24.0800   29.1780   61.5740 N.am  271  GLN271     -0.0878
    170  N         18.2200   25.2120   67.2480 N.3   274  PHE274     -0.1241
    171  CA        17.1500   25.4490   66.2850 C.3   274  PHE274      0.1605
    172  C         16.6710   24.1560   65.6010 C.2   274  PHE274      0.2264
    173  O         15.4690   23.9520   65.3990 O.2   274  PHE274     -0.2867
    174  CB        17.6280   26.4490   65.2340 C.3   274  PHE274      0.0534
    175  CG        16.5330   26.9680   64.3590 C.ar  274  PHE274     -0.0203
    176  CD1       15.7520   28.0360   64.7710 C.ar  274  PHE274     -0.0042
    177  CD2       16.2860   26.3940   63.1210 C.ar  274  PHE274     -0.0042
    178  CE1       14.7330   28.5330   63.9580 C.ar  274  PHE274     -0.0003
    179  CE2       15.2740   26.8790   62.3020 C.ar  274  PHE274     -0.0003
    180  CZ        14.4920   27.9550   62.7220 C.ar  274  PHE274     -0.0000
@<TRIPOS>BOND
     1    86    85    2
     2    18    19    1
     3    73    75   ar
     4    73    71   ar
     5    75    74   ar
     6     1     2    1
     7   127   126    1
     8    83    84    1
     9    85    84    1
    10    71    70   ar
    11    19    20    1
    12    19    22    1
    13    21    20    2
    14    68    67    2
    15    84    87    1
    16    74    72   ar
    17   126   125   ar
    18   126   124   ar
    19   125   123   ar
    20     2     3    1
    21     2     5    1
    22    79    78    2
    23    92    91    2
    24     6     5    1
    25     6     8    1
    26    70    72   ar
    27    70    69    1
    28   124   122   ar
    29     3     4    2
    30    22    23    1
    31    91    90    1
    32   123   121   ar
    33    67    66    1
    34    67    76   am
    35     5     7    1
    36    66    69    1
    37    66    65    1
    38    89    90    1
    39    78    77    1
    40    90    93    1
    41    87    88    1
    42   122   121   ar
    43   121   120    1
    44    77    76    1
    45    77    80    1
    46    23    24   ar
    47    23    25   ar
    48    24    26   ar
    49    38    36   ar
    50    38    39   ar
    51    36    35   ar
    52   120   117    1
    53    25    27   ar
    54    81    80    1
    55    26    28   ar
    56    80    82    1
    57    39    41   ar
    58    39    37   ar
    59    41    43   ar
    60   108   106    1
    61    35    37   ar
    62    35    34    1
    63   118   119    2
    64   118   117    1
    65    27    28   ar
    66   117   116    1
    67    28    29    1
    68    37    40   ar
    69    61    60    2
    70   100   101    2
    71   100    99    1
    72     9    10    1
    73    34    31    1
    74    30    31    1
    75   102    99    1
    76   102   103    1
    77   105   106    2
    78   105   104    1
    79    11    12    2
    80    11    10    1
    81   106   107    1
    82    43    42   ar
    83   116   111   am
    84    99    98    1
    85    31    32    1
    86    10    13    1
    87    60    59    1
    88   103   104    1
    89    94    95    1
    90    40    42   ar
    91    98    96   am
    92    59    58    1
    93    59    62    1
    94    33    32    2
    95   130   131    2
    96   130   129    1
    97    63    62    1
    98   111   112    2
    99   111   110    1
   100    96    95    1
   101    96    97    2
   102   109   110    1
   103    13    14    1
   104    62    64    1
   105   128   129    1
   106   134   132    1
   107   132   129    1
   108   132   133    1
   109   110   113    1
   110    14    15    1
   111   144   142   am
   112   113   115    1
   113   113   114    1
   114   135   133    1
   115   143   142    2
   116   142   141    1
   117    15    16    1
   118    56    55    1
   119    56    57    1
   120   169   167   am
   121    16    17    1
   122   140   141    1
   123   140   137    1
   124   179   180   ar
   125   179   177   ar
   126    55    52    1
   127   167   168    2
   128   167   166    1
   129    57    51    1
   130   136   137    1
   131   180   178   ar
   132   137   138    1
   133   177   175   ar
   134   166   165    1
   135    52    51    1
   136    52    53    1
   137    51    46   am
   138   165   162    1
   139   178   176   ar
   140   175   176   ar
   141   175   174    1
   142   138   145   am
   143   138   139    2
   144    46    45    1
   145    46    47    2
   146    45    48    1
   147    45    44    1
   148    53    54    2
   149   145   146    1
   150    49    48    1
   151   162   163    1
   152   162   161    1
   153    48    50    1
   154   164   163    2
   155   174   171    1
   156   173   172    2
   157   151   149    1
   158   172   171    1
   159   150   149    1
   160   161   154   am
   161   171   170    1
   162   149   146    1
   163   146   147    1
   164   148   147    2
   165   154   155    2
   166   154   153    1
   167   156   153    1
   168   156   157    1
   169   153   152    1
   170   159   158   ar
   171   157   158    1
   172   158   160   ar
