@<TRIPOS>MOLECULE
tmp/3qcjA00.pdb
 193 186 0 0 0
SMALL
GASTEIGER

@<TRIPOS>ATOM
      1  N         20.3660   29.4880   50.8980 N.3   124  ILE124     -0.1245
      2  CA        19.9640   29.7850   52.2700 C.3   124  ILE124      0.1561
      3  C         20.6980   31.0080   52.8050 C.2   124  ILE124      0.2260
      4  O         21.3310   30.9600   53.8610 O.2   124  ILE124     -0.2867
      5  CB        20.2370   28.5880   53.1970 C.3   124  ILE124      0.0252
      6  CG1       19.6440   27.3200   52.5800 C.3   124  ILE124      0.0019
      7  CG2       19.6050   28.8290   54.5790 C.3   124  ILE124      0.0019
      8  CD1       19.9070   26.0650   53.3930 C.3   124  ILE124      0.0001
      9  N         22.6490   42.4720   56.6370 N.3   130  LYS130     -0.1245
     10  CA        23.1380   43.4630   57.5860 C.3   130  LYS130      0.1561
     11  C         24.2780   44.2720   56.9650 C.2   130  LYS130      0.2260
     12  O         25.3250   44.4690   57.5830 O.2   130  LYS130     -0.2867
     13  CB        23.6090   42.7650   58.8650 C.3   130  LYS130      0.0271
     14  CG        22.5320   41.9190   59.5290 C.3   130  LYS130      0.0035
     15  CD        23.0710   41.1700   60.7440 C.3   130  LYS130      0.0206
     16  CE        21.9970   40.2950   61.3800 C.3   130  LYS130      0.1093
     17  NZ        22.4440   39.7020   62.6720 N.3   130  LYS130     -0.1314
     18  N         15.6560   30.8950   50.4010 N.3   185  TYR185     -0.1241
     19  CA        15.0550   31.3760   51.6410 C.3   185  TYR185      0.1605
     20  C         15.5170   32.8040   51.8760 C.2   185  TYR185      0.2264
     21  O         16.7180   33.0790   51.9050 O.2   185  TYR185     -0.2867
     22  CB        15.4600   30.5130   52.8300 C.3   185  TYR185      0.0534
     23  CG        14.5560   30.7010   54.0210 C.ar  185  TYR185     -0.0201
     24  CD1       13.3810   29.9740   54.1410 C.ar  185  TYR185     -0.0009
     25  CD2       14.8680   31.6140   55.0190 C.ar  185  TYR185     -0.0009
     26  CE1       12.5370   30.1480   55.2220 C.ar  185  TYR185      0.0417
     27  CE2       14.0330   31.7980   56.1070 C.ar  185  TYR185      0.0417
     28  CZ        12.8690   31.0590   56.2000 C.ar  185  TYR185      0.1957
     29  OH        12.0380   31.2170   57.2830 O.3   185  TYR185     -0.2866
     30  N         15.6150   37.0510   56.5160 N.3   188  TRP188     -0.1241
     31  CA        16.7470   37.1480   57.4300 C.3   188  TRP188      0.1605
     32  C         16.7100   38.4400   58.2530 C.2   188  TRP188      0.2264
     33  O         16.6540   39.5400   57.7070 O.2   188  TRP188     -0.2867
     34  CB        18.0470   37.0500   56.6310 C.3   188  TRP188      0.0550
     35  CG        18.1390   35.7460   55.8830 C.ar  188  TRP188      0.0003
     36  CD1       17.8360   35.5270   54.5680 C.ar  188  TRP188      0.0946
     37  CD2       18.4770   34.4700   56.4330 C.ar  188  TRP188      0.0152
     38  NE1       17.9560   34.1940   54.2700 N.ar  188  TRP188     -0.2442
     39  CE2       18.3480   33.5200   55.3970 C.ar  188  TRP188      0.0810
     40  CE3       18.8730   34.0350   57.7030 C.ar  188  TRP188      0.0012
     41  CZ2       18.5980   32.1600   55.5920 C.ar  188  TRP188      0.0191
     42  CZ3       19.1210   32.6800   57.8960 C.ar  188  TRP188      0.0001
     43  CH2       18.9820   31.7620   56.8460 C.ar  188  TRP188      0.0015
     44  N         19.3340   36.6230   65.0410 N.3   193  VAL193     -0.1231
     45  CA        19.2790   35.4390   64.1940 C.3   193  VAL193      0.1678
     46  C         17.8620   34.8740   64.1290 C.2   193  VAL193      0.2434
     47  O         17.0120   35.2030   64.9580 O.2   193  VAL193     -0.2733
     48  CB        20.2240   34.3480   64.7290 C.3   193  VAL193      0.0265
     49  CG1       21.6440   34.8800   64.7900 C.3   193  VAL193      0.0020
     50  CG2       19.7650   33.8950   66.1070 C.3   193  VAL193      0.0020
     51  N         17.5920   34.0080   63.1400 N.am  194  PRO194     -0.2729
     52  CA        16.2550   33.4140   63.0240 C.3   194  PRO194      0.1401
     53  C         15.8900   32.6690   64.3040 C.2   194  PRO194      0.2269
     54  O         16.7690   32.1730   65.0120 O.2   194  PRO194     -0.2865
     55  CB        16.3790   32.4740   61.8260 C.3   194  PRO194      0.0296
     56  CG        17.5340   33.0180   61.0360 C.3   194  PRO194      0.0237
     57  CD        18.4910   33.5640   62.0600 C.3   194  PRO194      0.0939
     58  N         10.6470   27.5660   58.1950 N.3   200  VAL200     -0.1245
     59  CA        11.7930   26.8350   57.6700 C.3   200  VAL200      0.1561
     60  C         11.4140   25.3880   57.3770 C.2   200  VAL200      0.2260
     61  O         11.7880   24.8370   56.3390 O.2   200  VAL200     -0.2867
     62  CB        12.9650   26.8560   58.6640 C.3   200  VAL200      0.0252
     63  CG1       14.0620   25.9100   58.1990 C.3   200  VAL200      0.0019
     64  CG2       13.5050   28.2690   58.7860 C.3   200  VAL200      0.0019
     65  N          9.6740   25.3250   54.1860 N.3   203  PHE203     -0.1227
     66  CA        10.6590   25.4930   53.1270 C.3   203  PHE203      0.1736
     67  C         11.4280   24.1940   52.8640 C.2   203  PHE203      0.2595
     68  O         11.6890   23.8450   51.7150 O.2   203  PHE203     -0.2718
     69  CB        11.6440   26.5910   53.4980 C.3   203  PHE203      0.0547
     70  CG        12.7230   26.8080   52.4740 C.ar  203  PHE203     -0.0202
     71  CD1       12.4830   27.5800   51.3460 C.ar  203  PHE203     -0.0042
     72  CD2       13.9930   26.2890   52.6650 C.ar  203  PHE203     -0.0042
     73  CE1       13.4910   27.8350   50.4360 C.ar  203  PHE203     -0.0003
     74  CE2       15.0050   26.5400   51.7580 C.ar  203  PHE203     -0.0003
     75  CZ        14.7560   27.3170   50.6410 C.ar  203  PHE203     -0.0000
     76  N         11.7880   23.4810   53.9260 N.am  204  VAL204     -0.1980
     77  CA        12.5230   22.2300   53.7660 C.3   204  VAL204      0.1595
     78  C         11.6570   21.1790   53.0730 C.2   204  VAL204      0.2287
     79  O         12.1080   20.5370   52.1330 O.2   204  VAL204     -0.2864
     80  CB        13.0130   21.6740   55.1270 C.3   204  VAL204      0.0276
     81  CG1       13.6690   20.3080   54.9250 C.3   204  VAL204      0.0022
     82  CG2       14.0180   22.6500   55.7630 C.3   204  VAL204      0.0022
     83  N         24.8380   28.3920   51.3530 N.3   222  CYS222     -0.1221
     84  CA        24.5220   29.6550   51.9740 C.3   222  CYS222      0.1808
     85  C         25.6200   30.6320   51.5730 C.2   222  CYS222      0.2602
     86  O         25.7960   30.9140   50.3850 O.2   222  CYS222     -0.2717
     87  CB        24.4350   29.4840   53.4900 C.3   222  CYS222      0.0970
     88  SG        25.7470   28.5000   54.2180 S.3   222  CYS222     -0.0800
     89  N         26.3710   31.1440   52.5390 N.am  223  SER223     -0.1938
     90  CA        27.4910   32.0110   52.2020 C.3   223  SER223      0.2055
     91  C         28.7890   31.2050   52.1710 C.2   223  SER223      0.2642
     92  O         29.4030   31.0450   51.1120 O.2   223  SER223     -0.2714
     93  CB        27.5960   33.1580   53.2140 C.3   223  SER223      0.2130
     94  OG        28.6950   33.9990   52.9150 O.3   223  SER223     -0.2179
     95  N         29.1970   30.6970   53.3310 N.am  224  ALA224     -0.1977
     96  CA        30.3630   29.8190   53.4210 C.3   224  ALA224      0.1597
     97  C         29.9970   28.4040   52.9790 C.2   224  ALA224      0.2287
     98  O         30.8630   27.6130   52.6040 O.2   224  ALA224     -0.2864
     99  CB        30.8970   29.7950   54.8530 C.3   224  ALA224      0.0319
    100  N         28.5130   26.0880   54.9600 N.3   226  VAL226     -0.1231
    101  CA        28.6840   25.1220   56.0480 C.3   226  VAL226      0.1692
    102  C         27.6300   25.1990   57.1600 C.2   226  VAL226      0.2593
    103  O         27.0770   24.1720   57.5670 O.2   226  VAL226     -0.2718
    104  CB        30.0990   25.2400   56.6880 C.3   226  VAL226      0.0266
    105  CG1       31.1710   24.8580   55.6600 C.3   226  VAL226      0.0020
    106  CG2       30.3360   26.6570   57.1840 C.3   226  VAL226      0.0020
    107  N         27.3440   26.4030   57.6510 N.am  227  GLY227     -0.1942
    108  CA        26.4670   26.5330   58.8040 C.3   227  GLY227      0.2014
    109  C         25.0000   26.2920   58.4930 C.2   227  GLY227      0.2638
    110  O         24.4330   25.2690   58.8960 O.2   227  GLY227     -0.2714
    111  N         24.3880   27.2260   57.7690 N.am  228  ARG228     -0.1977
    112  CA        22.9950   27.0990   57.3550 C.3   228  ARG228      0.1597
    113  C         22.8150   25.9160   56.4160 C.2   228  ARG228      0.2287
    114  O         21.7910   25.2330   56.4440 O.2   228  ARG228     -0.2864
    115  CB        22.5290   28.3810   56.6530 C.3   228  ARG228      0.0334
    116  CG        22.4950   29.6010   57.5650 C.3   228  ARG228      0.0492
    117  CD        22.3160   30.8910   56.7770 C.3   228  ARG228      0.2205
    118  NE        22.3560   32.0640   57.6490 N.pl3 228  ARG228     -0.0865
    119  CZ        22.2270   33.3180   57.2220 C.cat 228  ARG228      0.5346
    120  NH1       22.0420   33.5730   55.9290 N.pl3 228  ARG228      0.1354
    121  NH2       22.3080   34.3190   58.0870 N.pl3 228  ARG228      0.1354
    122  N         22.6560   22.8180   58.4580 N.3   231  THR231     -0.1203
    123  CA        21.3980   22.8240   59.1970 C.3   231  THR231      0.1994
    124  C         20.2760   22.2800   58.3150 C.2   231  THR231      0.2617
    125  O         19.4600   21.4710   58.7610 O.2   231  THR231     -0.2717
    126  CB        21.0200   24.2610   59.6590 C.3   231  THR231      0.1784
    127  OG1       22.0480   24.7860   60.5110 O.3   231  THR231     -0.2211
    128  CG2       19.7360   24.2450   60.4130 C.3   231  THR231      0.0376
    129  N         20.2440   22.7240   57.0630 N.am  232  TYR232     -0.1975
    130  CA        19.2660   22.2290   56.1020 C.3   232  TYR232      0.1639
    131  C         19.4400   20.7130   55.9070 C.2   232  TYR232      0.2290
    132  O         18.4770   19.9410   55.9500 O.2   232  TYR232     -0.2864
    133  CB        19.4470   22.9410   54.7500 C.3   232  TYR232      0.0560
    134  CG        18.4740   22.4640   53.6860 C.ar  232  TYR232     -0.0198
    135  CD1       17.2130   23.0430   53.5570 C.ar  232  TYR232     -0.0009
    136  CD2       18.8000   21.4070   52.8340 C.ar  232  TYR232     -0.0009
    137  CE1       16.2930   22.5820   52.6110 C.ar  232  TYR232      0.0417
    138  CE2       17.8890   20.9390   51.8840 C.ar  232  TYR232      0.0417
    139  CZ        16.6350   21.5300   51.7820 C.ar  232  TYR232      0.1957
    140  OH        15.7180   21.0540   50.8700 O.3   232  TYR232     -0.2866
    141  N         18.2270   18.6970   58.9600 N.3   235  ILE235     -0.1245
    142  CA        16.7760   18.7350   59.1160 C.3   235  ILE235      0.1561
    143  C         16.1100   17.8750   58.0500 C.2   235  ILE235      0.2260
    144  O         15.2130   17.0900   58.3380 O.2   235  ILE235     -0.2867
    145  CB        16.2090   20.1680   58.9930 C.3   235  ILE235      0.0252
    146  CG1       16.6590   21.0220   60.1800 C.3   235  ILE235      0.0019
    147  CG2       14.6890   20.1160   58.9310 C.3   235  ILE235      0.0019
    148  CD1       16.3970   22.5050   59.9940 C.3   235  ILE235      0.0001
    149  N         27.1890   25.2920   62.1280 N.3   266  GLN266     -0.1231
    150  CA        28.3440   26.0170   62.6340 C.3   266  GLN266      0.1698
    151  C         28.2160   26.5500   64.0600 C.2   266  GLN266      0.2592
    152  O         29.2210   26.7960   64.7190 O.2   266  GLN266     -0.2718
    153  CB        28.6750   27.1670   61.6850 C.3   266  GLN266      0.0381
    154  CG        29.9390   27.8890   62.0460 C.3   266  GLN266      0.0905
    155  CD        30.9170   27.9690   60.8960 C.2   266  GLN266      0.2608
    156  OE1       32.0400   27.4770   60.9940 O.2   266  GLN266     -0.2717
    157  NE2       30.5000   28.5970   59.8000 N.am  266  GLN266     -0.0878
    158  N         26.9860   26.7420   64.5330 N.am  267  THR267     -0.1953
    159  CA        26.7790   27.2980   65.8640 C.3   267  THR267      0.1897
    160  C         25.8010   26.4760   66.6750 C.2   267  THR267      0.2313
    161  O         24.9540   25.7670   66.1300 O.2   267  THR267     -0.2863
    162  CB        26.2160   28.7350   65.8100 C.3   267  THR267      0.1794
    163  OG1       24.8810   28.6990   65.2770 O.3   267  THR267     -0.2208
    164  CG2       27.1040   29.6250   64.9440 C.3   267  THR267      0.0378
    165  N         23.3580   27.6070   68.2070 N.3   269  GLU269     -0.1231
    166  CA        22.0180   28.1160   67.9120 C.3   269  GLU269      0.1699
    167  C         21.3940   27.3980   66.7150 C.2   269  GLU269      0.2592
    168  O         20.2070   27.0630   66.7300 O.2   269  GLU269     -0.2718
    169  CB        22.0680   29.6270   67.6370 C.3   269  GLU269      0.0402
    170  CG        22.4030   30.4810   68.8600 C.3   269  GLU269      0.1161
    171  CD        23.8760   30.3810   69.2700 C.2   269  GLU269      0.3649
    172  OE1       24.7530   30.3400   68.3770 O.co2 269  GLU269     -0.2457
    173  OE2       24.1580   30.3400   70.4890 O.co2 269  GLU269     -0.2457
    174  N         22.1930   27.1680   65.6770 N.am  270  GLN270     -0.1979
    175  CA        21.7510   26.3710   64.5350 C.3   270  GLN270      0.1601
    176  C         21.4620   24.9340   64.9500 C.2   270  GLN270      0.2287
    177  O         20.4770   24.3280   64.5050 O.2   270  GLN270     -0.2864
    178  CB        22.8140   26.3860   63.4410 C.3   270  GLN270      0.0394
    179  CG        23.0020   27.7590   62.8150 C.3   270  GLN270      0.0908
    180  CD        24.1940   27.8180   61.8840 C.2   270  GLN270      0.2608
    181  OE1       25.1000   26.9900   61.9650 O.2   270  GLN270     -0.2717
    182  NE2       24.2000   28.8010   60.9940 N.am  270  GLN270     -0.0878
    183  N         18.2330   24.9650   66.6190 N.3   273  PHE273     -0.1241
    184  CA        17.2080   25.2230   65.6150 C.3   273  PHE273      0.1605
    185  C         16.7870   23.9390   64.9050 C.2   273  PHE273      0.2264
    186  O         15.6050   23.7360   64.6240 O.2   273  PHE273     -0.2867
    187  CB        17.7260   26.2370   64.5920 C.3   273  PHE273      0.0534
    188  CG        16.6590   26.7820   63.6850 C.ar  273  PHE273     -0.0203
    189  CD1       15.9170   27.8920   64.0560 C.ar  273  PHE273     -0.0042
    190  CD2       16.3890   26.1810   62.4700 C.ar  273  PHE273     -0.0042
    191  CE1       14.9200   28.3930   63.2240 C.ar  273  PHE273     -0.0003
    192  CE2       15.3950   26.6760   61.6380 C.ar  273  PHE273     -0.0003
    193  CZ        14.6610   27.7830   62.0150 C.ar  273  PHE273     -0.0000
@<TRIPOS>BOND
     1    86    85    2
     2    18    19    1
     3    73    75   ar
     4    73    71   ar
     5    75    74   ar
     6   140   139    1
     7     1     2    1
     8    92    91    2
     9    71    70   ar
    10    83    84    1
    11    85    84    1
    12    85    89   am
    13    19    20    1
    14    19    22    1
    15    68    67    2
    16    74    72   ar
    17   139   138   ar
    18   139   137   ar
    19    20    21    2
    20   138   136   ar
    21    84    87    1
    22    79    78    2
    23    91    90    1
    24    91    95   am
    25    90    89    1
    26    90    93    1
    27     2     3    1
    28     2     5    1
    29    70    72   ar
    30    70    69    1
    31     6     5    1
    32     6     8    1
    33    98    97    2
    34   137   135   ar
    35     3     4    2
    36    22    23    1
    37   136   134   ar
    38    67    66    1
    39    67    76   am
    40    94    93    1
    41    97    96    1
    42    78    77    1
    43    66    69    1
    44    66    65    1
    45     5     7    1
    46    95    96    1
    47    96    99    1
    48    87    88    1
    49   135   134   ar
    50   134   133    1
    51    77    76    1
    52    77    80    1
    53    23    24   ar
    54    23    25   ar
    55    24    26   ar
    56    38    36   ar
    57    38    39   ar
    58    36    35   ar
    59   133   130    1
    60    81    80    1
    61   100   101    1
    62    25    27   ar
    63    80    82    1
    64    26    28   ar
    65    39    41   ar
    66    39    37   ar
    67    41    43   ar
    68   105   104    1
    69    35    37   ar
    70    35    34    1
    71   131   132    2
    72   131   130    1
    73   120   119    1
    74   101   104    1
    75   101   102    1
    76   130   129    1
    77    27    28   ar
    78    28    29    1
    79    61    60    2
    80   113   114    2
    81   113   112    1
    82    37    40   ar
    83    30    31    1
    84    34    31    1
    85     9    10    1
    86   115   112    1
    87   115   116    1
    88   104   106    1
    89   117   116    1
    90   117   118    1
    91    43    42   ar
    92    11    12    2
    93    11    10    1
    94   129   124   am
    95   102   103    2
    96   102   107   am
    97   119   118    2
    98   119   121    1
    99   112   111    1
   100    60    59    1
   101    31    32    1
   102    10    13    1
   103   107   108    1
   104    59    58    1
   105    59    62    1
   106    40    42   ar
   107    33    32    2
   108   111   109   am
   109   143   144    2
   110   143   142    1
   111    63    62    1
   112   124   125    2
   113   124   123    1
   114   122   123    1
   115   109   108    1
   116   109   110    2
   117    62    64    1
   118    13    14    1
   119   147   145    1
   120   141   142    1
   121   145   142    1
   122   145   146    1
   123   123   126    1
   124    14    15    1
   125   126   128    1
   126   126   127    1
   127   157   155   am
   128   148   146    1
   129    15    16    1
   130   155   156    2
   131   155   154    1
   132   182   180   am
   133    56    55    1
   134    56    57    1
   135    16    17    1
   136   192   193   ar
   137   192   190   ar
   138   153   154    1
   139   153   150    1
   140    55    52    1
   141   180   181    2
   142   180   179    1
   143   193   191   ar
   144    57    51    1
   145   149   150    1
   146   190   188   ar
   147   150   151    1
   148   179   178    1
   149    52    51    1
   150    52    53    1
   151    51    46   am
   152   191   189   ar
   153   178   175    1
   154   188   189   ar
   155   188   187    1
   156   151   158   am
   157   151   152    2
   158    46    45    1
   159    46    47    2
   160    45    48    1
   161    45    44    1
   162    53    54    2
   163   177   176    2
   164   158   159    1
   165   175   176    1
   166   175   174    1
   167   187   184    1
   168   186   185    2
   169    48    49    1
   170    48    50    1
   171   185   184    1
   172   164   162    1
   173   163   162    1
   174   184   183    1
   175   174   167   am
   176   162   159    1
   177   159   160    1
   178   161   160    2
   179   167   168    2
   180   167   166    1
   181   169   166    1
   182   169   170    1
   183   166   165    1
   184   172   171   ar
   185   170   171    1
   186   171   173   ar
