@<TRIPOS>MOLECULE
tmp/3qckA00.pdb
 147 142 0 0 0
SMALL
GASTEIGER

@<TRIPOS>ATOM
      1  N         20.2360   29.4500   50.9030 N.3   123  ILE123     -0.1245
      2  CA        19.8070   29.7190   52.2700 C.3   123  ILE123      0.1561
      3  C         20.5320   30.9420   52.8110 C.2   123  ILE123      0.2260
      4  O         21.2110   30.8900   53.8370 O.2   123  ILE123     -0.2867
      5  CB        20.0680   28.5030   53.1880 C.3   123  ILE123      0.0252
      6  CG1       19.5280   27.2330   52.5180 C.3   123  ILE123      0.0019
      7  CG2       19.3630   28.7050   54.5330 C.3   123  ILE123      0.0019
      8  CD1       19.6720   25.9550   53.3670 C.3   123  ILE123      0.0001
      9  N         15.4710   30.7810   50.4290 N.3   186  TYR186     -0.1241
     10  CA        14.8720   31.2670   51.6660 C.3   186  TYR186      0.1605
     11  C         15.3380   32.6980   51.8570 C.2   186  TYR186      0.2264
     12  O         16.5390   32.9770   51.8450 O.2   186  TYR186     -0.2867
     13  CB        15.3020   30.4230   52.8650 C.3   186  TYR186      0.0534
     14  CG        14.3930   30.6000   54.0580 C.ar  186  TYR186     -0.0201
     15  CD1       13.2590   29.8180   54.2060 C.ar  186  TYR186     -0.0009
     16  CD2       14.6530   31.5670   55.0190 C.ar  186  TYR186     -0.0009
     17  CE1       12.4030   29.9930   55.2740 C.ar  186  TYR186      0.0417
     18  CE2       13.8060   31.7510   56.0950 C.ar  186  TYR186      0.0417
     19  CZ        12.6860   30.9640   56.2140 C.ar  186  TYR186      0.1957
     20  OH        11.8310   31.1500   57.2710 O.3   186  TYR186     -0.2866
     21  N         15.3020   36.9170   56.4400 N.3   189  TRP189     -0.1241
     22  CA        16.4380   37.0140   57.3500 C.3   189  TRP189      0.1605
     23  C         16.4120   38.3140   58.1560 C.2   189  TRP189      0.2264
     24  O         16.5250   39.4010   57.5980 O.2   189  TRP189     -0.2867
     25  CB        17.7380   36.9150   56.5520 C.3   189  TRP189      0.0550
     26  CG        17.8590   35.5990   55.8410 C.ar  189  TRP189      0.0003
     27  CD1       17.6050   35.3470   54.5230 C.ar  189  TRP189      0.0946
     28  CD2       18.1900   34.3400   56.4340 C.ar  189  TRP189      0.0152
     29  NE1       17.7490   34.0030   54.2610 N.ar  189  TRP189     -0.2442
     30  CE2       18.1060   33.3620   55.4180 C.ar  189  TRP189      0.0810
     31  CE3       18.5440   33.9420   57.7280 C.ar  189  TRP189      0.0012
     32  CZ2       18.3640   32.0070   55.6570 C.ar  189  TRP189      0.0191
     33  CZ3       18.8020   32.5900   57.9650 C.ar  189  TRP189      0.0001
     34  CH2       18.7070   31.6440   56.9320 C.ar  189  TRP189      0.0015
     35  N         18.8260   36.5100   64.9040 N.3   194  VAL194     -0.1231
     36  CA        18.6480   35.3580   64.0320 C.3   194  VAL194      0.1678
     37  C         17.1890   34.9180   63.9610 C.2   194  VAL194      0.2434
     38  O         16.3720   35.3080   64.7960 O.2   194  VAL194     -0.2733
     39  CB        19.5030   34.1760   64.5190 C.3   194  VAL194      0.0265
     40  CG1       20.9710   34.5810   64.5310 C.3   194  VAL194      0.0020
     41  CG2       19.0500   33.7450   65.9120 C.3   194  VAL194      0.0020
     42  N         16.8430   34.0940   62.9560 N.am  195  PRO195     -0.2729
     43  CA        15.4560   33.6320   62.8200 C.3   195  PRO195      0.1401
     44  C         14.9530   32.9240   64.0710 C.2   195  PRO195      0.2269
     45  O         15.7160   32.2450   64.7610 O.2   195  PRO195     -0.2865
     46  CB        15.4860   32.7190   61.5880 C.3   195  PRO195      0.0296
     47  CG        16.9260   32.4300   61.3320 C.3   195  PRO195      0.0237
     48  CD        17.7130   33.5770   61.8840 C.3   195  PRO195      0.0939
     49  N         10.5050   27.4420   58.2320 N.3   201  VAL201     -0.1245
     50  CA        11.6710   26.7430   57.7000 C.3   201  VAL201      0.1561
     51  C         11.3160   25.2910   57.4000 C.2   201  VAL201      0.2260
     52  O         11.6900   24.7520   56.3530 O.2   201  VAL201     -0.2867
     53  CB        12.8450   26.7880   58.6980 C.3   201  VAL201      0.0252
     54  CG1       13.9990   25.9410   58.1850 C.3   201  VAL201      0.0019
     55  CG2       13.2970   28.2330   58.8910 C.3   201  VAL201      0.0019
     56  N          9.5690   25.1580   54.2520 N.3   204  PHE204     -0.1227
     57  CA        10.5500   25.3340   53.1870 C.3   204  PHE204      0.1736
     58  C         11.3770   24.0640   52.9260 C.2   204  PHE204      0.2595
     59  O         11.6490   23.7130   51.7780 O.2   204  PHE204     -0.2718
     60  CB        11.4880   26.4880   53.5340 C.3   204  PHE204      0.0547
     61  CG        12.5990   26.6840   52.5440 C.ar  204  PHE204     -0.0202
     62  CD1       12.4050   27.4470   51.4000 C.ar  204  PHE204     -0.0042
     63  CD2       13.8510   26.1270   52.7670 C.ar  204  PHE204     -0.0042
     64  CE1       13.4410   27.6500   50.5020 C.ar  204  PHE204     -0.0003
     65  CE2       14.8860   26.3250   51.8750 C.ar  204  PHE204     -0.0003
     66  CZ        14.6820   27.0890   50.7380 C.ar  204  PHE204     -0.0000
     67  N         11.7840   23.3820   53.9880 N.am  205  VAL205     -0.1980
     68  CA        12.5340   22.1400   53.8170 C.3   205  VAL205      0.1595
     69  C         11.6560   21.0960   53.1310 C.2   205  VAL205      0.2287
     70  O         12.0960   20.4280   52.2020 O.2   205  VAL205     -0.2864
     71  CB        13.0370   21.5890   55.1750 C.3   205  VAL205      0.0276
     72  CG1       13.7210   20.2350   54.9710 C.3   205  VAL205      0.0022
     73  CG2       14.0240   22.5690   55.7980 C.3   205  VAL205      0.0022
     74  N         24.2150   27.2240   57.7950 N.3   229  ARG229     -0.1245
     75  CA        22.8290   27.0240   57.4000 C.3   229  ARG229      0.1563
     76  C         22.7060   25.8380   56.4530 C.2   229  ARG229      0.2260
     77  O         21.7110   25.1180   56.4680 O.2   229  ARG229     -0.2867
     78  CB        22.2910   28.2820   56.7150 C.3   229  ARG229      0.0307
     79  CG        22.2250   29.5160   57.6390 C.3   229  ARG229      0.0489
     80  CD        22.0410   30.8030   56.8310 C.3   229  ARG229      0.2205
     81  NE        22.0380   31.9970   57.6770 N.pl3 229  ARG229     -0.0865
     82  CZ        21.9120   33.2390   57.2140 C.cat 229  ARG229      0.5346
     83  NH1       21.7820   33.4640   55.9120 N.pl3 229  ARG229      0.1354
     84  NH2       21.9010   34.2580   58.0580 N.pl3 229  ARG229      0.1354
     85  N         22.5940   22.7950   58.4260 N.3   232  THR232     -0.1203
     86  CA        21.3470   22.7700   59.1820 C.3   232  THR232      0.1994
     87  C         20.2260   22.2130   58.3270 C.2   232  THR232      0.2617
     88  O         19.4480   21.3680   58.7760 O.2   232  THR232     -0.2717
     89  CB        20.9770   24.2000   59.6710 C.3   232  THR232      0.1784
     90  OG1       21.9770   24.6470   60.5970 O.3   232  THR232     -0.2211
     91  CG2       19.6390   24.2110   60.3560 C.3   232  THR232      0.0376
     92  N         20.1580   22.6800   57.0870 N.am  233  TYR233     -0.1975
     93  CA        19.1910   22.1740   56.1230 C.3   233  TYR233      0.1639
     94  C         19.3510   20.6570   55.9240 C.2   233  TYR233      0.2290
     95  O         18.3780   19.8920   55.9730 O.2   233  TYR233     -0.2864
     96  CB        19.3900   22.8790   54.7780 C.3   233  TYR233      0.0560
     97  CG        18.4310   22.3930   53.7140 C.ar  233  TYR233     -0.0198
     98  CD1       17.1610   22.9490   53.5940 C.ar  233  TYR233     -0.0009
     99  CD2       18.7790   21.3560   52.8480 C.ar  233  TYR233     -0.0009
    100  CE1       16.2590   22.4900   52.6480 C.ar  233  TYR233      0.0417
    101  CE2       17.8770   20.8880   51.8960 C.ar  233  TYR233      0.0417
    102  CZ        16.6180   21.4600   51.8050 C.ar  233  TYR233      0.1957
    103  OH        15.7020   20.9890   50.8870 O.3   233  TYR233     -0.2866
    104  N         18.1680   18.5640   58.9870 N.3   236  ILE236     -0.1245
    105  CA        16.7160   18.5930   59.1320 C.3   236  ILE236      0.1561
    106  C         16.0470   17.7080   58.0790 C.2   236  ILE236      0.2260
    107  O         15.2060   16.8620   58.3910 O.2   236  ILE236     -0.2867
    108  CB        16.1520   20.0280   58.9750 C.3   236  ILE236      0.0252
    109  CG1       16.6610   20.9340   60.1120 C.3   236  ILE236      0.0019
    110  CG2       14.6310   19.9790   58.9770 C.3   236  ILE236      0.0019
    111  CD1       16.2930   22.4100   59.9420 C.3   236  ILE236      0.0001
    112  N         27.0460   26.5430   64.4890 N.3   268  THR268     -0.1218
    113  CA        26.8240   27.0900   65.8220 C.3   268  THR268      0.1862
    114  C         25.8500   26.2600   66.6360 C.2   268  THR268      0.2287
    115  O         25.0060   25.5450   66.0920 O.2   268  THR268     -0.2866
    116  CB        26.2420   28.5110   65.7680 C.3   268  THR268      0.1770
    117  OG1       24.9060   28.4450   65.2460 O.3   268  THR268     -0.2211
    118  CG2       27.0940   29.4080   64.8810 C.3   268  THR268      0.0375
    119  N         23.4060   27.4160   68.2380 N.3   270  GLU270     -0.1231
    120  CA        22.0490   27.9170   68.0150 C.3   270  GLU270      0.1699
    121  C         21.4120   27.2760   66.7860 C.2   270  GLU270      0.2592
    122  O         20.2060   26.9800   66.7700 O.2   270  GLU270     -0.2718
    123  CB        22.0560   29.4530   67.8720 C.3   270  GLU270      0.0402
    124  CG        22.3730   30.2090   69.1580 C.3   270  GLU270      0.1161
    125  CD        23.8300   30.0730   69.5930 C.2   270  GLU270      0.3649
    126  OE1       24.7020   29.8260   68.7330 O.co2 270  GLU270     -0.2457
    127  OE2       24.1030   30.2100   70.8040 O.co2 270  GLU270     -0.2457
    128  N         22.2120   27.0520   65.7490 N.am  271  GLN271     -0.1979
    129  CA        21.7440   26.2880   64.5990 C.3   271  GLN271      0.1601
    130  C         21.4340   24.8460   65.0020 C.2   271  GLN271      0.2287
    131  O         20.4200   24.2780   64.5850 O.2   271  GLN271     -0.2864
    132  CB        22.7980   26.3120   63.4870 C.3   271  GLN271      0.0394
    133  CG        23.0060   27.7070   62.8950 C.3   271  GLN271      0.0908
    134  CD        24.2210   27.7910   61.9810 C.2   271  GLN271      0.2608
    135  OE1       25.1110   26.9490   62.0430 O.2   271  GLN271     -0.2717
    136  NE2       24.2560   28.8120   61.1270 N.am  271  GLN271     -0.0878
    137  N         18.2770   24.8570   66.5900 N.3   274  PHE274     -0.1241
    138  CA        17.2390   25.1270   65.6020 C.3   274  PHE274      0.1605
    139  C         16.8010   23.8510   64.8850 C.2   274  PHE274      0.2264
    140  O         15.6160   23.6520   64.6060 O.2   274  PHE274     -0.2867
    141  CB        17.7260   26.1570   64.5720 C.3   274  PHE274      0.0534
    142  CG        16.6380   26.6370   63.6550 C.ar  274  PHE274     -0.0203
    143  CD1       15.7750   27.6480   64.0570 C.ar  274  PHE274     -0.0042
    144  CD2       16.4350   26.0390   62.4250 C.ar  274  PHE274     -0.0042
    145  CE1       14.7220   28.0510   63.2440 C.ar  274  PHE274     -0.0003
    146  CE2       15.3830   26.4370   61.6060 C.ar  274  PHE274     -0.0003
    147  CZ        14.5270   27.4460   62.0220 C.ar  274  PHE274     -0.0000
@<TRIPOS>BOND
     1     9    10    1
     2    64    66   ar
     3    64    62   ar
     4    66    65   ar
     5   103   102    1
     6     1     2    1
     7    62    61   ar
     8    10    11    1
     9    10    13    1
    10    59    58    2
    11   102   101   ar
    12   102   100   ar
    13    12    11    2
    14    65    63   ar
    15   101    99   ar
    16    70    69    2
    17     2     3    1
    18     2     5    1
    19     6     5    1
    20     6     8    1
    21    61    63   ar
    22    61    60    1
    23   100    98   ar
    24     3     4    2
    25    99    97   ar
    26    13    14    1
    27    58    57    1
    28    58    67   am
    29    69    68    1
    30    57    60    1
    31    57    56    1
    32     5     7    1
    33    98    97   ar
    34    97    96    1
    35    68    67    1
    36    68    71    1
    37    14    15   ar
    38    14    16   ar
    39    15    17   ar
    40    29    27   ar
    41    29    30   ar
    42    27    26   ar
    43    96    93    1
    44    72    71    1
    45    16    18   ar
    46    71    73    1
    47    17    19   ar
    48    30    32   ar
    49    30    28   ar
    50    32    34   ar
    51    26    28   ar
    52    26    25    1
    53    83    82    1
    54    94    95    2
    55    94    93    1
    56    18    19   ar
    57    93    92    1
    58    19    20    1
    59    52    51    2
    60    28    31   ar
    61    21    22    1
    62    76    77    2
    63    76    75    1
    64    25    22    1
    65    78    75    1
    66    78    79    1
    67    80    79    1
    68    80    81    1
    69    34    33   ar
    70    92    87   am
    71    82    81    2
    72    82    84    1
    73    22    23    1
    74    75    74    1
    75    51    50    1
    76    24    23    2
    77    50    49    1
    78    50    53    1
    79    31    33   ar
    80   106   107    2
    81   106   105    1
    82    54    53    1
    83    87    88    2
    84    87    86    1
    85    85    86    1
    86    53    55    1
    87   108   110    1
    88   108   105    1
    89   108   109    1
    90   104   105    1
    91    86    89    1
    92    89    91    1
    93    89    90    1
    94   111   109    1
    95   136   134   am
    96    47    46    1
    97    47    48    1
    98    46    43    1
    99   146   147   ar
   100   146   144   ar
   101    48    42    1
   102   134   135    2
   103   134   133    1
   104   147   145   ar
   105   144   142   ar
   106    43    42    1
   107    43    44    1
   108   133   132    1
   109    42    37   am
   110   145   143   ar
   111   132   129    1
   112   142   143   ar
   113   142   141    1
   114    37    36    1
   115    37    38    2
   116    36    39    1
   117    36    35    1
   118    44    45    2
   119   112   113    1
   120    39    40    1
   121    39    41    1
   122   141   138    1
   123   131   130    2
   124   129   130    1
   125   129   128    1
   126   140   139    2
   127   118   116    1
   128   139   138    1
   129   117   116    1
   130   138   137    1
   131   128   121   am
   132   116   113    1
   133   113   114    1
   134   115   114    2
   135   122   121    2
   136   121   120    1
   137   123   120    1
   138   123   124    1
   139   120   119    1
   140   126   125   ar
   141   124   125    1
   142   125   127   ar
