@<TRIPOS>MOLECULE
tmp/3qclA00.pdb
 175 169 0 0 0
SMALL
GASTEIGER

@<TRIPOS>ATOM
      1  N         17.0910   21.1320   76.3790 N.3    17  TYR17      -0.1241
      2  CA        16.8150   22.5440   76.6080 C.3    17  TYR17       0.1605
      3  C         16.9960   22.9700   78.0670 C.2    17  TYR17       0.2264
      4  O         17.3510   24.1350   78.3140 O.2    17  TYR17      -0.2867
      5  CB        15.3870   22.8820   76.1610 C.3    17  TYR17       0.0534
      6  CG        15.2560   23.5350   74.8020 C.ar   17  TYR17      -0.0201
      7  CD1       14.5050   22.9410   73.7930 C.ar   17  TYR17      -0.0009
      8  CD2       15.7830   24.8040   74.5610 C.ar   17  TYR17      -0.0009
      9  CE1       14.3120   23.5700   72.5630 C.ar   17  TYR17       0.0417
     10  CE2       15.5950   25.4450   73.3350 C.ar   17  TYR17       0.0417
     11  CZ        14.8400   24.8300   72.3470 C.ar   17  TYR17       0.1957
     12  OH        14.6340   25.4480   71.1410 O.3    17  TYR17      -0.2866
     13  N         20.2630   29.2240   50.8130 N.3   124  ILE124     -0.1245
     14  CA        19.8670   29.5770   52.1860 C.3   124  ILE124      0.1561
     15  C         20.6010   30.8080   52.6900 C.2   124  ILE124      0.2260
     16  O         21.2700   30.7840   53.7080 O.2   124  ILE124     -0.2867
     17  CB        19.9450   28.3530   53.1310 C.3   124  ILE124      0.0252
     18  CG1       19.4030   27.0900   52.4360 C.3   124  ILE124      0.0019
     19  CG2       19.1550   28.6320   54.4130 C.3   124  ILE124      0.0019
     20  CD1       19.6410   25.7930   53.1640 C.3   124  ILE124      0.0001
     21  N         15.6850   30.6950   50.2300 N.3   187  TYR187     -0.1241
     22  CA        15.1390   31.1230   51.5330 C.3   187  TYR187      0.1605
     23  C         15.5600   32.5600   51.7150 C.2   187  TYR187      0.2264
     24  O         16.7620   32.8530   51.7400 O.2   187  TYR187     -0.2867
     25  CB        15.6150   30.2720   52.7230 C.3   187  TYR187      0.0534
     26  CG        14.6680   30.4200   53.8980 C.ar  187  TYR187     -0.0201
     27  CD1       13.4930   29.6800   53.9640 C.ar  187  TYR187     -0.0009
     28  CD2       14.9070   31.3590   54.9000 C.ar  187  TYR187     -0.0009
     29  CE1       12.5820   29.8590   55.0020 C.ar  187  TYR187      0.0417
     30  CE2       14.0090   31.5360   55.9570 C.ar  187  TYR187      0.0417
     31  CZ        12.8520   30.7740   56.0060 C.ar  187  TYR187      0.1957
     32  OH        11.9490   30.9100   57.0300 O.3   187  TYR187     -0.2866
     33  N         15.5050   36.7750   56.4160 N.3   190  TRP190     -0.1241
     34  CA        16.6830   37.0080   57.2620 C.3   190  TRP190      0.1605
     35  C         16.5420   38.3430   58.0080 C.2   190  TRP190      0.2264
     36  O         16.5900   39.4080   57.3870 O.2   190  TRP190     -0.2867
     37  CB        17.9890   36.8950   56.4460 C.3   190  TRP190      0.0550
     38  CG        18.0910   35.5780   55.7340 C.ar  190  TRP190      0.0003
     39  CD1       17.8450   35.3390   54.4110 C.ar  190  TRP190      0.0946
     40  CD2       18.2390   34.2910   56.3540 C.ar  190  TRP190      0.0152
     41  NE1       17.9040   33.9880   54.1540 N.ar  190  TRP190     -0.2442
     42  CE2       18.1710   33.3220   55.3260 C.ar  190  TRP190      0.0810
     43  CE3       18.5130   33.8670   57.6690 C.ar  190  TRP190      0.0012
     44  CZ2       18.3420   31.9540   55.5760 C.ar  190  TRP190      0.0191
     45  CZ3       18.6740   32.5090   57.9170 C.ar  190  TRP190      0.0001
     46  CH2       18.5870   31.5710   56.8790 C.ar  190  TRP190      0.0015
     47  N         17.7810   36.2880   64.9370 N.3   195  VAL195     -0.1231
     48  CA        17.9270   35.1760   63.9860 C.3   195  VAL195      0.1678
     49  C         16.7190   34.1700   64.0300 C.2   195  VAL195      0.2434
     50  O         16.1180   34.0510   65.1040 O.2   195  VAL195     -0.2733
     51  CB        19.3310   34.5370   64.1670 C.3   195  VAL195      0.0265
     52  CG1       19.3600   33.4990   65.2830 C.3   195  VAL195      0.0020
     53  CG2       19.9000   34.0260   62.8530 C.3   195  VAL195      0.0020
     54  N         16.3160   33.5010   62.8930 N.am  196  PRO196     -0.2729
     55  CA        15.1460   32.6030   62.8990 C.3   196  PRO196      0.1401
     56  C         14.4180   32.2360   64.1900 C.2   196  PRO196      0.2269
     57  O         14.8170   31.3230   64.9220 O.2   196  PRO196     -0.2865
     58  CB        15.6090   31.4380   62.0300 C.3   196  PRO196      0.0296
     59  CG        16.5180   32.1310   60.9900 C.3   196  PRO196      0.0237
     60  CD        16.8830   33.5210   61.5280 C.3   196  PRO196      0.0939
     61  N         10.5820   27.3180   57.8550 N.3   202  VAL202     -0.1245
     62  CA        11.7820   26.6020   57.3820 C.3   202  VAL202      0.1561
     63  C         11.4300   25.1360   57.0690 C.2   202  VAL202      0.2260
     64  O         11.8590   24.5980   56.0400 O.2   202  VAL202     -0.2867
     65  CB        12.9590   26.7230   58.3690 C.3   202  VAL202      0.0252
     66  CG1       14.1170   25.8030   57.9780 C.3   202  VAL202      0.0019
     67  CG2       13.4210   28.1630   58.4470 C.3   202  VAL202      0.0019
     68  N          9.7010   25.1230   53.8540 N.3   205  PHE205     -0.1227
     69  CA        10.7210   25.3070   52.8350 C.3   205  PHE205      0.1736
     70  C         11.4450   23.9830   52.5640 C.2   205  PHE205      0.2595
     71  O         11.6370   23.6410   51.4080 O.2   205  PHE205     -0.2718
     72  CB        11.7070   26.4180   53.2250 C.3   205  PHE205      0.0547
     73  CG        12.8860   26.5760   52.2890 C.ar  205  PHE205     -0.0202
     74  CD1       12.7440   27.2250   51.0660 C.ar  205  PHE205     -0.0042
     75  CD2       14.1520   26.1200   52.6510 C.ar  205  PHE205     -0.0042
     76  CE1       13.8410   27.3930   50.2150 C.ar  205  PHE205     -0.0003
     77  CE2       15.2490   26.2820   51.7950 C.ar  205  PHE205     -0.0003
     78  CZ        15.0920   26.9400   50.5960 C.ar  205  PHE205     -0.0000
     79  N         11.7980   23.2300   53.6210 N.am  206  VAL206     -0.1980
     80  CA        12.4890   21.9430   53.4970 C.3   206  VAL206      0.1595
     81  C         11.6120   20.9110   52.7700 C.2   206  VAL206      0.2287
     82  O         12.0750   20.3040   51.8060 O.2   206  VAL206     -0.2864
     83  CB        13.0650   21.4120   54.8520 C.3   206  VAL206      0.0276
     84  CG1       13.6100   20.0000   54.7070 C.3   206  VAL206      0.0022
     85  CG2       14.1520   22.3400   55.4030 C.3   206  VAL206      0.0022
     86  N         24.0930   26.9480   57.5660 N.3   230  ARG230     -0.1245
     87  CA        22.7010   26.7350   57.1660 C.3   230  ARG230      0.1563
     88  C         22.5810   25.5360   56.2310 C.2   230  ARG230      0.2260
     89  O         21.5720   24.8380   56.2860 O.2   230  ARG230     -0.2867
     90  CB        22.0940   28.0020   56.5270 C.3   230  ARG230      0.0307
     91  CG        21.9910   29.1960   57.4640 C.3   230  ARG230      0.0489
     92  CD        22.0410   30.4950   56.6770 C.3   230  ARG230      0.2205
     93  NE        22.1920   31.6540   57.5550 N.pl3 230  ARG230     -0.0865
     94  CZ        22.1690   32.9220   57.1550 C.cat 230  ARG230      0.5346
     95  NH1       21.9770   33.2200   55.8770 N.pl3 230  ARG230      0.1354
     96  NH2       22.3160   33.9010   58.0320 N.pl3 230  ARG230      0.1354
     97  N         22.5140   22.5700   58.4030 N.3   233  THR233     -0.1203
     98  CA        21.2060   22.6350   59.0640 C.3   233  THR233      0.1994
     99  C         20.1360   22.0790   58.1600 C.2   233  THR233      0.2617
    100  O         19.3550   21.2380   58.6060 O.2   233  THR233     -0.2717
    101  CB        20.9300   24.0610   59.5810 C.3   233  THR233      0.1784
    102  OG1       21.9570   24.4150   60.5090 O.3   233  THR233     -0.2211
    103  CG2       19.6210   24.1790   60.2740 C.3   233  THR233      0.0376
    104  N         20.1380   22.4810   56.8800 N.am  234  TYR234     -0.1975
    105  CA        19.1660   21.9540   55.9090 C.3   234  TYR234      0.1639
    106  C         19.3350   20.4200   55.7190 C.2   234  TYR234      0.2290
    107  O         18.3510   19.6710   55.7640 O.2   234  TYR234     -0.2864
    108  CB        19.3170   22.6830   54.5450 C.3   234  TYR234      0.0560
    109  CG        18.3610   22.1760   53.4760 C.ar  234  TYR234     -0.0198
    110  CD1       17.1230   22.7830   53.2740 C.ar  234  TYR234     -0.0009
    111  CD2       18.7050   21.1050   52.6540 C.ar  234  TYR234     -0.0009
    112  CE1       16.2390   22.3230   52.2940 C.ar  234  TYR234      0.0417
    113  CE2       17.8250   20.6300   51.6760 C.ar  234  TYR234      0.0417
    114  CZ        16.5940   21.2430   51.4990 C.ar  234  TYR234      0.1957
    115  OH        15.7260   20.7530   50.5470 O.3   234  TYR234     -0.2866
    116  N         18.0530   18.4880   58.7460 N.3   237  ILE237     -0.1245
    117  CA        16.5890   18.5290   58.8480 C.3   237  ILE237      0.1561
    118  C         15.9610   17.6120   57.8120 C.2   237  ILE237      0.2260
    119  O         15.1540   16.7600   58.1590 O.2   237  ILE237     -0.2867
    120  CB        15.9840   19.9620   58.8240 C.3   237  ILE237      0.0252
    121  CG1       16.4240   20.7630   60.0690 C.3   237  ILE237      0.0019
    122  CG2       14.4340   19.9060   58.7030 C.3   237  ILE237      0.0019
    123  CD1       16.4070   22.2700   59.8830 C.3   237  ILE237      0.0001
    124  N         26.9890   26.2760   64.3770 N.3   269  THR269     -0.1218
    125  CA        26.7260   26.7820   65.7300 C.3   269  THR269      0.1862
    126  C         25.7570   25.9430   66.5140 C.2   269  THR269      0.2287
    127  O         24.8980   25.2700   65.9420 O.2   269  THR269     -0.2866
    128  CB        26.2180   28.2560   65.6870 C.3   269  THR269      0.1770
    129  OG1       24.9000   28.2710   65.1280 O.3   269  THR269     -0.2211
    130  CG2       27.1430   29.2020   64.8750 C.3   269  THR269      0.0375
    131  N         23.3220   27.1640   68.1060 N.3   271  GLU271     -0.1231
    132  CA        22.0350   27.7680   67.7930 C.3   271  GLU271      0.1699
    133  C         21.4020   27.0450   66.5990 C.2   271  GLU271      0.2592
    134  O         20.2280   26.6650   66.6670 O.2   271  GLU271     -0.2718
    135  CB        22.1940   29.2870   67.5590 C.3   271  GLU271      0.0402
    136  CG        22.5370   30.0930   68.8190 C.3   271  GLU271      0.1161
    137  CD        23.9390   29.9510   69.4120 C.2   271  GLU271      0.3649
    138  OE1       24.9260   29.8460   68.6430 O.co2 271  GLU271     -0.2457
    139  OE2       24.0450   29.9480   70.6610 O.co2 271  GLU271     -0.2457
    140  N         22.2030   26.7640   65.5470 N.am  272  GLN272     -0.1979
    141  CA        21.7300   26.0060   64.3760 C.3   272  GLN272      0.1601
    142  C         21.4000   24.5870   64.7780 C.2   272  GLN272      0.2287
    143  O         20.3850   24.0530   64.3360 O.2   272  GLN272     -0.2864
    144  CB        22.7830   25.9940   63.2760 C.3   272  GLN272      0.0394
    145  CG        22.9070   27.3270   62.5600 C.3   272  GLN272      0.0908
    146  CD        24.1970   27.4340   61.8020 C.2   272  GLN272      0.2608
    147  OE1       25.1230   26.6150   61.9460 O.2   272  GLN272     -0.2717
    148  NE2       24.2910   28.4700   60.9840 N.am  272  GLN272     -0.0878
    149  N         20.3910   23.5760   67.7830 N.3   274  ILE274     -0.1231
    150  CA        19.1050   23.6630   68.4900 C.3   274  ILE274      0.1692
    151  C         17.9770   23.8190   67.4610 C.2   274  ILE274      0.2592
    152  O         16.9550   23.1330   67.5730 O.2   274  ILE274     -0.2718
    153  CB        19.1210   24.8170   69.5350 C.3   274  ILE274      0.0266
    154  CG1       20.1330   24.5160   70.6740 C.3   274  ILE274      0.0019
    155  CG2       17.7300   25.0840   70.0880 C.3   274  ILE274      0.0020
    156  CD1       20.6140   25.7260   71.4820 C.3   274  ILE274      0.0001
    157  N         18.1840   24.6890   66.4470 N.am  275  PHE275     -0.1976
    158  CA        17.2040   24.9230   65.3850 C.3   275  PHE275      0.1639
    159  C         16.7710   23.6580   64.6740 C.2   275  PHE275      0.2290
    160  O         15.5860   23.5320   64.3690 O.2   275  PHE275     -0.2864
    161  CB        17.6680   25.9900   64.3730 C.3   275  PHE275      0.0560
    162  CG        16.5390   26.4260   63.4670 C.ar  275  PHE275     -0.0200
    163  CD1       15.5610   27.3090   63.9210 C.ar  275  PHE275     -0.0042
    164  CD2       16.4220   25.9170   62.1840 C.ar  275  PHE275     -0.0042
    165  CE1       14.5030   27.6960   63.0940 C.ar  275  PHE275     -0.0003
    166  CE2       15.3620   26.3080   61.3530 C.ar  275  PHE275     -0.0003
    167  CZ        14.4170   27.2010   61.8120 C.ar  275  PHE275     -0.0000
    168  N         14.0740   22.0390   66.8480 N.3   278  ASP278     -0.1239
    169  CA        12.7960   22.7760   66.7500 C.3   278  ASP278      0.1674
    170  C         12.0200   22.4330   65.4600 C.2   278  ASP278      0.2266
    171  O         10.8010   22.1840   65.5180 O.2   278  ASP278     -0.2867
    172  CB        13.0200   24.2970   66.8320 C.3   278  ASP278      0.1410
    173  CG        13.3580   24.7870   68.2210 C.2   278  ASP278      0.3668
    174  OD1       13.3040   23.9680   69.1710 O.co2 278  ASP278     -0.2456
    175  OD2       13.6320   25.9980   68.3710 O.co2 278  ASP278     -0.2456
@<TRIPOS>BOND
     1    76    78   ar
     2    76    74   ar
     3    21    22    1
     4   115   114    1
     5    78    77   ar
     6    13    14    1
     7    74    73   ar
     8    71    70    2
     9   114   113   ar
    10   114   112   ar
    11    22    23    1
    12    22    25    1
    13   113   111   ar
    14    23    24    2
    15    77    75   ar
    16    82    81    2
    17    14    15    1
    18    14    17    1
    19    73    75   ar
    20    73    72    1
    21   112   110   ar
    22    18    17    1
    23    18    20    1
    24    70    69    1
    25    70    79   am
    26   111   109   ar
    27    15    16    2
    28    25    26    1
    29    81    80    1
    30    69    72    1
    31    69    68    1
    32    17    19    1
    33   110   109   ar
    34   109   108    1
    35    80    79    1
    36    80    83    1
    37    26    27   ar
    38    26    28   ar
    39    27    29   ar
    40    41    39   ar
    41    41    42   ar
    42    39    38   ar
    43   108   105    1
    44    84    83    1
    45    83    85    1
    46    28    30   ar
    47    29    31   ar
    48    42    44   ar
    49    42    40   ar
    50    44    46   ar
    51   106   107    2
    52   106   105    1
    53    38    40   ar
    54    38    37    1
    55    95    94    1
    56   105   104    1
    57    30    31   ar
    58    31    32    1
    59    64    63    2
    60    88    89    2
    61    88    87    1
    62    40    43   ar
    63    33    34    1
    64    37    34    1
    65    90    87    1
    66    90    91    1
    67    92    91    1
    68    92    93    1
    69    46    45   ar
    70   104    99   am
    71    63    62    1
    72    94    93    2
    73    94    96    1
    74    87    86    1
    75    34    35    1
    76    62    61    1
    77    62    65    1
    78    36    35    2
    79    43    45   ar
    80   118   119    2
    81   118   117    1
    82    66    65    1
    83    99   100    2
    84    99    98    1
    85    65    67    1
    86    97    98    1
    87   122   120    1
    88   116   117    1
    89   120   117    1
    90   120   121    1
    91    98   101    1
    92   101   103    1
    93   101   102    1
    94   123   121    1
    95   148   146   am
    96    59    60    1
    97    59    58    1
    98   166   167   ar
    99   166   164   ar
   100    60    54    1
   101   146   147    2
   102   146   145    1
   103   167   165   ar
   104    58    55    1
   105   164   162   ar
   106   145   144    1
   107    53    51    1
   108    54    55    1
   109    54    49   am
   110    55    56    1
   111   165   163   ar
   112   144   141    1
   113   162   163   ar
   114   162   161    1
   115    48    49    1
   116    48    51    1
   117    48    47    1
   118    49    50    2
   119    51    52    1
   120    56    57    2
   121   143   142    2
   122   160   159    2
   123   161   158    1
   124   141   142    1
   125   141   140    1
   126   124   125    1
   127   159   158    1
   128   130   128    1
   129   129   128    1
   130   158   157    1
   131   170   171    2
   132   170   169    1
   133   140   133   am
   134   128   125    1
   135   125   126    1
   136   127   126    2
   137   157   151   am
   138   133   134    2
   139   133   132    1
   140   169   172    1
   141   169   168    1
   142   172   173    1
   143   151   152    2
   144   151   150    1
   145   135   132    1
   146   135   136    1
   147   149   150    1
   148   132   131    1
   149   173   175   ar
   150   173   174   ar
   151   150   153    1
   152   138   137   ar
   153   136   137    1
   154   137   139   ar
   155   153   155    1
   156   153   154    1
   157   154   156    1
   158    12    11    1
   159    11     9   ar
   160    11    10   ar
   161     9     7   ar
   162    10     8   ar
   163     7     6   ar
   164     8     6   ar
   165     6     5    1
   166     5     2    1
   167     1     2    1
   168     2     3    1
   169     3     4    2
