@<TRIPOS>MOLECULE
tmp/3qcmA00.pdb
 216 209 0 0 0
SMALL
GASTEIGER

@<TRIPOS>ATOM
      1  N         26.5710   19.3190   13.7070 N.3    17  TYR17      -0.1241
      2  CA        26.2360   20.7160   13.3980 C.3    17  TYR17       0.1605
      3  C         25.6720   20.9390   11.9730 C.2    17  TYR17       0.2264
      4  O         24.9100   21.8920   11.7590 O.2    17  TYR17      -0.2867
      5  CB        27.4570   21.6260   13.6230 C.3    17  TYR17       0.0534
      6  CG        27.4760   22.3040   14.9750 C.ar   17  TYR17      -0.0201
      7  CD1       26.4970   23.2340   15.3250 C.ar   17  TYR17      -0.0009
      8  CD2       28.4950   22.0510   15.8910 C.ar   17  TYR17      -0.0009
      9  CE1       26.5150   23.8630   16.5640 C.ar   17  TYR17       0.0417
     10  CE2       28.5340   22.6910   17.1260 C.ar   17  TYR17       0.0417
     11  CZ        27.5450   23.5970   17.4570 C.ar   17  TYR17       0.1957
     12  OH        27.6010   24.2370   18.6660 O.3    17  TYR17      -0.2866
     13  N         21.2690   22.0580    9.5100 N.3    20  ASN20      -0.1225
     14  CA        20.5200   22.7940   10.5440 C.3    20  ASN20       0.1785
     15  C         20.4420   22.0770   11.9090 C.2    20  ASN20       0.2597
     16  O         19.4030   22.1150   12.5900 O.2    20  ASN20      -0.2718
     17  CB        19.1410   23.2670   10.0480 C.3    20  ASN20       0.1169
     18  CG        18.7760   24.6220   10.6040 C.2    20  ASN20       0.2627
     19  OD1       18.9130   25.6510    9.9290 O.2    20  ASN20      -0.2716
     20  ND2       18.3570   24.6650   11.8650 N.am   20  ASN20      -0.0877
     21  N         21.5720   21.4410   12.2970 N.am   21  GLN21      -0.1979
     22  CA        21.7750   20.7040   13.5420 C.3    21  GLN21       0.1601
     23  C         20.8560   19.4900   13.7090 C.2    21  GLN21       0.2287
     24  O         20.5450   19.0830   14.8330 O.2    21  GLN21      -0.2864
     25  CB        21.7840   21.6490   14.7540 C.3    21  GLN21       0.0394
     26  CG        23.0330   22.5260   14.7830 C.3    21  GLN21       0.0908
     27  CD        22.7310   23.9480   15.1630 C.2    21  GLN21       0.2608
     28  OE1       22.2050   24.2280   16.2400 O.2    21  GLN21      -0.2717
     29  NE2       23.0820   24.8800   14.2950 N.am   21  GLN21      -0.0878
     30  N         19.5470   16.9620   17.0160 N.3    25  SER25      -0.1217
     31  CA        18.1160   16.7360   17.2450 C.3    25  SER25       0.1889
     32  C         17.7710   15.2570   17.3540 C.2    25  SER25       0.2288
     33  O         17.0230   14.8800   18.2590 O.2    25  SER25      -0.2866
     34  CB        17.2740   17.4060   16.1650 C.3    25  SER25       0.2089
     35  OG        17.5530   18.7950   16.1100 O.3    25  SER25      -0.2183
     36  N         24.2340   25.1180   40.4470 N.3   124  ILE124     -0.1245
     37  CA        24.2550   25.6340   39.0620 C.3   124  ILE124      0.1561
     38  C         22.9600   26.4090   38.7550 C.2   124  ILE124      0.2260
     39  O         22.1820   26.0610   37.8500 O.2   124  ILE124     -0.2867
     40  CB        24.5340   24.4920   38.0400 C.3   124  ILE124      0.0252
     41  CG1       25.5580   23.4720   38.5890 C.3   124  ILE124      0.0019
     42  CG2       25.0240   25.0730   36.7060 C.3   124  ILE124      0.0019
     43  CD1       25.5530   22.2210   37.9050 C.3   124  ILE124      0.0001
     44  N         27.7790   28.5200   40.6260 N.3   186  TYR186     -0.1241
     45  CA        27.8810   29.1900   39.3140 C.3   186  TYR186      0.1605
     46  C         26.8220   30.3060   39.2480 C.2   186  TYR186      0.2264
     47  O         25.6220   30.0430   39.3260 O.2   186  TYR186     -0.2867
     48  CB        27.7500   28.1980   38.1330 C.3   186  TYR186      0.0534
     49  CG        28.3230   28.7710   36.8530 C.ar  186  TYR186     -0.0201
     50  CD1       29.6810   28.6540   36.5560 C.ar  186  TYR186     -0.0009
     51  CD2       27.5250   29.4860   35.9700 C.ar  186  TYR186     -0.0009
     52  CE1       30.2140   29.2010   35.3910 C.ar  186  TYR186      0.0417
     53  CE2       28.0530   30.0540   34.8150 C.ar  186  TYR186      0.0417
     54  CZ        29.3980   29.9110   34.5310 C.ar  186  TYR186      0.1957
     55  OH        29.9020   30.4680   33.3840 O.3   186  TYR186     -0.2866
     56  N         24.4790   33.9170   34.7790 N.3   189  TRP189     -0.1241
     57  CA        23.3050   33.5110   34.0160 C.3   189  TRP189      0.1605
     58  C         22.7960   34.6040   33.0730 C.2   189  TRP189      0.2264
     59  O         22.2270   35.5860   33.5440 O.2   189  TRP189     -0.2867
     60  CB        22.2280   32.9210   34.9410 C.3   189  TRP189      0.0550
     61  CG        22.7640   31.7470   35.7040 C.ar  189  TRP189      0.0003
     62  CD1       23.1430   31.7270   37.0130 C.ar  189  TRP189      0.0946
     63  CD2       23.1840   30.4920   35.1440 C.ar  189  TRP189      0.0152
     64  NE1       23.7180   30.5130   37.3210 N.ar  189  TRP189     -0.2442
     65  CE2       23.7290   29.7270   36.1960 C.ar  189  TRP189      0.0810
     66  CE3       23.0820   29.9140   33.8660 C.ar  189  TRP189      0.0012
     67  CZ2       24.1570   28.4100   36.0120 C.ar  189  TRP189      0.0191
     68  CZ3       23.5380   28.6260   33.6760 C.ar  189  TRP189      0.0001
     69  CH2       24.0580   27.8830   34.7400 C.ar  189  TRP189      0.0015
     70  N         21.3380   32.6330   25.4560 N.3   194  VAL194     -0.1231
     71  CA        21.8310   31.3970   26.0780 C.3   194  VAL194      0.1678
     72  C         23.3900   31.3550   26.0890 C.2   194  VAL194      0.2434
     73  O         23.9810   32.0140   25.2270 O.2   194  VAL194     -0.2733
     74  CB        21.2210   30.1510   25.3560 C.3   194  VAL194      0.0265
     75  CG1       19.7350   29.9680   25.6700 C.3   194  VAL194      0.0020
     76  CG2       21.4520   30.1930   23.8450 C.3   194  VAL194      0.0020
     77  N         24.0930   30.5830   26.9770 N.am  195  PRO195     -0.2718
     78  CA        25.5710   30.5630   26.9130 C.3   195  PRO195      0.1535
     79  C         26.0720   30.0440   25.5610 C.2   195  PRO195      0.2598
     80  O         25.5960   28.9880   25.1430 O.2   195  PRO195     -0.2715
     81  CB        25.9800   29.6340   28.0650 C.3   195  PRO195      0.0310
     82  CG        24.8040   29.5600   28.9440 C.3   195  PRO195      0.0237
     83  CD        23.6040   29.7160   28.0650 C.3   195  PRO195      0.0939
     84  N         26.9210   30.7790   24.7890 N.am  196  GLU196     -0.1978
     85  CA        27.6930   32.0290   24.9370 C.3   196  GLU196      0.1602
     86  C         29.1740   31.6630   24.9130 C.2   196  GLU196      0.2287
     87  O         29.7090   31.4850   23.8180 O.2   196  GLU196     -0.2864
     88  CB        27.2590   32.9470   26.1010 C.3   196  GLU196      0.0415
     89  CG        27.8950   34.3370   26.1120 C.3   196  GLU196      0.1163
     90  CD        27.5540   35.3640   25.0380 C.2   196  GLU196      0.3649
     91  OE1       26.7750   35.0520   24.1070 O.co2 196  GLU196     -0.2457
     92  OE2       28.0740   36.4990   25.1380 O.co2 196  GLU196     -0.2457
     93  N         32.6120   27.9740   32.2190 N.3   201  VAL201     -0.1245
     94  CA        31.9710   26.7260   32.6690 C.3   201  VAL201      0.1561
     95  C         33.0480   25.6310   32.8040 C.2   201  VAL201      0.2260
     96  O         33.0450   24.8850   33.7770 O.2   201  VAL201     -0.2867
     97  CB        30.8120   26.3140   31.7230 C.3   201  VAL201      0.0252
     98  CG1       30.2030   24.9760   32.1360 C.3   201  VAL201      0.0019
     99  CG2       29.7410   27.4020   31.6830 C.3   201  VAL201      0.0019
    100  N         35.0230   26.3510   35.9460 N.3   204  PHE204     -0.1227
    101  CA        34.1500   25.9830   37.0650 C.3   204  PHE204      0.1736
    102  C         34.1210   24.4560   37.2670 C.2   204  PHE204      0.2595
    103  O         34.3350   24.0190   38.3900 O.2   204  PHE204     -0.2718
    104  CB        32.7250   26.4810   36.8160 C.3   204  PHE204      0.0547
    105  CG        31.7460   26.0780   37.8850 C.ar  204  PHE204     -0.0202
    106  CD1       31.7540   26.7040   39.1370 C.ar  204  PHE204     -0.0042
    107  CD2       30.8130   25.0720   37.6530 C.ar  204  PHE204     -0.0042
    108  CE1       30.8120   26.3690   40.1040 C.ar  204  PHE204     -0.0003
    109  CE2       29.8670   24.7410   38.6320 C.ar  204  PHE204     -0.0003
    110  CZ        29.8640   25.4060   39.8400 C.ar  204  PHE204     -0.0000
    111  N         33.8530   23.6680   36.1790 N.am  205  VAL205     -0.1980
    112  CA        33.8430   22.1960   36.2120 C.3   205  VAL205      0.1595
    113  C         35.2000   21.6380   36.7030 C.2   205  VAL205      0.2287
    114  O         35.2240   20.8080   37.6160 O.2   205  VAL205     -0.2864
    115  CB        33.4030   21.5560   34.8660 C.3   205  VAL205      0.0276
    116  CG1       33.6120   20.0450   34.8700 C.3   205  VAL205      0.0022
    117  CG2       31.9530   21.8910   34.5300 C.3   205  VAL205      0.0022
    118  N         20.9290   21.5370   34.0200 N.3   229  ARG229     -0.1245
    119  CA        22.3110   21.9490   34.2380 C.3   229  ARG229      0.1563
    120  C         23.0740   20.9180   35.0630 C.2   229  ARG229      0.2260
    121  O         24.2780   20.7670   34.8680 O.2   229  ARG229     -0.2867
    122  CB        22.3570   23.3180   34.9040 C.3   229  ARG229      0.0307
    123  CG        21.8540   24.4550   34.0300 C.3   229  ARG229      0.0489
    124  CD        21.2850   25.5640   34.8970 C.3   229  ARG229      0.2205
    125  NE        20.7430   26.6700   34.1190 N.pl3 229  ARG229     -0.0865
    126  CZ        20.2690   27.8030   34.6430 C.cat 229  ARG229      0.5346
    127  NH1       20.2920   27.9980   35.9520 N.pl3 229  ARG229      0.1354
    128  NH2       19.7710   28.7500   33.8590 N.pl3 229  ARG229      0.1354
    129  N         24.1450   18.2910   32.7620 N.3   232  THR232     -0.1203
    130  CA        25.1180   18.9570   31.9060 C.3   232  THR232      0.1994
    131  C         26.4910   18.9380   32.5610 C.2   232  THR232      0.2617
    132  O         27.4550   18.5570   31.9090 O.2   232  THR232     -0.2717
    133  CB        24.5870   20.3530   31.5120 C.3   232  THR232      0.1784
    134  OG1       23.3540   20.1600   30.8390 O.3   232  THR232     -0.2211
    135  CG2       25.5320   21.1450   30.6150 C.3   232  THR232      0.0376
    136  N         26.5630   19.3060   33.8590 N.am  233  TYR233     -0.1975
    137  CA        27.7770   19.3330   34.6710 C.3   233  TYR233      0.1639
    138  C         28.3250   17.9130   34.7810 C.2   233  TYR233      0.2290
    139  O         29.5320   17.7100   34.6290 O.2   233  TYR233     -0.2864
    140  CB        27.4380   19.8950   36.0940 C.3   233  TYR233      0.0560
    141  CG        28.6230   19.8890   37.0410 C.ar  233  TYR233     -0.0198
    142  CD1       29.4860   20.9740   37.1090 C.ar  233  TYR233     -0.0009
    143  CD2       28.9360   18.7580   37.7960 C.ar  233  TYR233     -0.0009
    144  CE1       30.6130   20.9580   37.9350 C.ar  233  TYR233      0.0417
    145  CE2       30.0750   18.7230   38.6190 C.ar  233  TYR233      0.0417
    146  CZ        30.9200   19.8190   38.6640 C.ar  233  TYR233      0.1957
    147  OH        32.0490   19.7820   39.4530 O.3   233  TYR233     -0.2866
    148  N         29.8020   16.7890   31.3550 N.3   236  ILE236     -0.1245
    149  CA        31.0810   17.4990   31.1160 C.3   236  ILE236      0.1561
    150  C         32.1800   16.9610   31.9990 C.2   236  ILE236      0.2260
    151  O         33.2150   16.5660   31.4750 O.2   236  ILE236     -0.2867
    152  CB        30.9610   19.0720   31.1530 C.3   236  ILE236      0.0252
    153  CG1       29.9700   19.5720   30.0620 C.3   236  ILE236      0.0019
    154  CG2       32.3550   19.7680   31.0620 C.3   236  ILE236      0.0019
    155  CD1       29.5370   21.0270   30.1870 C.3   236  ILE236      0.0001
    156  N         17.4350   19.8230   27.8410 N.3   268  THR268     -0.1203
    157  CA        17.1630   20.4190   26.5270 C.3   268  THR268      0.1994
    158  C         18.2450   20.0720   25.5180 C.2   268  THR268      0.2618
    159  O         19.4010   19.8230   25.8890 O.2   268  THR268     -0.2717
    160  CB        17.0400   21.9430   26.6100 C.3   268  THR268      0.1784
    161  OG1       18.2890   22.4610   27.0280 O.3   268  THR268     -0.2211
    162  CG2       15.9510   22.4060   27.5120 C.3   268  THR268      0.0376
    163  N         17.8690   20.1450   24.2210 N.am  269  GLU269     -0.1965
    164  CA        18.7580   19.9620   23.0720 C.3   269  GLU269      0.1733
    165  C         19.9080   20.9870   23.1360 C.2   269  GLU269      0.2616
    166  O         21.0360   20.6560   22.8020 O.2   269  GLU269     -0.2715
    167  CB        17.9490   20.1610   21.7860 C.3   269  GLU269      0.0429
    168  CG        18.6800   19.7070   20.5340 C.3   269  GLU269      0.1163
    169  CD        17.9970   20.0570   19.2280 C.2   269  GLU269      0.3649
    170  OE1       16.7610   20.2520   19.2260 O.co2 269  GLU269     -0.2457
    171  OE2       18.6950   20.0900   18.1910 O.co2 269  GLU269     -0.2457
    172  N         19.6120   22.2100   23.5880 N.am  270  GLU270     -0.1963
    173  CA        20.5600   23.3250   23.7510 C.3   270  GLU270      0.1733
    174  C         21.6790   22.9120   24.7350 C.2   270  GLU270      0.2616
    175  O         22.8550   23.0480   24.4060 O.2   270  GLU270     -0.2715
    176  CB        19.8170   24.5940   24.2390 C.3   270  GLU270      0.0429
    177  CG        18.8300   25.2110   23.2480 C.3   270  GLU270      0.1163
    178  CD        17.6450   24.3780   22.7690 C.2   270  GLU270      0.3649
    179  OE1       16.9110   23.8070   23.6120 O.co2 270  GLU270     -0.2457
    180  OE2       17.4510   24.3010   21.5330 O.co2 270  GLU270     -0.2457
    181  N         21.3070   22.3380   25.9050 N.am  271  GLN271     -0.1977
    182  CA        22.2650   21.8150   26.8990 C.3   271  GLN271      0.1601
    183  C         23.0980   20.6800   26.2980 C.2   271  GLN271      0.2287
    184  O         24.2990   20.6110   26.5410 O.2   271  GLN271     -0.2864
    185  CB        21.5450   21.3240   28.1630 C.3   271  GLN271      0.0394
    186  CG        21.0140   22.5000   28.9980 C.3   271  GLN271      0.0908
    187  CD        19.9380   22.1130   29.9580 C.2   271  GLN271      0.2608
    188  OE1       19.4630   20.9680   30.0150 O.2   271  GLN271     -0.2717
    189  NE2       19.4590   23.0950   30.6830 N.am  271  GLN271     -0.0878
    190  N         23.8360   20.2500   23.0050 N.3   273  ILE273     -0.1231
    191  CA        24.8050   20.8640   22.0900 C.3   273  ILE273      0.1692
    192  C         25.8920   21.5420   22.9320 C.2   273  ILE273      0.2592
    193  O         27.0710   21.3970   22.6280 O.2   273  ILE273     -0.2718
    194  CB        24.1690   21.8650   21.0610 C.3   273  ILE273      0.0266
    195  CG1       22.9570   21.2480   20.3250 C.3   273  ILE273      0.0019
    196  CG2       25.2420   22.3190   20.0740 C.3   273  ILE273      0.0020
    197  CD1       21.9550   22.2810   19.6870 C.3   273  ILE273      0.0001
    198  N         25.4960   22.2650   24.0060 N.am  274  PHE274     -0.1976
    199  CA        26.4560   22.9440   24.8990 C.3   274  PHE274      0.1639
    200  C         27.5720   22.0140   25.3890 C.2   274  PHE274      0.2290
    201  O         28.7240   22.4230   25.3920 O.2   274  PHE274     -0.2864
    202  CB        25.7570   23.6720   26.0720 C.3   274  PHE274      0.0560
    203  CG        26.7510   24.3200   27.0130 C.ar  274  PHE274     -0.0200
    204  CD1       27.3700   25.5230   26.6800 C.ar  274  PHE274     -0.0042
    205  CD2       27.1430   23.6800   28.1860 C.ar  274  PHE274     -0.0042
    206  CE1       28.3150   26.1050   27.5310 C.ar  274  PHE274     -0.0003
    207  CE2       28.1150   24.2490   29.0240 C.ar  274  PHE274     -0.0003
    208  CZ        28.6730   25.4680   28.7050 C.ar  274  PHE274     -0.0000
    209  N         30.1090   21.5690   22.6110 N.3   277  ASP277     -0.1239
    210  CA        30.8990   22.8020   22.4960 C.3   277  ASP277      0.1674
    211  C         31.9560   22.8980   23.5870 C.2   277  ASP277      0.2266
    212  O         33.1210   23.1380   23.2860 O.2   277  ASP277     -0.2867
    213  CB        29.9770   24.0320   22.5100 C.3   277  ASP277      0.1410
    214  CG        30.7660   25.3340   22.4300 C.2   277  ASP277      0.3668
    215  OD1       31.6100   25.4650   21.5040 O.co2 277  ASP277     -0.2456
    216  OD2       30.5930   26.1940   23.3310 O.co2 277  ASP277     -0.2456
@<TRIPOS>BOND
     1    13    14    1
     2    19    18    2
     3    17    14    1
     4    17    18    1
     5    14    15    1
     6    18    20   am
     7     4     3    2
     8    15    21   am
     9    15    16    2
    10     3     2    1
    11    21    22    1
    12     2     5    1
    13     2     1    1
    14    22    23    1
    15    22    25    1
    16     5     6    1
    17    23    24    2
    18    29    27   am
    19    25    26    1
    20    26    27    1
    21     6     7   ar
    22     6     8   ar
    23    27    28    2
    24     7     9   ar
    25     8    10   ar
    26    35    34    1
    27    34    31    1
    28     9    11   ar
    29    30    31    1
    30    10    11   ar
    31    31    32    1
    32    32    33    2
    33    11    12    1
    34   171   169   ar
    35   170   169   ar
    36   169   168    1
    37   197   195    1
    38   196   194    1
    39   195   194    1
    40   168   167    1
    41   194   191    1
    42   215   214   ar
    43   180   178   ar
    44   167   164    1
    45   191   192    1
    46   191   190    1
    47   214   213    1
    48   214   216   ar
    49   210   213    1
    50   210   209    1
    51   210   211    1
    52   193   192    2
    53   178   177    1
    54   178   179   ar
    55   166   165    2
    56   192   198   am
    57   164   165    1
    58   164   163    1
    59   165   172   am
    60   177   176    1
    61   212   211    2
    62   172   173    1
    63   173   176    1
    64   173   174    1
    65    87    86    2
    66    76    74    1
    67   198   199    1
    68    91    90   ar
    69   163   158   am
    70   175   174    2
    71   174   181   am
    72    84    85    1
    73    84    79   am
    74   199   200    1
    75   199   202    1
    76    86    85    1
    77    85    88    1
    78    90    92   ar
    79    90    89    1
    80    80    79    2
    81    73    72    2
    82    74    75    1
    83    74    71    1
    84   200   201    2
    85    70    71    1
    86   158   159    2
    87   158   157    1
    88    79    78    1
    89   181   182    1
    90   202   203    1
    91    71    72    1
    92    72    77   am
    93    88    89    1
    94   183   184    2
    95   183   182    1
    96   157   160    1
    97   157   156    1
    98   160   161    1
    99   160   162    1
   100   204   203   ar
   101   204   206   ar
   102   182   185    1
   103    78    77    1
   104    78    81    1
   105    77    83    1
   106   203   205   ar
   107   206   208   ar
   108    83    82    1
   109    81    82    1
   110   185   186    1
   111   205   207   ar
   112   208   207   ar
   113   186   187    1
   114   187   188    2
   115   187   189   am
   116   153   155    1
   117   153   152    1
   118   135   133    1
   119   134   133    1
   120   154   152    1
   121   149   152    1
   122   149   148    1
   123   149   150    1
   124   151   150    2
   125   133   130    1
   126    99    97    1
   127    97    98    1
   128    97    94    1
   129   130   131    1
   130   130   129    1
   131   132   131    2
   132    93    94    1
   133   131   136   am
   134    94    95    1
   135    95    96    2
   136    58    59    2
   137    58    57    1
   138    55    54    1
   139    68    66   ar
   140    68    69   ar
   141   136   137    1
   142   128   126    1
   143    66    63   ar
   144    57    56    1
   145    57    60    1
   146   118   119    1
   147   123   124    1
   148   123   122    1
   149   125   126    2
   150   125   124    1
   151   119   122    1
   152   119   120    1
   153   117   115    1
   154    54    53   ar
   155    54    52   ar
   156   139   138    2
   157   126   127    1
   158   137   138    1
   159   137   140    1
   160    69    67   ar
   161    53    51   ar
   162   115   116    1
   163   115   112    1
   164   121   120    2
   165    60    61    1
   166    63    61   ar
   167    63    65   ar
   168    52    50   ar
   169    61    62   ar
   170   100   101    1
   171    51    49   ar
   172    67    65   ar
   173   140   141    1
   174   111   112    1
   175   111   102   am
   176    65    64   ar
   177   112   113    1
   178    50    49   ar
   179   113   114    2
   180    42    40    1
   181   104   101    1
   182   104   105    1
   183    49    48    1
   184    62    64   ar
   185   141   142   ar
   186   141   143   ar
   187   101   102    1
   188   142   144   ar
   189   102   103    2
   190   107   105   ar
   191   107   109   ar
   192   143   145   ar
   193    39    38    2
   194   105   106   ar
   195    43    41    1
   196   144   146   ar
   197    40    41    1
   198    40    37    1
   199    48    45    1
   200   145   146   ar
   201   109   110   ar
   202   146   147    1
   203    38    37    1
   204    37    36    1
   205   106   108   ar
   206    46    45    1
   207    46    47    2
   208    45    44    1
   209   110   108   ar
