@<TRIPOS>MOLECULE
tmp/3qcmA01.pdb
 94 88 0 0 0
SMALL
GASTEIGER

@<TRIPOS>ATOM
      1  N          8.8950   20.3590   41.4030 N.3    56  TYR56      -0.1241
      2  CA         8.0520   20.2280   40.2220 C.3    56  TYR56       0.1605
      3  C          7.3700   18.8680   40.2790 C.2    56  TYR56       0.2264
      4  O          8.0410   17.8710   40.5720 O.2    56  TYR56      -0.2867
      5  CB         8.8510   20.4000   38.9100 C.3    56  TYR56       0.0534
      6  CG         9.6680   21.6790   38.8280 C.ar   56  TYR56      -0.0201
      7  CD1        9.0780   22.8910   38.4660 C.ar   56  TYR56      -0.0009
      8  CD2       11.0250   21.6800   39.1270 C.ar   56  TYR56      -0.0009
      9  CE1        9.8310   24.0710   38.3870 C.ar   56  TYR56       0.0417
     10  CE2       11.7760   22.8540   39.0820 C.ar   56  TYR56       0.0417
     11  CZ        11.1830   24.0450   38.6890 C.ar   56  TYR56       0.1957
     12  OH        11.9290   25.2070   38.6150 O.3    56  TYR56      -0.2866
     13  N          6.2420   16.8260   38.0340 N.3    58  ASN58      -0.1225
     14  CA         6.7350   15.9190   37.0050 C.3    58  ASN58       0.1785
     15  C          8.2150   15.5490   37.1510 C.2    58  ASN58       0.2597
     16  O          8.6850   14.7000   36.3950 O.2    58  ASN58      -0.2718
     17  CB         6.4710   16.5340   35.6110 C.3    58  ASN58       0.1169
     18  CG         7.1620   17.8700   35.3850 C.2    58  ASN58       0.2627
     19  OD1        7.0690   18.7980   36.2110 O.2    58  ASN58      -0.2716
     20  ND2        7.8700   17.9950   34.2640 N.am   58  ASN58      -0.0877
     21  N          8.9600   16.2080   38.0590 N.am   59  ILE59      -0.1980
     22  CA        10.3850   15.9240   38.2700 C.3    59  ILE59       0.1595
     23  C         10.5120   15.0080   39.4620 C.2    59  ILE59       0.2287
     24  O         10.4590   15.4310   40.6190 O.2    59  ILE59      -0.2864
     25  CB        11.3150   17.1780   38.3220 C.3    59  ILE59       0.0276
     26  CG1       11.1250   18.1130   37.0960 C.3    59  ILE59       0.0022
     27  CG2       12.8000   16.7800   38.5560 C.3    59  ILE59       0.0022
     28  CD1       11.3950   17.5030   35.7060 C.3    59  ILE59       0.0001
     29  N         13.9310   30.0410   41.3820 N.3   134  LYS134     -0.1245
     30  CA        14.5770   28.8070   40.9250 C.3   134  LYS134      0.1561
     31  C         14.9850   27.8960   42.0660 C.2   134  LYS134      0.2260
     32  O         14.8450   26.6810   41.9600 O.2   134  LYS134     -0.2867
     33  CB        15.7880   29.1150   40.0110 C.3   134  LYS134      0.0271
     34  CG        15.5080   30.0070   38.7940 C.3   134  LYS134      0.0035
     35  CD        14.1900   29.7020   38.0510 C.3   134  LYS134      0.0206
     36  CE        14.2770   28.5490   37.0980 C.3   134  LYS134      0.1093
     37  NZ        12.9230   27.9720   36.8040 N.3   134  LYS134     -0.1314
     38  N         20.5670   22.2230   40.5470 N.3   223  CYS223     -0.1221
     39  CA        20.2330   23.4670   39.8340 C.3   223  CYS223      0.1808
     40  C         18.8200   23.8130   40.3680 C.2   223  CYS223      0.2602
     41  O         18.6780   23.8650   41.5920 O.2   223  CYS223     -0.2717
     42  CB        20.3050   23.3240   38.3080 C.3   223  CYS223      0.0970
     43  SG        19.4940   21.8510   37.6260 S.3   223  CYS223     -0.0800
     44  N         17.7750   23.9440   39.5360 N.am  224  SER224     -0.1938
     45  CA        16.4330   24.1590   40.0880 C.3   224  SER224      0.2055
     46  C         15.7050   22.7840   40.2390 C.2   224  SER224      0.2642
     47  O         15.4620   22.3150   41.3580 O.2   224  SER224     -0.2714
     48  CB        15.6460   25.1420   39.2230 C.3   224  SER224      0.2130
     49  OG        14.3620   25.3920   39.7750 O.3   224  SER224     -0.2179
     50  N         15.4200   22.1180   39.1180 N.am  225  ALA225     -0.1977
     51  CA        14.7800   20.7970   39.1080 C.3   225  ALA225      0.1597
     52  C         15.7680   19.6950   39.4380 C.2   225  ALA225      0.2287
     53  O         15.3350   18.6060   39.8000 O.2   225  ALA225     -0.2864
     54  CB        14.1490   20.5220   37.7370 C.3   225  ALA225      0.0319
     55  N         17.9460   18.5160   37.0770 N.3   227  VAL227     -0.1231
     56  CA        18.0110   17.6650   35.8800 C.3   227  VAL227      0.1692
     57  C         18.8260   18.2260   34.7300 C.2   227  VAL227      0.2593
     58  O         19.7110   17.5310   34.2020 O.2   227  VAL227     -0.2718
     59  CB        16.6130   17.1000   35.4290 C.3   227  VAL227      0.0266
     60  CG1       15.9530   16.3220   36.5490 C.3   227  VAL227      0.0020
     61  CG2       15.6610   18.1850   34.9200 C.3   227  VAL227      0.0020
     62  N         18.5350   19.4830   34.3790 N.am  228  GLY228     -0.1942
     63  CA        19.1130   20.1730   33.2290 C.3   228  GLY228      0.2014
     64  C         20.5810   20.4630   33.3130 C.2   228  GLY228      0.2638
     65  O         21.3890   19.7350   32.7470 O.2   228  GLY228     -0.2714
     66  N         20.9290   21.5370   34.0200 N.am  229  ARG229     -0.1977
     67  CA        22.3110   21.9490   34.2380 C.3   229  ARG229      0.1597
     68  C         23.0740   20.9180   35.0630 C.2   229  ARG229      0.2287
     69  O         24.2780   20.7670   34.8680 O.2   229  ARG229     -0.2864
     70  CB        22.3570   23.3180   34.9040 C.3   229  ARG229      0.0334
     71  CG        21.8540   24.4550   34.0300 C.3   229  ARG229      0.0492
     72  CD        21.2850   25.5640   34.8970 C.3   229  ARG229      0.2205
     73  NE        20.7430   26.6700   34.1190 N.pl3 229  ARG229     -0.0865
     74  CZ        20.2690   27.8030   34.6430 C.cat 229  ARG229      0.5346
     75  NH1       20.2920   27.9980   35.9520 N.pl3 229  ARG229      0.1354
     76  NH2       19.7710   28.7500   33.8590 N.pl3 229  ARG229      0.1354
     77  N         18.3260   18.2510   30.0730 N.3   267  GLN267     -0.1245
     78  CA        16.9110   18.4350   29.7980 C.3   267  GLN267      0.1566
     79  C         16.5420   19.0200   28.4330 C.2   267  GLN267      0.2260
     80  O         15.4500   18.7380   27.9250 O.2   267  GLN267     -0.2867
     81  CB        16.2780   19.1910   30.9660 C.3   267  GLN267      0.0367
     82  CG        14.7840   19.0040   31.1050 C.3   267  GLN267      0.0905
     83  CD        14.0660   20.2910   30.8410 C.2   267  GLN267      0.2608
     84  OE1       14.3520   21.3270   31.4490 O.2   267  GLN267     -0.2717
     85  NE2       13.1200   20.2570   29.9240 N.am  267  GLN267     -0.0878
     86  N         21.3070   22.3380   25.9050 N.3   271  GLN271     -0.1245
     87  CA        22.2650   21.8150   26.8990 C.3   271  GLN271      0.1566
     88  C         23.0980   20.6800   26.2980 C.2   271  GLN271      0.2260
     89  O         24.2990   20.6110   26.5410 O.2   271  GLN271     -0.2867
     90  CB        21.5450   21.3240   28.1630 C.3   271  GLN271      0.0367
     91  CG        21.0140   22.5000   28.9980 C.3   271  GLN271      0.0905
     92  CD        19.9380   22.1130   29.9580 C.2   271  GLN271      0.2608
     93  OE1       19.4630   20.9680   30.0150 O.2   271  GLN271     -0.2717
     94  NE2       19.4590   23.0950   30.6830 N.am  271  GLN271     -0.0878
@<TRIPOS>BOND
     1    86    87    1
     2    88    89    2
     3    88    87    1
     4    87    90    1
     5    80    79    2
     6    90    91    1
     7    79    78    1
     8    91    92    1
     9    78    77    1
    10    78    81    1
    11    85    83   am
    12    92    93    2
    13    92    94   am
    14    83    82    1
    15    83    84    2
    16    81    82    1
    17    65    64    2
    18    63    64    1
    19    63    62    1
    20    64    66   am
    21    76    74    1
    22    66    67    1
    23    71    72    1
    24    71    70    1
    25    73    74    2
    26    73    72    1
    27    58    57    2
    28    67    70    1
    29    67    68    1
    30    20    18   am
    31    62    57   am
    32    74    75    1
    33    57    56    1
    34    69    68    2
    35    61    59    1
    36    18    17    1
    37    18    19    2
    38    59    56    1
    39    59    60    1
    40    17    14    1
    41    28    26    1
    42    56    55    1
    43    16    15    2
    44    37    36    1
    45    14    15    1
    46    14    13    1
    47    26    25    1
    48    36    35    1
    49    15    21   am
    50    43    42    1
    51    54    51    1
    52    35    34    1
    53    21    22    1
    54    22    25    1
    55    22    23    1
    56    42    39    1
    57    25    27    1
    58     9     7   ar
    59     9    11   ar
    60     7     6   ar
    61    12    11    1
    62    11    10   ar
    63    34    33    1
    64     6     5    1
    65     6     8   ar
    66     5     2    1
    67    10     8   ar
    68    51    50    1
    69    51    52    1
    70    50    46   am
    71    48    49    1
    72    48    45    1
    73    52    53    2
    74    23    24    2
    75    44    45    1
    76    44    40   am
    77    39    40    1
    78    39    38    1
    79    33    30    1
    80    45    46    1
    81     2     3    1
    82     2     1    1
    83    46    47    2
    84     3     4    2
    85    40    41    2
    86    30    29    1
    87    30    31    1
    88    32    31    2
