@<TRIPOS>MOLECULE
tmp/3qcqA00.pdb
 152 140 0 0 0
SMALL
GASTEIGER

@<TRIPOS>ATOM
      1  N        -39.8290   17.2970   18.9820 N.3    16  LEU16      -0.1231
      2  CA       -39.2260   17.2530   17.6470 C.3    16  LEU16       0.1693
      3  C        -39.6610   18.4640   16.8280 C.2    16  LEU16       0.2593
      4  O        -38.9660   18.8960   15.9180 O.2    16  LEU16      -0.2718
      5  CB       -39.6370   15.9760   16.9040 C.3    16  LEU16       0.0284
      6  CG       -39.2820   14.6360   17.5510 C.3    16  LEU16       0.0019
      7  CD1      -39.9350   13.4840   16.8020 C.3    16  LEU16       0.0001
      8  CD2      -37.7790   14.4690   17.5700 C.3    16  LEU16       0.0001
      9  N        -40.8210   19.0210   17.1430 N.am   17  GLY17      -0.1942
     10  CA       -41.2850   20.1600   16.3820 C.3    17  GLY17       0.2014
     11  C        -42.4080   20.9020   17.0660 C.2    17  GLY17       0.2639
     12  O        -43.1710   20.3320   17.8550 O.2    17  GLY17      -0.2714
     13  N        -42.5110   22.1880   16.7610 N.am   18  GLU18      -0.1963
     14  CA       -43.5450   23.0090   17.3590 C.3    18  GLU18       0.1733
     15  C        -44.2560   23.8150   16.2950 C.2    18  GLU18       0.2616
     16  O        -43.6320   24.3920   15.4250 O.2    18  GLU18      -0.2715
     17  CB       -42.9500   23.9090   18.4500 C.3    18  GLU18       0.0429
     18  CG       -42.2830   23.1080   19.5750 C.3    18  GLU18       0.1163
     19  CD       -42.1340   23.8690   20.8760 C.2    18  GLU18       0.3649
     20  OE1      -40.9970   24.2930   21.1770 O.co2  18  GLU18      -0.2457
     21  OE2      -43.1430   24.0330   21.6020 O.co2  18  GLU18      -0.2457
     22  N        -45.5750   23.8150   16.3390 N.am   19  GLY19      -0.1955
     23  CA       -46.3390   24.6430   15.4300 C.3    19  GLY19       0.1869
     24  C        -47.3950   25.4090   16.1990 C.2    19  GLY19       0.2309
     25  O        -47.5080   25.2790   17.4230 O.2    19  GLY19      -0.2863
     26  N        -50.0290   22.5420   17.1280 N.3    22  SER22      -0.1217
     27  CA       -49.5500   21.1970   17.3690 C.3    22  SER22       0.1889
     28  C        -48.1090   21.1890   17.8380 C.2    22  SER22       0.2288
     29  O        -47.3470   22.1200   17.5720 O.2    22  SER22      -0.2866
     30  CB       -49.6340   20.3740   16.0820 C.3    22  SER22       0.2089
     31  OG       -48.5600   20.7160   15.2190 O.3    22  SER22      -0.2183
     32  N        -44.8680   18.1570   18.0350 N.3    24  VAL24      -0.1245
     33  CA       -44.4320   16.7990   17.7150 C.3    24  VAL24       0.1561
     34  C        -43.4460   16.2940   18.7600 C.2    24  VAL24       0.2260
     35  O        -42.4830   16.9810   19.0930 O.2    24  VAL24      -0.2867
     36  CB       -43.8260   16.7130   16.3190 C.3    24  VAL24       0.0252
     37  CG1      -43.6400   15.2150   15.8950 C.3    24  VAL24       0.0019
     38  CG2      -44.7180   17.4730   15.3340 C.3    24  VAL24       0.0019
     39  N        -42.7530    9.5190   15.8270 N.3    37  ALA37      -0.1245
     40  CA       -42.8780   10.9380   16.0690 C.3    37  ALA37       0.1562
     41  C        -44.3610   11.2160   16.2470 C.2    37  ALA37       0.2260
     42  O        -45.1210   11.1720   15.2780 O.2    37  ALA37      -0.2867
     43  CB       -42.3180   11.7220   14.8950 C.3    37  ALA37       0.0290
     44  N        -47.5100   13.4010   16.7310 N.3    39  LYS39      -0.1245
     45  CA       -48.0450   14.7440   16.6040 C.3    39  LYS39       0.1561
     46  C        -49.2470   14.9230   17.5280 C.2    39  LYS39       0.2260
     47  O        -50.2490   14.2230   17.3990 O.2    39  LYS39      -0.2867
     48  CB       -48.4160   15.0390   15.1540 C.3    39  LYS39       0.0271
     49  CG       -48.7780   16.4870   14.9030 C.3    39  LYS39       0.0035
     50  CD       -48.9220   16.7500   13.4210 C.3    39  LYS39       0.0206
     51  CE       -49.2410   18.2170   13.1300 C.3    39  LYS39       0.1093
     52  NZ       -49.2090   18.4820   11.6550 N.3    39  LYS39      -0.1314
     53  N        -55.2740   16.7030    6.7840 N.3    58  GLU58      -0.1245
     54  CA       -53.9680   16.1030    7.0150 C.3    58  GLU58       0.1567
     55  C        -54.0790   14.6020    7.2810 C.2    58  GLU58       0.2260
     56  O        -53.3280   13.8110    6.7210 O.2    58  GLU58      -0.2867
     57  CB       -53.2410   16.7900    8.1690 C.3    58  GLU58       0.0388
     58  CG       -51.9430   16.1000    8.5570 C.3    58  GLU58       0.1160
     59  CD       -51.0470   16.9540    9.4490 C.2    58  GLU58       0.3649
     60  OE1      -51.5640   17.6070   10.3810 O.co2  58  GLU58      -0.2457
     61  OE2      -49.8190   16.9660    9.2200 O.co2  58  GLU58      -0.2457
     62  N        -52.5380   11.8590    4.6510 N.3    62  MET62      -0.1245
     63  CA       -51.3910   11.0570    5.0760 C.3    62  MET62       0.1570
     64  C        -51.7260    9.5680    5.1450 C.2    62  MET62       0.2261
     65  O        -50.8430    8.7290    5.3240 O.2    62  MET62      -0.2867
     66  CB       -50.8350   11.5550    6.4170 C.3    62  MET62       0.0387
     67  CG       -50.4910   13.0400    6.4000 C.3    62  MET62       0.0595
     68  SD       -49.3660   13.6060    7.6870 S.3    62  MET62      -0.1393
     69  CE       -47.8630   12.7760    7.2100 C.3    62  MET62       0.0692
     70  N        -43.3410   10.8890    4.9900 N.3    71  VAL71      -0.1245
     71  CA       -43.6160   10.5160    6.3560 C.3    71  VAL71       0.1561
     72  C        -44.9520    9.7900    6.3730 C.2    71  VAL71       0.2260
     73  O        -45.8860   10.1700    5.6820 O.2    71  VAL71      -0.2867
     74  CB       -43.6540   11.7630    7.2540 C.3    71  VAL71       0.0252
     75  CG1      -44.8050   12.6300    6.8540 C.3    71  VAL71       0.0019
     76  CG2      -43.7730   11.3870    8.7080 C.3    71  VAL71       0.0019
     77  N        -46.5170    9.1820   13.5950 N.3    87  LEU87      -0.1231
     78  CA       -45.8280    9.4590   12.3430 C.3    87  LEU87       0.1693
     79  C        -44.4590    8.7970   12.2580 C.2    87  LEU87       0.2593
     80  O        -43.8560    8.4880   13.2820 O.2    87  LEU87      -0.2718
     81  CB       -45.6440   10.9610   12.1880 C.3    87  LEU87       0.0284
     82  CG       -46.8980   11.8190   12.2340 C.3    87  LEU87       0.0019
     83  CD1      -46.5130   13.2900   12.0610 C.3    87  LEU87       0.0001
     84  CD2      -47.8330   11.3600   11.1410 C.3    87  LEU87       0.0001
     85  N        -43.9680    8.5890   11.0360 N.am   88  SER88      -0.1938
     86  CA       -42.5780    8.1720   10.8390 C.3    88  SER88       0.2055
     87  C        -41.6610    9.0890   11.6420 C.2    88  SER88       0.2643
     88  O        -41.9020   10.2880   11.7350 O.2    88  SER88      -0.2714
     89  CB       -42.1780    8.2300    9.3610 C.3    88  SER88       0.2130
     90  OG       -42.9690    7.3550    8.5660 O.3    88  SER88      -0.2179
     91  N        -40.6090    8.5230   12.2170 N.am   89  TYR89      -0.1959
     92  CA       -39.6030    9.3110   12.8970 C.3    89  TYR89       0.1771
     93  C        -38.3780    9.5390   11.9920 C.2    89  TYR89       0.2619
     94  O        -37.6120    8.6190   11.7130 O.2    89  TYR89      -0.2715
     95  CB       -39.2210    8.6580   14.2400 C.3    89  TYR89       0.0574
     96  CG       -38.0150    9.2810   14.9160 C.ar   89  TYR89      -0.0198
     97  CD1      -37.8310   10.6600   14.9090 C.ar   89  TYR89      -0.0009
     98  CD2      -37.0720    8.4980   15.5790 C.ar   89  TYR89      -0.0009
     99  CE1      -36.7310   11.2450   15.5110 C.ar   89  TYR89       0.0417
    100  CE2      -35.9750    9.0760   16.1940 C.ar   89  TYR89       0.0417
    101  CZ       -35.8090   10.4630   16.1550 C.ar   89  TYR89       0.1957
    102  OH       -34.7260   11.0930   16.7520 O.3    89  TYR89      -0.2866
    103  N        -38.2060   10.7720   11.5310 N.am   90  ALA90      -0.1977
    104  CA       -37.0550   11.1140   10.6990 C.3    90  ALA90       0.1597
    105  C        -35.9230   11.5430   11.5960 C.2    90  ALA90       0.2287
    106  O        -35.8420   12.6950   12.0070 O.2    90  ALA90      -0.2864
    107  CB       -37.4000   12.2220    9.7060 C.3    90  ALA90       0.0319
    108  N        -33.7590   14.7990   11.0990 N.3    93  GLY93      -0.1210
    109  CA       -34.4330   16.0840   11.1230 C.3    93  GLY93       0.1956
    110  C        -34.5590   16.7770    9.7740 C.2    93  GLY93       0.2611
    111  O        -34.6920   16.1220    8.7400 O.2    93  GLY93      -0.2717
    112  N        -34.5040   18.1070    9.7930 N.am   94  GLU94      -0.1979
    113  CA       -34.8150   18.9160    8.6150 C.3    94  GLU94       0.1602
    114  C        -33.6750   19.0470    7.6300 C.2    94  GLU94       0.2287
    115  O        -32.5090   19.1420    8.0010 O.2    94  GLU94      -0.2864
    116  CB       -35.2720   20.3280    9.0110 C.3    94  GLU94       0.0415
    117  CG       -36.5320   20.3690    9.8610 C.3    94  GLU94       0.1163
    118  CD       -36.8270   21.7580   10.4060 C.2    94  GLU94       0.3649
    119  OE1      -37.7000   21.8860   11.2930 O.co2  94  GLU94      -0.2457
    120  OE2      -36.1860   22.7250    9.9470 O.co2  94  GLU94      -0.2457
    121  N        -37.9820   22.9000    5.6880 N.3   137  GLU137     -0.1245
    122  CA       -38.4070   22.5550    7.0490 C.3   137  GLU137      0.1567
    123  C        -39.3230   21.3220    7.0490 C.2   137  GLU137      0.2260
    124  O        -39.3480   20.5460    8.0090 O.2   137  GLU137     -0.2867
    125  CB       -39.1240   23.7440    7.7100 C.3   137  GLU137      0.0388
    126  CG       -38.2800   25.0110    7.8440 C.3   137  GLU137      0.1160
    127  CD       -38.2160   25.8630    6.5640 C.2   137  GLU137      0.3649
    128  OE1      -37.8830   25.3400    5.4750 O.co2 137  GLU137     -0.2457
    129  OE2      -38.4780   27.0820    6.6580 O.co2 137  GLU137     -0.2457
    130  N        -37.7810   16.1630    5.5000 N.3   140  LEU140     -0.1245
    131  CA       -37.0290   15.5550    6.5820 C.3   140  LEU140      0.1561
    132  C        -36.0290   14.5540    6.0470 C.2   140  LEU140      0.2260
    133  O        -36.1580   14.0720    4.9290 O.2   140  LEU140     -0.2867
    134  CB       -37.9770   14.8800    7.5610 C.3   140  LEU140      0.0270
    135  CG       -39.1620   15.7250    8.0200 C.3   140  LEU140      0.0019
    136  CD1      -39.7940   15.0720    9.2270 C.3   140  LEU140      0.0001
    137  CD2      -38.7390   17.1590    8.3320 C.3   140  LEU140      0.0001
    138  N        -43.0610   15.8850    5.0810 N.3   150  THR150     -0.1203
    139  CA       -44.1430   15.8470    6.0530 C.3   150  THR150      0.1994
    140  C        -45.0350   17.0930    6.0270 C.2   150  THR150      0.2617
    141  O        -44.9070   17.9330    5.1310 O.2   150  THR150     -0.2717
    142  CB       -43.5890   15.6340    7.4710 C.3   150  THR150      0.1784
    143  OG1      -44.6750   15.4030    8.3860 O.3   150  THR150     -0.2211
    144  CG2      -42.7620   16.8490    7.9060 C.3   150  THR150      0.0376
    145  N        -45.9460   17.1800    7.0040 N.am  151  ASP151     -0.1973
    146  CA       -46.7700   18.3740    7.2500 C.3   151  ASP151      0.1709
    147  C        -47.7820   18.6510    6.1400 C.2   151  ASP151      0.2293
    148  O        -47.5310   19.4740    5.2450 O.2   151  ASP151     -0.2864
    149  CB       -45.8830   19.6070    7.4900 C.3   151  ASP151      0.1436
    150  CG       -46.6740   20.8330    7.9410 C.2   151  ASP151      0.3671
    151  OD1      -47.8880   20.7230    8.2450 O.co2 151  ASP151     -0.2456
    152  OD2      -46.0660   21.9190    7.9940 O.co2 151  ASP151     -0.2456
@<TRIPOS>BOND
     1    62    63    1
     2   133   132    2
     3    70    71    1
     4    63    64    1
     5    63    66    1
     6   138   139    1
     7   141   140    2
     8    64    65    2
     9   148   147    2
    10   128   127   ar
    11   130   131    1
    12    73    72    2
    13   121   122    1
    14   140   139    1
    15   140   145   am
    16   132   131    1
    17   139   142    1
    18   147   146    1
    19    71    72    1
    20    71    74    1
    21    67    66    1
    22    67    68    1
    23   127   129   ar
    24   127   126    1
    25   131   134    1
    26    56    55    2
    27    53    54    1
    28    75    74    1
    29   145   146    1
    30    54    55    1
    31    54    57    1
    32   123   122    1
    33   123   124    2
    34   122   125    1
    35    69    68    1
    36   146   149    1
    37    74    76    1
    38   142   144    1
    39   142   143    1
    40   149   150    1
    41   134   135    1
    42   114   115    2
    43   114   113    1
    44   125   126    1
    45   150   152   ar
    46   150   151   ar
    47   135   137    1
    48   135   136    1
    49    57    58    1
    50    58    59    1
    51    90    89    1
    52   113   116    1
    53   113   112    1
    54   111   110    2
    55   116   117    1
    56    61    59   ar
    57    89    86    1
    58    59    60   ar
    59   107   104    1
    60   110   112   am
    61   110   109    1
    62   117   118    1
    63   120   118   ar
    64   118   119   ar
    65   104   103    1
    66   104   105    1
    67    86    85    1
    68    86    87    1
    69    85    79   am
    70   108   109    1
    71    84    82    1
    72   103    93   am
    73   105   106    2
    74    87    88    2
    75    87    91   am
    76    52    51    1
    77    94    93    2
    78    93    92    1
    79    83    82    1
    80    81    82    1
    81    81    78    1
    82    91    92    1
    83    79    78    1
    84    79    80    2
    85    78    77    1
    86    92    95    1
    87    51    50    1
    88    50    49    1
    89    95    96    1
    90    43    40    1
    91    49    48    1
    92    97    96   ar
    93    97    99   ar
    94    96    98   ar
    95    48    45    1
    96    31    30    1
    97    42    41    2
    98    38    36    1
    99    16    15    2
   100    23    24    1
   101    23    22    1
   102    99   101   ar
   103    98   100   ar
   104    39    40    1
   105    37    36    1
   106     4     3    2
   107    40    41    1
   108    30    27    1
   109   101   100   ar
   110   101   102    1
   111    24    25    2
   112    15    22   am
   113    15    14    1
   114    36    33    1
   115    10    11    1
   116    10     9    1
   117    45    44    1
   118    45    46    1
   119    13    11   am
   120    13    14    1
   121     7     6    1
   122     3     9   am
   123     3     2    1
   124     5     6    1
   125     5     2    1
   126    11    12    2
   127    26    27    1
   128    14    17    1
   129    27    28    1
   130    47    46    2
   131     6     8    1
   132    29    28    2
   133     2     1    1
   134    33    32    1
   135    33    34    1
   136    17    18    1
   137    34    35    2
   138    18    19    1
   139    19    20   ar
   140    19    21   ar
