@<TRIPOS>MOLECULE
tmp/3qcsA00.pdb
 143 132 0 0 0
SMALL
GASTEIGER

@<TRIPOS>ATOM
      1  N        -39.9660   17.2580   18.9520 N.3    16  LEU16      -0.1231
      2  CA       -39.3710   17.1900   17.6180 C.3    16  LEU16       0.1693
      3  C        -39.8020   18.3730   16.7520 C.2    16  LEU16       0.2593
      4  O        -39.1130   18.7570   15.8140 O.2    16  LEU16      -0.2718
      5  CB       -39.7550   15.8810   16.9240 C.3    16  LEU16       0.0284
      6  CG       -39.3730   14.5750   17.6240 C.3    16  LEU16       0.0019
      7  CD1      -39.9250   13.3860   16.8690 C.3    16  LEU16       0.0001
      8  CD2      -37.8740   14.4700   17.7240 C.3    16  LEU16       0.0001
      9  N        -40.9480   18.9560   17.0650 N.am   17  GLY17      -0.1942
     10  CA       -41.4500   20.0540   16.2660 C.3    17  GLY17       0.2014
     11  C        -42.5950   20.7760   16.9400 C.2    17  GLY17       0.2639
     12  O        -43.2700   20.2220   17.8080 O.2    17  GLY17      -0.2714
     13  N        -42.8130   22.0220   16.5350 N.am   18  GLU18      -0.1963
     14  CA       -43.8460   22.8440   17.1370 C.3    18  GLU18       0.1733
     15  C        -44.5360   23.6850   16.0840 C.2    18  GLU18       0.2616
     16  O        -43.8880   24.3170   15.2630 O.2    18  GLU18      -0.2715
     17  CB       -43.2390   23.7520   18.2060 C.3    18  GLU18       0.0429
     18  CG       -42.1630   23.0790   19.0420 C.3    18  GLU18       0.1163
     19  CD       -42.0610   23.6450   20.4410 C.2    18  GLU18       0.3649
     20  OE1      -40.9540   24.0800   20.8230 O.co2  18  GLU18      -0.2457
     21  OE2      -43.0830   23.6520   21.1600 O.co2  18  GLU18      -0.2457
     22  N        -45.8600   23.6840   16.1050 N.am   19  GLY19      -0.1955
     23  CA       -46.6230   24.5390   15.2210 C.3    19  GLY19       0.1869
     24  C        -47.6080   25.3480   16.0410 C.2    19  GLY19       0.2309
     25  O        -47.6550   25.2240   17.2650 O.2    19  GLY19      -0.2863
     26  N        -50.0800   22.5650   17.1560 N.3    22  SER22      -0.1217
     27  CA       -49.6140   21.2210   17.4360 C.3    22  SER22       0.1889
     28  C        -48.1880   21.1820   17.9460 C.2    22  SER22       0.2288
     29  O        -47.4200   22.1280   17.7810 O.2    22  SER22      -0.2866
     30  CB       -49.7420   20.3360   16.1940 C.3    22  SER22       0.2089
     31  OG       -48.6660   20.5530   15.3010 O.3    22  SER22      -0.2183
     32  N        -44.9940   18.1370   18.1340 N.3    24  VAL24      -0.1245
     33  CA       -44.5670   16.7870   17.8030 C.3    24  VAL24       0.1561
     34  C        -43.5850   16.2770   18.8570 C.2    24  VAL24       0.2260
     35  O        -42.5970   16.9360   19.1760 O.2    24  VAL24      -0.2867
     36  CB       -43.9800   16.7040   16.3840 C.3    24  VAL24       0.0252
     37  CG1      -43.8300   15.2350   15.9540 C.3    24  VAL24       0.0019
     38  CG2      -44.8810   17.4590   15.4050 C.3    24  VAL24       0.0019
     39  N        -42.9460    9.5390   15.8550 N.3    37  ALA37      -0.1245
     40  CA       -43.1080   10.9620   16.0640 C.3    37  ALA37       0.1562
     41  C        -44.5900   11.2010   16.2650 C.2    37  ALA37       0.2260
     42  O        -45.3550   11.1750   15.3090 O.2    37  ALA37      -0.2867
     43  CB       -42.5980   11.7460   14.8540 C.3    37  ALA37       0.0290
     44  N        -47.6870   13.4150   16.7920 N.3    39  LYS39      -0.1245
     45  CA       -48.2060   14.7660   16.6810 C.3    39  LYS39       0.1561
     46  C        -49.4030   14.9520   17.6220 C.2    39  LYS39       0.2260
     47  O        -50.4200   14.2690   17.4940 O.2    39  LYS39      -0.2867
     48  CB       -48.6050   15.0420   15.2400 C.3    39  LYS39       0.0271
     49  CG       -48.9720   16.4690   14.9660 C.3    39  LYS39       0.0035
     50  CD       -49.0960   16.6870   13.4730 C.3    39  LYS39       0.0206
     51  CE       -49.5830   18.0870   13.1510 C.3    39  LYS39       0.1093
     52  NZ       -49.3140   18.3840   11.7290 N.3    39  LYS39      -0.1314
     53  N        -55.3110   16.6470    6.7980 N.3    58  GLU58      -0.1245
     54  CA       -54.0400   15.9830    7.0660 C.3    58  GLU58       0.1567
     55  C        -54.2130   14.4900    7.3480 C.2    58  GLU58       0.2260
     56  O        -53.5470   13.6540    6.7370 O.2    58  GLU58      -0.2867
     57  CB       -53.2930   16.6510    8.2230 C.3    58  GLU58       0.0388
     58  CG       -51.9310   16.0150    8.5100 C.3    58  GLU58       0.1160
     59  CD       -51.0780   16.8200    9.4850 C.2    58  GLU58       0.3649
     60  OE1      -51.5030   17.0000   10.6450 O.co2  58  GLU58      -0.2457
     61  OE2      -49.9760   17.2630    9.0970 O.co2  58  GLU58      -0.2457
     62  N        -52.5020   11.8330    4.7910 N.3    62  MET62      -0.1245
     63  CA       -51.3460   11.0630    5.2400 C.3    62  MET62       0.1570
     64  C        -51.6680    9.5840    5.4290 C.2    62  MET62       0.2261
     65  O        -50.7730    8.7660    5.6150 O.2    62  MET62      -0.2867
     66  CB       -50.7690   11.6610    6.5230 C.3    62  MET62       0.0387
     67  CG       -50.4770   13.1430    6.3990 C.3    62  MET62       0.0595
     68  SD       -49.3360   13.7810    7.6370 S.3    62  MET62      -0.1393
     69  CE       -47.8750   12.8200    7.2740 C.3    62  MET62       0.0692
     70  N        -43.6440   10.8840    5.0770 N.3    71  VAL71      -0.1245
     71  CA       -43.8190   10.4800    6.4540 C.3    71  VAL71       0.1561
     72  C        -45.1870    9.8310    6.5200 C.2    71  VAL71       0.2260
     73  O        -46.1250   10.2590    5.8480 O.2    71  VAL71      -0.2867
     74  CB       -43.7320   11.6890    7.4050 C.3    71  VAL71       0.0252
     75  CG1      -44.7410   12.7130    7.0010 C.3    71  VAL71       0.0019
     76  CG2      -43.9700   11.2700    8.8440 C.3    71  VAL71       0.0019
     77  N        -46.7610    9.3380   13.7320 N.3    87  LEU87      -0.1231
     78  CA       -46.1060    9.5920   12.4570 C.3    87  LEU87       0.1693
     79  C        -44.7660    8.8820   12.3350 C.2    87  LEU87       0.2593
     80  O        -44.1720    8.4850   13.3340 O.2    87  LEU87      -0.2718
     81  CB       -45.9000   11.0920   12.2660 C.3    87  LEU87       0.0284
     82  CG       -47.1380   11.9780   12.3940 C.3    87  LEU87       0.0019
     83  CD1      -46.7750   13.4250   12.1150 C.3    87  LEU87       0.0001
     84  CD2      -48.2020   11.4960   11.4360 C.3    87  LEU87       0.0001
     85  N        -44.3000    8.7180   11.0990 N.am   88  SER88      -0.1938
     86  CA       -42.9510    8.2280   10.8610 C.3    88  SER88       0.2055
     87  C        -41.9820    9.1450   11.5960 C.2    88  SER88       0.2643
     88  O        -42.1410   10.3670   11.5870 O.2    88  SER88      -0.2714
     89  CB       -42.6130    8.2230    9.3640 C.3    88  SER88       0.2130
     90  OG       -43.2860    7.1870    8.6660 O.3    88  SER88      -0.2179
     91  N        -40.9860    8.5510   12.2400 N.am   89  TYR89      -0.1959
     92  CA       -39.9410    9.3100   12.8930 C.3    89  TYR89       0.1771
     93  C        -38.7270    9.4730   11.9770 C.2    89  TYR89       0.2619
     94  O        -37.9820    8.5240   11.7410 O.2    89  TYR89      -0.2715
     95  CB       -39.5320    8.6420   14.2110 C.3    89  TYR89       0.0574
     96  CG       -38.3210    9.2770   14.8600 C.ar   89  TYR89      -0.0198
     97  CD1      -38.1770   10.6620   14.8960 C.ar   89  TYR89      -0.0009
     98  CD2      -37.3310    8.5000   15.4510 C.ar   89  TYR89      -0.0009
     99  CE1      -37.0730   11.2570   15.4860 C.ar   89  TYR89       0.0417
    100  CE2      -36.2240    9.0850   16.0540 C.ar   89  TYR89       0.0417
    101  CZ       -36.1030   10.4710   16.0660 C.ar   89  TYR89       0.1957
    102  OH       -35.0210   11.0880   16.6530 O.3    89  TYR89      -0.2866
    103  N        -38.5380   10.6810   11.4610 N.am   90  ALA90      -0.1977
    104  CA       -37.3640   10.9980   10.6560 C.3    90  ALA90       0.1597
    105  C        -36.2290   11.4580   11.5640 C.2    90  ALA90       0.2287
    106  O        -36.1350   12.6340   11.9080 O.2    90  ALA90      -0.2864
    107  CB       -37.6940   12.0660    9.6300 C.3    90  ALA90       0.0319
    108  N        -34.0260   14.7740   11.0930 N.3    93  GLY93      -0.1210
    109  CA       -34.6770   16.0740   11.1220 C.3    93  GLY93       0.1956
    110  C        -34.8140   16.8230    9.8030 C.2    93  GLY93       0.2611
    111  O        -34.9370   16.2300    8.7340 O.2    93  GLY93      -0.2717
    112  N        -34.7860   18.1460    9.8860 N.am   94  GLU94      -0.1979
    113  CA       -35.1140   18.9840    8.7440 C.3    94  GLU94       0.1602
    114  C        -33.9510   19.1520    7.7740 C.2    94  GLU94       0.2287
    115  O        -32.7990   19.3100    8.1760 O.2    94  GLU94      -0.2864
    116  CB       -35.6150   20.3590    9.2110 C.3    94  GLU94       0.0415
    117  CG       -36.7820   20.2980   10.1910 C.3    94  GLU94       0.1163
    118  CD       -37.1390   21.6530   10.7880 C.2    94  GLU94       0.3649
    119  OE1      -38.0300   21.6970   11.6640 O.co2  94  GLU94      -0.2457
    120  OE2      -36.5360   22.6720   10.3880 O.co2  94  GLU94      -0.2457
    121  N        -38.0700   16.2620    5.6020 N.3   140  LEU140     -0.1245
    122  CA       -37.3010   15.6580    6.6730 C.3   140  LEU140      0.1561
    123  C        -36.3120   14.6410    6.1250 C.2   140  LEU140      0.2260
    124  O        -36.4210   14.1950    4.9820 O.2   140  LEU140     -0.2867
    125  CB       -38.2280   14.9940    7.6860 C.3   140  LEU140      0.0270
    126  CG       -39.4390   15.8060    8.1420 C.3   140  LEU140      0.0019
    127  CD1      -40.0520   15.1450    9.3640 C.3   140  LEU140      0.0001
    128  CD2      -39.0510   17.2500    8.4360 C.3   140  LEU140      0.0001
    129  N        -43.3030   15.9140    5.1630 N.3   150  THR150     -0.1203
    130  CA       -44.3800   15.8720    6.1410 C.3   150  THR150      0.1994
    131  C        -45.2560   17.1230    6.0940 C.2   150  THR150      0.2617
    132  O        -45.1120   17.9410    5.1850 O.2   150  THR150     -0.2717
    133  CB       -43.8300   15.6740    7.5650 C.3   150  THR150      0.1784
    134  OG1      -44.9150   15.4020    8.4590 O.3   150  THR150     -0.2211
    135  CG2      -43.0730   16.9070    8.0270 C.3   150  THR150      0.0376
    136  N        -46.1740   17.2380    7.0600 N.am  151  ASP151     -0.1973
    137  CA       -46.9660   18.4550    7.2880 C.3   151  ASP151      0.1709
    138  C        -48.0000   18.7310    6.1870 C.2   151  ASP151      0.2293
    139  O        -47.7570   19.5260    5.2740 O.2   151  ASP151     -0.2864
    140  CB       -46.0300   19.6540    7.4800 C.3   151  ASP151      0.1436
    141  CG       -46.7710   20.9560    7.7390 C.2   151  ASP151      0.3671
    142  OD1      -47.9970   20.9320    7.9880 O.co2 151  ASP151     -0.2456
    143  OD2      -46.1080   22.0090    7.6950 O.co2 151  ASP151     -0.2456
@<TRIPOS>BOND
     1    62    63    1
     2   124   123    2
     3    70    71    1
     4   129   130    1
     5   132   131    2
     6    63    64    1
     7    63    66    1
     8   139   138    2
     9    64    65    2
    10   121   122    1
    11    73    72    2
    12   131   130    1
    13   131   136   am
    14   123   122    1
    15   130   133    1
    16   138   137    1
    17    67    66    1
    18    67    68    1
    19    71    72    1
    20    71    74    1
    21   122   125    1
    22    56    55    2
    23    53    54    1
    24    75    74    1
    25   136   137    1
    26    54    55    1
    27    54    57    1
    28    69    68    1
    29   137   140    1
    30    74    76    1
    31   140   141    1
    32   133   135    1
    33   133   134    1
    34   125   126    1
    35   143   141   ar
    36   141   142   ar
    37   114   115    2
    38   114   113    1
    39   126   128    1
    40   126   127    1
    41    57    58    1
    42    58    59    1
    43    90    89    1
    44   111   110    2
    45   113   116    1
    46   113   112    1
    47    61    59   ar
    48   116   117    1
    49    89    86    1
    50    59    60   ar
    51   107   104    1
    52   110   112   am
    53   110   109    1
    54   117   118    1
    55   120   118   ar
    56   104   103    1
    57   104   105    1
    58   118   119   ar
    59    86    85    1
    60    86    87    1
    61   108   109    1
    62    85    79   am
    63    84    82    1
    64   103    93   am
    65   105   106    2
    66    88    87    2
    67    87    91   am
    68    52    51    1
    69    94    93    2
    70    93    92    1
    71    83    82    1
    72    91    92    1
    73    81    82    1
    74    81    78    1
    75    79    78    1
    76    79    80    2
    77    78    77    1
    78    92    95    1
    79    51    50    1
    80    50    49    1
    81    95    96    1
    82    43    40    1
    83    96    97   ar
    84    96    98   ar
    85    97    99   ar
    86    49    48    1
    87    23    24    1
    88    23    22    1
    89    48    45    1
    90    16    15    2
    91    31    30    1
    92    42    41    2
    93    38    36    1
    94    98   100   ar
    95    99   101   ar
    96     4     3    2
    97    39    40    1
    98    37    36    1
    99    24    25    2
   100   100   101   ar
   101    40    41    1
   102   101   102    1
   103    15    22   am
   104    15    14    1
   105    30    27    1
   106    10    11    1
   107    10     9    1
   108    36    33    1
   109    13    11   am
   110    13    14    1
   111    45    44    1
   112    45    46    1
   113     3     9   am
   114     3     2    1
   115     7     6    1
   116     5     2    1
   117     5     6    1
   118    11    12    2
   119    14    17    1
   120    26    27    1
   121    27    28    1
   122    47    46    2
   123     2     1    1
   124     6     8    1
   125    29    28    2
   126    33    32    1
   127    33    34    1
   128    17    18    1
   129    34    35    2
   130    18    19    1
   131    19    20   ar
   132    19    21   ar
