@<TRIPOS>MOLECULE
tmp/3qcuC00.pdb
 115 114 0 0 0
SMALL
GASTEIGER

@<TRIPOS>ATOM
      1  N         26.3950  -39.6120  -11.8420 N.3    33  LEU33      -0.1245
      2  CA        27.0110  -39.3520  -13.1580 C.3    33  LEU33       0.1561
      3  C         28.4280  -38.8320  -12.9450 C.2    33  LEU33       0.2260
      4  O         28.6200  -37.7770  -12.3470 O.2    33  LEU33      -0.2867
      5  CB        26.2140  -38.3630  -14.0200 C.3    33  LEU33       0.0270
      6  CG        24.7510  -38.7060  -14.3450 C.3    33  LEU33       0.0019
      7  CD1       24.1740  -37.6170  -15.2180 C.3    33  LEU33       0.0001
      8  CD2       24.6260  -40.0720  -15.0500 C.3    33  LEU33       0.0001
      9  N         30.8500  -38.5830  -19.9690 N.3    50  LEU50      -0.1245
     10  CA        30.0730  -38.8310  -18.7670 C.3    50  LEU50       0.1561
     11  C         29.7480  -40.3290  -18.7420 C.2    50  LEU50       0.2260
     12  O         29.5100  -40.9430  -19.7920 O.2    50  LEU50      -0.2867
     13  CB        28.7940  -37.9740  -18.8020 C.3    50  LEU50       0.0270
     14  CG        27.5840  -38.1690  -17.8910 C.3    50  LEU50       0.0019
     15  CD1       26.7770  -36.8600  -17.8600 C.3    50  LEU50       0.0001
     16  CD2       26.6930  -39.3570  -18.3430 C.3    50  LEU50       0.0001
     17  N         27.3890  -43.1860  -16.2280 N.3    52  ASN52      -0.1240
     18  CA        26.6210  -43.6560  -15.0670 C.3    52  ASN52       0.1653
     19  C         27.0730  -45.0760  -14.7550 C.2    52  ASN52       0.2266
     20  O         26.7840  -45.9880  -15.5320 O.2    52  ASN52      -0.2867
     21  CB        25.1150  -43.6780  -15.3610 C.3    52  ASN52       0.1155
     22  CG        24.3200  -44.2900  -14.2110 C.2    52  ASN52       0.2627
     23  OD1       24.5340  -43.9470  -13.0480 O.2    52  ASN52      -0.2716
     24  ND2       23.4460  -45.2170  -14.5230 N.am   52  ASN52      -0.0877
     25  N         24.3940  -48.6710  -14.9680 N.3    55  SER55      -0.1217
     26  CA        23.8940  -48.9010  -16.3100 C.3    55  SER55       0.1889
     27  C         25.0120  -48.9240  -17.3550 C.2    55  SER55       0.2288
     28  O         24.7990  -49.3670  -18.4810 O.2    55  SER55      -0.2866
     29  CB        22.9500  -47.7520  -16.6610 C.3    55  SER55       0.2089
     30  OG        23.6520  -46.5040  -16.7180 O.3    55  SER55      -0.2183
     31  N         25.8440  -46.3740  -18.8470 N.3    57  TYR57      -0.1241
     32  CA        25.4510  -45.3940  -19.8450 C.3    57  TYR57       0.1605
     33  C         26.6200  -44.4130  -19.9840 C.2    57  TYR57       0.2264
     34  O         27.1410  -43.9130  -18.9860 O.2    57  TYR57      -0.2867
     35  CB        24.1850  -44.6420  -19.4380 C.3    57  TYR57       0.0534
     36  CG        23.8490  -43.4690  -20.3450 C.ar   57  TYR57      -0.0201
     37  CD1       22.9700  -43.6160  -21.4200 C.ar   57  TYR57      -0.0009
     38  CD2       24.4090  -42.2230  -20.1240 C.ar   57  TYR57      -0.0009
     39  CE1       22.6680  -42.5300  -22.2600 C.ar   57  TYR57       0.0417
     40  CE2       24.1180  -41.1370  -20.9430 C.ar   57  TYR57       0.0417
     41  CZ        23.2490  -41.2980  -22.0080 C.ar   57  TYR57       0.1957
     42  OH        22.9730  -40.2140  -22.8040 O.3    57  TYR57      -0.2866
     43  N         25.8330  -34.0650  -11.1780 N.3   100  PHE100     -0.1227
     44  CA        24.4080  -34.1970  -11.5060 C.3   100  PHE100      0.1736
     45  C         23.7730  -35.5540  -11.2250 C.2   100  PHE100      0.2596
     46  O         24.4480  -36.5820  -11.1660 O.2   100  PHE100     -0.2718
     47  CB        24.1800  -33.8830  -12.9930 C.3   100  PHE100      0.0547
     48  CG        24.7370  -32.5780  -13.4350 C.ar  100  PHE100     -0.0202
     49  CD1       24.3210  -31.3830  -12.8440 C.ar  100  PHE100     -0.0042
     50  CD2       25.6600  -32.5280  -14.4660 C.ar  100  PHE100     -0.0042
     51  CE1       24.8490  -30.1670  -13.2580 C.ar  100  PHE100     -0.0003
     52  CE2       26.1890  -31.2940  -14.8850 C.ar  100  PHE100     -0.0003
     53  CZ        25.7820  -30.1320  -14.2910 C.ar  100  PHE100     -0.0000
     54  N         22.4520  -35.5300  -11.0630 N.am  101  GLY101     -0.1942
     55  CA        21.6280  -36.7330  -11.1010 C.3   101  GLY101      0.2014
     56  C         20.9070  -36.7470  -12.4350 C.2   101  GLY101      0.2639
     57  O         21.3990  -36.1710  -13.4150 O.2   101  GLY101     -0.2714
     58  N         19.7480  -37.3900  -12.5030 N.am  102  TYR102     -0.1959
     59  CA        18.9410  -37.2760  -13.7140 C.3   102  TYR102      0.1771
     60  C         18.1060  -35.9860  -13.6480 C.2   102  TYR102      0.2620
     61  O         17.8000  -35.4880  -12.5500 O.2   102  TYR102     -0.2715
     62  CB        18.0540  -38.5230  -13.9220 C.3   102  TYR102      0.0574
     63  CG        17.4180  -38.5640  -15.2940 C.ar  102  TYR102     -0.0198
     64  CD1       18.1610  -38.9280  -16.4230 C.ar  102  TYR102     -0.0009
     65  CD2       16.0830  -38.2290  -15.4710 C.ar  102  TYR102     -0.0009
     66  CE1       17.5760  -38.9620  -17.6950 C.ar  102  TYR102      0.0417
     67  CE2       15.4890  -38.2620  -16.7230 C.ar  102  TYR102      0.0417
     68  CZ        16.2440  -38.6190  -17.8320 C.ar  102  TYR102      0.1957
     69  OH        15.6340  -38.6520  -19.0630 O.3   102  TYR102     -0.2866
     70  N         17.7550  -35.4310  -14.8100 N.am  103  TYR103     -0.1960
     71  CA        16.8600  -34.2730  -14.8600 C.3   103  TYR103      0.1771
     72  C         15.6430  -34.5200  -13.9720 C.2   103  TYR103      0.2620
     73  O         15.1150  -35.6380  -13.9240 O.2   103  TYR103     -0.2715
     74  CB        16.4180  -33.9580  -16.3050 C.3   103  TYR103      0.0574
     75  CG        17.5710  -33.6090  -17.2540 C.ar  103  TYR103     -0.0198
     76  CD1       18.2430  -32.3790  -17.1490 C.ar  103  TYR103     -0.0009
     77  CD2       17.9890  -34.5070  -18.2500 C.ar  103  TYR103     -0.0009
     78  CE1       19.3180  -32.0420  -18.0180 C.ar  103  TYR103      0.0417
     79  CE2       19.0680  -34.1850  -19.1220 C.ar  103  TYR103      0.0417
     80  CZ        19.7150  -32.9480  -19.0050 C.ar  103  TYR103      0.1957
     81  OH        20.7740  -32.6310  -19.8360 O.3   103  TYR103     -0.2866
     82  N         15.2180  -33.4840  -13.2550 N.am  104  GLY104     -0.1940
     83  CA        14.0510  -33.5530  -12.3800 C.3   104  GLY104      0.2014
     84  C         14.3370  -34.0440  -10.9730 C.2   104  GLY104      0.2640
     85  O         13.4520  -34.0270  -10.1210 O.2   104  GLY104     -0.2714
     86  N         15.5660  -34.4950  -10.7350 N.am  105  SER105     -0.1935
     87  CA        15.9710  -35.0220   -9.4280 C.3   105  SER105      0.2055
     88  C         16.2870  -33.9090   -8.4210 C.2   105  SER105      0.2644
     89  O         16.3160  -34.1450   -7.1980 O.2   105  SER105     -0.2714
     90  CB        17.1980  -35.9300   -9.5850 C.3   105  SER105      0.2130
     91  OG        18.3590  -35.1730   -9.9810 O.3   105  SER105     -0.2179
     92  N         16.5530  -32.7090   -8.9320 N.am  106  GLY106     -0.1939
     93  CA        16.9410  -31.5820   -8.0860 C.3   106  GLY106      0.2014
     94  C         18.3490  -31.7230   -7.5220 C.2   106  GLY106      0.2639
     95  O         18.7600  -30.9400   -6.6740 O.2   106  GLY106     -0.2714
     96  N         19.0760  -32.7380   -7.9780 N.am  107  ASN107     -0.1958
     97  CA        20.4450  -32.9800   -7.5390 C.3   107  ASN107      0.1819
     98  C         21.4670  -32.0450   -8.1640 C.2   107  ASN107      0.2621
     99  O         21.6430  -32.0520   -9.3810 O.2   107  ASN107     -0.2715
    100  CB        20.8680  -34.4090   -7.8910 C.3   107  ASN107      0.1195
    101  CG        20.2180  -35.4380   -7.0140 C.2   107  ASN107      0.2630
    102  OD1       19.9520  -35.1940   -5.8460 O.2   107  ASN107     -0.2716
    103  ND2       19.9580  -36.6070   -7.5760 N.am  107  ASN107     -0.0877
    104  N         22.1460  -31.2680   -7.3210 N.am  108  TYR108     -0.1974
    105  CA        23.3390  -30.5160   -7.7270 C.3   108  TYR108      0.1639
    106  C         24.4690  -30.7840   -6.7410 C.2   108  TYR108      0.2290
    107  O         24.3410  -30.4740   -5.5550 O.2   108  TYR108     -0.2864
    108  CB        23.0160  -29.0080   -7.8680 C.3   108  TYR108      0.0560
    109  CG        22.1260  -28.8170   -9.0560 C.ar  108  TYR108     -0.0198
    110  CD1       22.6770  -28.6960  -10.3410 C.ar  108  TYR108     -0.0009
    111  CD2       20.7330  -28.8780   -8.9230 C.ar  108  TYR108     -0.0009
    112  CE1       21.8680  -28.5940  -11.4500 C.ar  108  TYR108      0.0417
    113  CE2       19.9110  -28.7650  -10.0260 C.ar  108  TYR108      0.0417
    114  CZ        20.4890  -28.6280  -11.2880 C.ar  108  TYR108      0.1957
    115  OH        19.6840  -28.5410  -12.3840 O.3   108  TYR108     -0.2866
@<TRIPOS>BOND
     1    42    41    1
     2    39    41   ar
     3    39    37   ar
     4    41    40   ar
     5    37    36   ar
     6    40    38   ar
     7    36    38   ar
     8    36    35    1
     9    33    32    1
    10    33    34    2
    11     9    10    1
    12    32    35    1
    13    32    31    1
    14    81    80    1
    15    12    11    2
    16    79    80   ar
    17    79    77   ar
    18    69    68    1
    19    80    78   ar
    20    13    10    1
    21    13    14    1
    22    10    11    1
    23    28    27    2
    24    16    14    1
    25    77    75   ar
    26    78    76   ar
    27    14    15    1
    28    68    66   ar
    29    68    67   ar
    30    66    64   ar
    31    27    26    1
    32    75    76   ar
    33    75    74    1
    34    67    65   ar
    35    30    29    1
    36    29    26    1
    37    64    63   ar
    38    26    25    1
    39    74    71    1
    40    17    18    1
    41    20    19    2
    42    65    63   ar
    43    21    18    1
    44    21    22    1
    45    63    62    1
    46     7     6    1
    47    18    19    1
    48     8     6    1
    49    52    50   ar
    50    52    53   ar
    51    71    70    1
    52    71    72    1
    53    70    60   am
    54    24    22   am
    55    50    48   ar
    56     6     5    1
    57    53    51   ar
    58    22    23    2
    59     5     2    1
    60    72    73    2
    61    72    82   am
    62    62    59    1
    63    59    60    1
    64    59    58    1
    65    60    61    2
    66    48    47    1
    67    48    49   ar
    68    57    56    2
    69    51    49   ar
    70    82    83    1
    71     2     3    1
    72     2     1    1
    73    47    44    1
    74     3     4    2
    75    58    56   am
    76    56    55    1
    77   115   114    1
    78    83    84    1
    79    44    45    1
    80    44    43    1
    81   112   114   ar
    82   112   110   ar
    83   114   113   ar
    84    45    46    2
    85    45    54   am
    86    55    54    1
    87    84    86   am
    88    84    85    2
    89    86    87    1
    90   110   109   ar
    91   113   111   ar
    92    91    90    1
    93    90    87    1
    94    87    88    1
    95    99    98    2
    96   109   111   ar
    97   109   108    1
    98    92    88   am
    99    92    93    1
   100    88    89    2
   101    98    97    1
   102    98   104   am
   103    93    94    1
   104    96    97    1
   105    96    94   am
   106   100    97    1
   107   100   101    1
   108   108   105    1
   109   105   104    1
   110   105   106    1
   111   103   101   am
   112    94    95    2
   113   101   102    2
   114   106   107    2
