@<TRIPOS>MOLECULE
tmp/3qcvC00.pdb
 115 114 0 0 0
SMALL
GASTEIGER

@<TRIPOS>ATOM
      1  N         17.4800   39.3830  -11.6860 N.3    33  LEU33      -0.1245
      2  CA        17.0850   38.9460  -13.0080 C.3    33  LEU33       0.1561
      3  C         15.6680   38.3960  -12.9270 C.2    33  LEU33       0.2260
      4  O         15.4550   37.2750  -12.4680 O.2    33  LEU33      -0.2867
      5  CB        18.0510   37.8860  -13.5210 C.3    33  LEU33       0.0270
      6  CG        19.4850   38.4360  -13.6330 C.3    33  LEU33       0.0019
      7  CD1       20.4740   37.3470  -14.0310 C.3    33  LEU33       0.0001
      8  CD2       19.5670   39.6400  -14.5970 C.3    33  LEU33       0.0001
      9  N         13.4510   37.8690  -20.0730 N.3    50  LEU50      -0.1245
     10  CA        14.1310   38.2580  -18.8530 C.3    50  LEU50       0.1561
     11  C         14.4260   39.7670  -18.8500 C.2    50  LEU50       0.2260
     12  O         14.8220   40.3330  -19.8820 O.2    50  LEU50      -0.2867
     13  CB        15.4040   37.4280  -18.7020 C.3    50  LEU50       0.0270
     14  CG        16.5460   37.8570  -17.7890 C.3    50  LEU50       0.0019
     15  CD1       17.2580   36.6050  -17.2430 C.3    50  LEU50       0.0001
     16  CD2       17.5450   38.8150  -18.5110 C.3    50  LEU50       0.0001
     17  N         16.5240   42.8220  -16.3130 N.3    52  ASN52      -0.1240
     18  CA        17.2370   43.3790  -15.1560 C.3    52  ASN52       0.1653
     19  C         16.7990   44.8300  -14.9060 C.2    52  ASN52       0.2266
     20  O         17.1100   45.7150  -15.7000 O.2    52  ASN52      -0.2867
     21  CB        18.7500   43.2840  -15.3410 C.3    52  ASN52       0.1155
     22  CG        19.5120   43.9850  -14.2470 C.2    52  ASN52       0.2627
     23  OD1       19.3830   43.6520  -13.0640 O.2    52  ASN52      -0.2716
     24  ND2       20.3070   44.9680  -14.6280 N.am   52  ASN52      -0.0877
     25  N         19.4570   48.0210  -15.0230 N.3    55  SER55      -0.1217
     26  CA        19.9450   48.3860  -16.3460 C.3    55  SER55       0.1889
     27  C         18.8540   48.4890  -17.4170 C.2    55  SER55       0.2288
     28  O         19.1260   48.9840  -18.5190 O.2    55  SER55      -0.2866
     29  CB        21.0030   47.3880  -16.8070 C.3    55  SER55       0.2089
     30  OG        20.4330   46.1090  -17.0490 O.3    55  SER55      -0.2183
     31  N         18.0680   46.0220  -18.9860 N.3    57  TYR57      -0.1241
     32  CA        18.4360   44.9740  -19.9430 C.3    57  TYR57       0.1605
     33  C         17.2980   43.9620  -20.0450 C.2    57  TYR57       0.2264
     34  O         16.7600   43.5160  -19.0250 O.2    57  TYR57      -0.2867
     35  CB        19.7250   44.2420  -19.5320 C.3    57  TYR57       0.0534
     36  CG        20.0740   43.0550  -20.4250 C.ar   57  TYR57      -0.0201
     37  CD1       20.8740   43.2200  -21.5580 C.ar   57  TYR57      -0.0009
     38  CD2       19.5940   41.7700  -20.1480 C.ar   57  TYR57      -0.0009
     39  CE1       21.2000   42.1320  -22.3890 C.ar   57  TYR57       0.0417
     40  CE2       19.9070   40.6870  -20.9690 C.ar   57  TYR57       0.0417
     41  CZ        20.7090   40.8740  -22.0860 C.ar   57  TYR57       0.1957
     42  OH        21.0210   39.8140  -22.9130 O.3    57  TYR57      -0.2866
     43  N         18.1580   33.2910  -11.0360 N.3   100  PHE100     -0.1227
     44  CA        19.6070   33.4230  -11.2050 C.3   100  PHE100      0.1736
     45  C         20.1620   34.8150  -10.8750 C.2   100  PHE100      0.2596
     46  O         19.4140   35.7830  -10.7340 O.2   100  PHE100     -0.2718
     47  CB        19.9940   33.1070  -12.6460 C.3   100  PHE100      0.0547
     48  CG        19.3100   31.9060  -13.2180 C.ar  100  PHE100     -0.0202
     49  CD1       19.6030   30.6310  -12.7550 C.ar  100  PHE100     -0.0042
     50  CD2       18.3970   32.0460  -14.2580 C.ar  100  PHE100     -0.0042
     51  CE1       18.9770   29.5180  -13.3090 C.ar  100  PHE100     -0.0003
     52  CE2       17.7730   30.9350  -14.8170 C.ar  100  PHE100     -0.0003
     53  CZ        18.0600   29.6750  -14.3420 C.ar  100  PHE100     -0.0000
     54  N         21.4910   34.8860  -10.7600 N.am  101  GLY101     -0.1942
     55  CA        22.2480   36.1520  -10.7960 C.3   101  GLY101      0.2014
     56  C         23.1420   36.0510  -12.0190 C.2   101  GLY101      0.2639
     57  O         22.9190   35.1980  -12.8750 O.2   101  GLY101     -0.2714
     58  N         24.1590   36.8960  -12.1230 N.am  102  TYR102     -0.1959
     59  CA        25.0360   36.8000  -13.2830 C.3   102  TYR102      0.1771
     60  C         25.9090   35.5440  -13.1810 C.2   102  TYR102      0.2620
     61  O         26.1040   35.0090  -12.0940 O.2   102  TYR102     -0.2715
     62  CB        25.8700   38.0780  -13.4930 C.3   102  TYR102      0.0574
     63  CG        26.5840   38.0790  -14.8360 C.ar  102  TYR102     -0.0198
     64  CD1       25.8700   38.2790  -16.0220 C.ar  102  TYR102     -0.0009
     65  CD2       27.9630   37.8380  -14.9280 C.ar  102  TYR102     -0.0009
     66  CE1       26.5100   38.2650  -17.2690 C.ar  102  TYR102      0.0417
     67  CE2       28.6080   37.8120  -16.1620 C.ar  102  TYR102      0.0417
     68  CZ        27.8690   38.0360  -17.3320 C.ar  102  TYR102      0.1957
     69  OH        28.4810   38.0100  -18.5750 O.3   102  TYR102     -0.2866
     70  N         26.3970   35.0630  -14.3220 N.am  103  TYR103     -0.1960
     71  CA        27.2650   33.9000  -14.3760 C.3   103  TYR103      0.1771
     72  C         28.4910   34.0770  -13.4850 C.2   103  TYR103      0.2620
     73  O         29.0810   35.1680  -13.4150 O.2   103  TYR103     -0.2715
     74  CB        27.7080   33.6380  -15.8100 C.3   103  TYR103      0.0574
     75  CG        26.5910   33.2430  -16.7530 C.ar  103  TYR103     -0.0198
     76  CD1       26.0330   31.9680  -16.7050 C.ar  103  TYR103     -0.0009
     77  CD2       26.1070   34.1340  -17.7070 C.ar  103  TYR103     -0.0009
     78  CE1       25.0080   31.5880  -17.5730 C.ar  103  TYR103      0.0417
     79  CE2       25.0790   33.7580  -18.5920 C.ar  103  TYR103      0.0417
     80  CZ        24.5440   32.4790  -18.5180 C.ar  103  TYR103      0.1957
     81  OH        23.5310   32.0960  -19.3720 O.3   103  TYR103     -0.2866
     82  N         28.8720   32.9990  -12.8070 N.am  104  GLY104     -0.1940
     83  CA        29.9700   33.0490  -11.8580 C.3   104  GLY104      0.2014
     84  C         29.6070   33.6410  -10.5030 C.2   104  GLY104      0.2640
     85  O         30.4510   33.7240   -9.6200 O.2   104  GLY104     -0.2714
     86  N         28.3570   34.0530  -10.3240 N.am  105  SER105     -0.1935
     87  CA        27.9290   34.6070   -9.0350 C.3   105  SER105      0.2055
     88  C         27.6800   33.5280   -7.9720 C.2   105  SER105      0.2644
     89  O         27.6520   33.8370   -6.7800 O.2   105  SER105     -0.2714
     90  CB        26.6630   35.4580   -9.1950 C.3   105  SER105      0.2130
     91  OG        25.5690   34.6670   -9.6450 O.3   105  SER105     -0.2179
     92  N         27.4790   32.2820   -8.4030 N.am  106  GLY106     -0.1939
     93  CA        27.0910   31.2060   -7.4990 C.3   106  GLY106      0.2014
     94  C         25.6270   31.2780   -7.0490 C.2   106  GLY106      0.2639
     95  O         25.1770   30.4320   -6.2630 O.2   106  GLY106     -0.2714
     96  N         24.8860   32.2680   -7.5610 N.am  107  ASN107     -0.1958
     97  CA        23.5300   32.5480   -7.0990 C.3   107  ASN107      0.1819
     98  C         22.4730   31.7100   -7.7920 C.2   107  ASN107      0.2621
     99  O         22.2860   31.8000   -9.0050 O.2   107  ASN107     -0.2715
    100  CB        23.1780   34.0340   -7.2690 C.3   107  ASN107      0.1195
    101  CG        23.8880   34.9240   -6.2660 C.2   107  ASN107      0.2630
    102  OD1       24.2340   34.4900   -5.1670 O.2   107  ASN107     -0.2716
    103  ND2       24.1170   36.1740   -6.6470 N.am  107  ASN107     -0.0877
    104  N         21.7850   30.8980   -7.0000 N.am  108  TYR108     -0.1974
    105  CA        20.6410   30.1440   -7.4630 C.3   108  TYR108      0.1639
    106  C         19.4990   30.3760   -6.4990 C.2   108  TYR108      0.2290
    107  O         19.5870   29.9790   -5.3370 O.2   108  TYR108     -0.2864
    108  CB        20.9880   28.6570   -7.6110 C.3   108  TYR108      0.0560
    109  CG        21.9410   28.4580   -8.7580 C.ar  108  TYR108     -0.0198
    110  CD1       21.4670   28.3130  -10.0640 C.ar  108  TYR108     -0.0009
    111  CD2       23.3260   28.4770   -8.5540 C.ar  108  TYR108     -0.0009
    112  CE1       22.3440   28.1810  -11.1260 C.ar  108  TYR108      0.0417
    113  CE2       24.2110   28.3360   -9.6200 C.ar  108  TYR108      0.0417
    114  CZ        23.7120   28.1880  -10.8940 C.ar  108  TYR108      0.1957
    115  OH        24.5770   28.0540  -11.9500 O.3   108  TYR108     -0.2866
@<TRIPOS>BOND
     1    42    41    1
     2    39    41   ar
     3    39    37   ar
     4    41    40   ar
     5    37    36   ar
     6    40    38   ar
     7    36    38   ar
     8    36    35    1
     9     9    10    1
    10    33    32    1
    11    33    34    2
    12    32    35    1
    13    32    31    1
    14    12    11    2
    15    81    80    1
    16    10    11    1
    17    10    13    1
    18    13    14    1
    19    79    80   ar
    20    79    77   ar
    21    69    68    1
    22    28    27    2
    23    80    78   ar
    24    16    14    1
    25    14    15    1
    26    77    75   ar
    27    78    76   ar
    28    27    26    1
    29    68    66   ar
    30    68    67   ar
    31    66    64   ar
    32    30    29    1
    33    29    26    1
    34    75    76   ar
    35    75    74    1
    36    26    25    1
    37    17    18    1
    38    67    65   ar
    39    64    63   ar
    40    74    71    1
    41    20    19    2
    42    21    18    1
    43    21    22    1
    44    18    19    1
    45    65    63   ar
    46    63    62    1
    47    52    53   ar
    48    52    50   ar
    49    24    22   am
    50     8     6    1
    51    71    70    1
    52    71    72    1
    53    53    51   ar
    54    70    60   am
    55    50    48   ar
    56    22    23    2
    57     7     6    1
    58     6     5    1
    59     5     2    1
    60    62    59    1
    61    72    73    2
    62    72    82   am
    63    51    49   ar
    64    59    60    1
    65    59    58    1
    66    48    49   ar
    67    48    47    1
    68    60    61    2
    69     2     3    1
    70     2     1    1
    71     3     4    2
    72    57    56    2
    73    82    83    1
    74    47    44    1
    75    58    56   am
    76    56    55    1
    77   115   114    1
    78    83    84    1
    79    44    43    1
    80    44    45    1
    81   112   114   ar
    82   112   110   ar
    83   114   113   ar
    84    45    54   am
    85    45    46    2
    86    55    54    1
    87    84    86   am
    88    84    85    2
    89    86    87    1
    90   110   109   ar
    91    91    90    1
    92   113   111   ar
    93    90    87    1
    94    87    88    1
    95    99    98    2
    96   109   111   ar
    97   109   108    1
    98    92    88   am
    99    92    93    1
   100    88    89    2
   101    98    97    1
   102    98   104   am
   103   108   105    1
   104    96    97    1
   105    96    94   am
   106    93    94    1
   107   105   104    1
   108   105   106    1
   109   100    97    1
   110   100   101    1
   111    94    95    2
   112   103   101   am
   113   106   107    2
   114   101   102    2
