@<TRIPOS>MOLECULE
tmp/3qczA01.pdb
 96 91 0 0 0
SMALL
GASTEIGER

@<TRIPOS>ATOM
      1  N         -0.0080   26.8030   26.4400 N.3    49  GLY49      -0.1210
      2  CA         1.3300   26.6740   27.0390 C.3    49  GLY49       0.1956
      3  C          2.3120   27.5630   26.2850 C.2    49  GLY49       0.2612
      4  O          1.9860   28.0710   25.1650 O.2    49  GLY49      -0.2717
      5  N          3.4660   27.8480   26.9120 N.am   50  THR50      -0.1952
      6  CA         4.4760   28.6790   26.2630 C.3    50  THR50       0.1897
      7  C          5.2290   27.8290   25.1880 C.2    50  THR50       0.2313
      8  O          5.2330   28.2050   24.0020 O.2    50  THR50      -0.2863
      9  CB         5.5020   29.2320   27.2480 C.3    50  THR50       0.1794
     10  OG1        4.8630   30.0390   28.2870 O.3    50  THR50      -0.2208
     11  CG2        6.5530   30.0760   26.5020 C.3    50  THR50       0.0378
     12  N          3.1710   23.0920   23.0030 N.3    53  LYS53      -0.1245
     13  CA         1.7970   22.9120   22.4950 C.3    53  LYS53       0.1561
     14  C          1.7250   21.9380   21.2930 C.2    53  LYS53       0.2260
     15  O          0.9790   20.9630   21.3030 O.2    53  LYS53      -0.2867
     16  CB         1.1280   24.2040   22.1400 C.3    53  LYS53       0.0271
     17  CG         1.0290   25.2180   23.3530 C.3    53  LYS53       0.0035
     18  CD         0.3100   26.4820   22.9160 C.3    53  LYS53       0.0206
     19  CE         1.1300   27.3660   21.9280 C.3    53  LYS53       0.1093
     20  NZ         2.4300   27.7860   22.4000 N.3    53  LYS53      -0.1314
     21  N         -3.4350   29.9260   20.0740 N.3   141  GLY141     -0.1210
     22  CA        -2.5290   30.8690   19.3770 C.3   141  GLY141      0.1956
     23  C         -1.6200   31.5490   20.3560 C.2   141  GLY141      0.2612
     24  O         -0.4040   31.3740   20.3350 O.2   141  GLY141     -0.2717
     25  N         -2.2190   32.3310   21.2250 N.am  142  LEU142     -0.1965
     26  CA        -1.5130   33.0630   22.2380 C.3   142  LEU142      0.1728
     27  C         -2.3930   33.1320   23.4840 C.2   142  LEU142      0.2616
     28  O         -3.6320   33.2530   23.3700 O.2   142  LEU142     -0.2715
     29  CB        -1.3040   34.5200   21.7910 C.3   142  LEU142      0.0311
     30  CG        -0.2580   34.9090   20.7280 C.3   142  LEU142      0.0022
     31  CD1       -0.5720   36.3910   20.2990 C.3   142  LEU142      0.0001
     32  CD2        1.1600   34.7730   21.3230 C.3   142  LEU142      0.0001
     33  N         -1.7730   33.0570   24.6570 N.am  143  GLY143     -0.1955
     34  CA        -2.5030   33.1100   25.9100 C.3   143  GLY143      0.1869
     35  C         -3.5080   31.9830   26.0420 C.2   143  GLY143      0.2309
     36  O         -3.1380   30.8330   26.2810 O.2   143  GLY143     -0.2863
     37  N          6.7090   29.6070   30.6290 N.3   163  ALA163     -0.1231
     38  CA         8.0320   30.1980   30.5130 C.3   163  ALA163      0.1694
     39  C          7.8190   31.5380   29.8020 C.2   163  ALA163      0.2592
     40  O          6.7400   31.8070   29.2500 O.2   163  ALA163     -0.2718
     41  CB         8.9950   29.2590   29.7790 C.3   163  ALA163      0.0304
     42  N          8.8060   32.4100   29.9030 N.am  164  LEU164     -0.1966
     43  CA         8.7180   33.7280   29.3040 C.3   164  LEU164      0.1728
     44  C          9.3450   33.7270   27.9090 C.2   164  LEU164      0.2616
     45  O         10.5540   33.5050   27.7750 O.2   164  LEU164     -0.2715
     46  CB         9.4430   34.7930   30.1970 C.3   164  LEU164      0.0311
     47  CG         8.8300   35.3260   31.4880 C.3   164  LEU164      0.0022
     48  CD1        8.4370   34.2030   32.3750 C.3   164  LEU164      0.0001
     49  CD2        9.8210   36.3310   32.2470 C.3   164  LEU164      0.0001
     50  N          8.5660   34.0510   26.9000 N.am  165  ASP165     -0.1957
     51  CA         9.0540   34.1030   25.5260 C.3   165  ASP165      0.1840
     52  C          9.4440   35.5190   25.1160 C.2   165  ASP165      0.2622
     53  O         10.0200   35.7330   24.0350 O.2   165  ASP165     -0.2715
     54  CB         7.9180   33.5640   24.5840 C.3   165  ASP165      0.1450
     55  CG         8.3920   33.3270   23.1490 C.2   165  ASP165      0.3671
     56  OD1        9.4580   32.6630   22.9550 O.co2 165  ASP165     -0.2456
     57  OD2        7.6700   33.7810   22.2080 O.co2 165  ASP165     -0.2456
     58  N          9.1610   36.5040   25.9610 N.am  166  HIS166     -0.1973
     59  CA         9.4900   37.9270   25.6300 C.3   166  HIS166      0.1656
     60  C         10.3630   38.5690   26.6960 C.2   166  HIS166      0.2291
     61  O         10.7010   37.9200   27.6350 O.2   166  HIS166     -0.2864
     62  CB         8.2250   38.7330   25.3610 C.3   166  HIS166      0.0771
     63  CG         7.4370   38.1660   24.2480 C.ar  166  HIS166      0.0820
     64  ND1        7.8500   38.2650   22.9400 N.ar  166  HIS166     -0.2267
     65  CD2        6.3600   37.3430   24.2480 C.ar  166  HIS166      0.1154
     66  CE1        7.0120   37.5820   22.1710 C.ar  166  HIS166      0.1986
     67  NE2        6.1080   37.0110   22.9420 N.ar  166  HIS166     -0.2212
     68  N          4.9880   41.2860   34.0400 N.3   172  TYR172     -0.1241
     69  CA         5.0990   40.2090   33.0920 C.3   172  TYR172      0.1605
     70  C          5.9800   39.1750   33.7610 C.2   172  TYR172      0.2264
     71  O          7.1830   39.3820   33.9900 O.2   172  TYR172     -0.2867
     72  CB         5.6630   40.6650   31.7410 C.3   172  TYR172      0.0534
     73  CG         6.0470   39.5540   30.7550 C.ar  172  TYR172     -0.0201
     74  CD1        5.0780   38.7970   30.1210 C.ar  172  TYR172     -0.0009
     75  CD2        7.3600   39.3310   30.4190 C.ar  172  TYR172     -0.0009
     76  CE1        5.4420   37.7750   29.1540 C.ar  172  TYR172      0.0417
     77  CE2        7.7290   38.3590   29.4530 C.ar  172  TYR172      0.0417
     78  CZ         6.7360   37.5820   28.8500 C.ar  172  TYR172      0.1957
     79  OH         7.0850   36.6030   27.9870 O.3   172  TYR172     -0.2866
     80  N          1.4370   35.2820   33.0870 N.3   177  ILE177     -0.1245
     81  CA         1.3610   34.3460   31.9450 C.3   177  ILE177      0.1561
     82  C          0.4020   33.1670   32.2420 C.2   177  ILE177      0.2260
     83  O         -0.5340   32.9090   31.4850 O.2   177  ILE177     -0.2867
     84  CB         2.8080   33.8840   31.5740 C.3   177  ILE177      0.0252
     85  CG1        3.5630   35.0520   30.9360 C.3   177  ILE177      0.0019
     86  CG2        2.8590   32.6820   30.6360 C.3   177  ILE177      0.0019
     87  CD1        5.1590   34.8190   31.0560 C.3   177  ILE177      0.0001
     88  N         -3.3220   31.8670   30.4530 N.3   181  LYS181     -0.1245
     89  CA        -3.4670   30.4820   29.9290 C.3   181  LYS181      0.1561
     90  C         -4.5990   29.6570   30.5480 C.2   181  LYS181      0.2260
     91  O         -5.2750   28.9080   29.8360 O.2   181  LYS181     -0.2867
     92  CB        -2.1430   29.7200   29.9880 C.3   181  LYS181      0.0271
     93  CG        -1.0160   30.4480   29.2500 C.3   181  LYS181      0.0035
     94  CD         0.0860   29.5490   28.9120 C.3   181  LYS181      0.0206
     95  CE         1.2900   30.3610   28.4160 C.3   181  LYS181      0.1093
     96  NZ         0.9680   30.9990   27.1150 N.3   181  LYS181     -0.1314
@<TRIPOS>BOND
     1    22    21    1
     2    22    23    1
     3    31    30    1
     4    24    23    2
     5    23    25   am
     6    30    32    1
     7    30    29    1
     8    25    26    1
     9    14    15    2
    10    14    13    1
    11    29    26    1
    12    19    20    1
    13    19    18    1
    14    16    13    1
    15    16    17    1
    16    66    64   ar
    17    66    67   ar
    18    57    55   ar
    19    26    27    1
    20    13    12    1
    21    18    17    1
    22    64    63   ar
    23    67    65   ar
    24    56    55   ar
    25    55    54    1
    26    28    27    2
    27    27    33   am
    28     8     7    2
    29    53    52    2
    30    65    63   ar
    31    63    62    1
    32    54    51    1
    33    33    34    1
    34    52    51    1
    35    52    58   am
    36     4     3    2
    37     7     6    1
    38    62    59    1
    39    51    50    1
    40    59    58    1
    41    59    60    1
    42    34    35    1
    43    35    36    2
    44     6     5    1
    45     6     9    1
    46     3     5   am
    47     3     2    1
    48     1     2    1
    49    11     9    1
    50    60    61    2
    51    50    44   am
    52    96    95    1
    53     9    10    1
    54    45    44    2
    55    44    43    1
    56    79    78    1
    57    95    94    1
    58    78    76   ar
    59    78    77   ar
    60    94    93    1
    61    76    74   ar
    62    40    39    2
    63    93    92    1
    64    43    42    1
    65    43    46    1
    66    77    75   ar
    67    41    38    1
    68    39    42   am
    69    39    38    1
    70    91    90    2
    71    89    92    1
    72    89    88    1
    73    89    90    1
    74    74    73   ar
    75    46    47    1
    76    75    73   ar
    77    38    37    1
    78    86    84    1
    79    73    72    1
    80    85    87    1
    81    85    84    1
    82    83    82    2
    83    47    49    1
    84    47    48    1
    85    84    81    1
    86    72    69    1
    87    81    82    1
    88    81    80    1
    89    69    70    1
    90    69    68    1
    91    70    71    2
