@<TRIPOS>MOLECULE
tmp/3qd0A00.pdb
 209 196 0 0 0
SMALL
GASTEIGER

@<TRIPOS>ATOM
      1  N        -40.0540   17.2280   19.0590 N.3    16  LEU16      -0.1231
      2  CA       -39.4550   17.1720   17.7170 C.3    16  LEU16       0.1693
      3  C        -39.8920   18.3780   16.8730 C.2    16  LEU16       0.2593
      4  O        -39.2270   18.7360   15.9090 O.2    16  LEU16      -0.2718
      5  CB       -39.9220   15.9000   16.9970 C.3    16  LEU16       0.0284
      6  CG       -39.4770   14.5720   17.6370 C.3    16  LEU16       0.0019
      7  CD1      -40.1510   13.4010   16.9420 C.3    16  LEU16       0.0001
      8  CD2      -37.9570   14.4590   17.5630 C.3    16  LEU16       0.0001
      9  N        -41.0350   18.9580   17.2000 N.am   17  GLY17      -0.1942
     10  CA       -41.5370   20.0740   16.4110 C.3    17  GLY17       0.2014
     11  C        -42.6400   20.7840   17.1500 C.2    17  GLY17       0.2639
     12  O        -43.4150   20.1550   17.8790 O.2    17  GLY17      -0.2714
     13  N        -42.7400   22.0930   16.9480 N.am   18  GLU18      -0.1963
     14  CA       -43.7380   22.8830   17.6500 C.3    18  GLU18       0.1733
     15  C        -44.4150   23.8530   16.7150 C.2    18  GLU18       0.2617
     16  O        -43.7640   24.4990   15.8900 O.2    18  GLU18      -0.2715
     17  CB       -43.0580   23.7120   18.7380 C.3    18  GLU18       0.0429
     18  CG       -42.9030   23.0220   20.0400 C.3    18  GLU18       0.1163
     19  CD       -42.0270   23.8120   20.9940 C.2    18  GLU18       0.3649
     20  OE1      -40.7950   23.8430   20.7750 O.co2  18  GLU18      -0.2457
     21  OE2      -42.5740   24.3940   21.9540 O.co2  18  GLU18      -0.2457
     22  N        -45.7190   23.9720   16.8500 N.am   19  GLY19      -0.1940
     23  CA       -46.4470   25.0020   16.1340 C.3    19  GLY19       0.2014
     24  C        -47.4950   25.6340   17.0420 C.2    19  GLY19       0.2640
     25  O        -47.6710   25.2140   18.1850 O.2    19  GLY19      -0.2714
     26  N        -48.2100   26.6280   16.5230 N.am   20  SER20      -0.1935
     27  CA       -49.2830   27.2640   17.2750 C.3    20  SER20       0.2055
     28  C        -50.4240   26.3130   17.6170 C.2    20  SER20       0.2643
     29  O        -51.0870   26.5140   18.6270 O.2    20  SER20      -0.2714
     30  CB       -49.8310   28.4850   16.5160 C.3    20  SER20       0.2130
     31  OG       -48.8050   29.4450   16.2910 O.3    20  SER20      -0.2179
     32  N        -50.6530   25.2800   16.7990 N.am   21  PHE21      -0.1959
     33  CA       -51.8380   24.4220   16.9720 C.3    21  PHE21       0.1771
     34  C        -51.5570   22.9580   17.3470 C.2    21  PHE21       0.2620
     35  O        -52.4880   22.1820   17.6190 O.2    21  PHE21      -0.2715
     36  CB       -52.7280   24.5150   15.7270 C.3    21  PHE21       0.0574
     37  CG       -52.9920   25.9340   15.3060 C.ar   21  PHE21      -0.0200
     38  CD1      -52.2860   26.5080   14.2570 C.ar   21  PHE21      -0.0042
     39  CD2      -53.8960   26.7190   16.0080 C.ar   21  PHE21      -0.0042
     40  CE1      -52.5140   27.8240   13.8830 C.ar   21  PHE21      -0.0003
     41  CE2      -54.1280   28.0400   15.6490 C.ar   21  PHE21      -0.0003
     42  CZ       -53.4310   28.5950   14.5870 C.ar   21  PHE21      -0.0000
     43  N        -50.2780   22.5820   17.3630 N.am   22  SER22      -0.1950
     44  CA       -49.8960   21.2030   17.6610 C.3    22  SER22       0.1924
     45  C        -48.4160   21.1280   18.0050 C.2    22  SER22       0.2314
     46  O        -47.6620   22.0800   17.7450 O.2    22  SER22      -0.2863
     47  CB       -50.1890   20.2990   16.4570 C.3    22  SER22       0.2116
     48  OG       -49.4160   20.7050   15.3290 O.3    22  SER22      -0.2180
     49  N        -45.1600   17.9880   18.1600 N.3    24  VAL24      -0.1245
     50  CA       -44.7710   16.6180   17.8230 C.3    24  VAL24       0.1561
     51  C        -43.7190   16.1660   18.8090 C.2    24  VAL24       0.2260
     52  O        -42.7530   16.8800   19.0510 O.2    24  VAL24      -0.2867
     53  CB       -44.2650   16.5040   16.3530 C.3    24  VAL24       0.0252
     54  CG1      -43.9440   15.0140   16.0150 C.3    24  VAL24       0.0019
     55  CG2      -45.3760   17.0390   15.3830 C.3    24  VAL24       0.0019
     56  N        -43.0500    9.5910   15.8470 N.3    37  ALA37      -0.1245
     57  CA       -43.2330   11.0220   16.1050 C.3    37  ALA37       0.1562
     58  C        -44.7230   11.1800   16.3170 C.2    37  ALA37       0.2260
     59  O        -45.5080   11.0560   15.3710 O.2    37  ALA37      -0.2867
     60  CB       -42.7760   11.8510   14.8910 C.3    37  ALA37       0.0290
     61  N        -47.8390   13.3670   16.9600 N.3    39  LYS39      -0.1245
     62  CA       -48.3510   14.7190   16.9420 C.3    39  LYS39       0.1561
     63  C        -49.5540   14.8350   17.8820 C.2    39  LYS39       0.2260
     64  O        -50.5250   14.0680   17.7890 O.2    39  LYS39      -0.2867
     65  CB       -48.7440   15.1220   15.5300 C.3    39  LYS39       0.0271
     66  CG       -49.2260   16.5560   15.4330 C.3    39  LYS39       0.0035
     67  CD       -49.6570   16.8530   14.0100 C.3    39  LYS39       0.0206
     68  CE       -48.8630   17.9740   13.3950 C.3    39  LYS39       0.1093
     69  NZ       -49.4550   18.4260   12.0690 N.3    39  LYS39      -0.1314
     70  N        -59.6410   25.3100   13.3760 N.3    51  LYS51      -0.1245
     71  CA       -58.6550   24.5720   12.6040 C.3    51  LYS51       0.1561
     72  C        -59.1190   23.1530   12.2870 C.2    51  LYS51       0.2260
     73  O        -58.3480   22.3660   11.7370 O.2    51  LYS51      -0.2867
     74  CB       -57.3250   24.5340   13.3450 C.3    51  LYS51       0.0271
     75  CG       -56.7270   25.9160   13.5910 C.3    51  LYS51       0.0035
     76  CD       -56.5810   26.7020   12.2940 C.3    51  LYS51       0.0206
     77  CE       -56.0440   28.0950   12.6030 C.3    51  LYS51       0.1093
     78  NZ       -56.1650   29.0080   11.4390 N.3    51  LYS51      -0.1314
     79  N        -58.3030   21.7480    8.8150 N.3    54  TYR54      -0.1241
     80  CA       -56.9050   21.4450    8.4950 C.3    54  TYR54       0.1605
     81  C        -56.4640   20.1350    9.1270 C.2    54  TYR54       0.2264
     82  O        -55.6930   19.3930    8.5400 O.2    54  TYR54      -0.2867
     83  CB       -55.9640   22.5880    8.9210 C.3    54  TYR54       0.0534
     84  CG       -56.3470   23.8690    8.2590 C.ar   54  TYR54      -0.0201
     85  CD1      -55.9740   24.1330    6.9490 C.ar   54  TYR54      -0.0009
     86  CD2      -57.1370   24.8050    8.9230 C.ar   54  TYR54      -0.0009
     87  CE1      -56.3510   25.3180    6.3200 C.ar   54  TYR54       0.0417
     88  CE2      -57.5230   25.9860    8.3030 C.ar   54  TYR54       0.0417
     89  CZ       -57.1290   26.2340    7.0020 C.ar   54  TYR54       0.1957
     90  OH       -57.5060   27.4120    6.3830 O.3    54  TYR54      -0.2866
     91  N        -55.2080   16.8530    7.0320 N.3    58  GLU58      -0.1245
     92  CA       -53.9470   16.1560    7.2720 C.3    58  GLU58       0.1567
     93  C        -54.1590   14.6800    7.5600 C.2    58  GLU58       0.2260
     94  O        -53.4590   13.8270    7.0280 O.2    58  GLU58      -0.2867
     95  CB       -53.1600   16.7890    8.4300 C.3    58  GLU58       0.0388
     96  CG       -51.7680   16.1320    8.6540 C.3    58  GLU58       0.1160
     97  CD       -50.8840   16.9580    9.5610 C.2    58  GLU58       0.3649
     98  OE1      -51.2220   17.0850   10.7650 O.co2  58  GLU58      -0.2457
     99  OE2      -49.8680   17.5000    9.0740 O.co2  58  GLU58      -0.2457
    100  N        -52.5390   12.0080    4.9910 N.3    62  MET62      -0.1245
    101  CA       -51.3630   11.2740    5.4800 C.3    62  MET62       0.1570
    102  C        -51.6510    9.7910    5.6690 C.2    62  MET62       0.2261
    103  O        -50.7250    8.9690    5.7120 O.2    62  MET62      -0.2867
    104  CB       -50.7760   11.9090    6.7420 C.3    62  MET62       0.0387
    105  CG       -50.2130   13.3050    6.4680 C.3    62  MET62       0.0595
    106  SD       -49.2290   14.0050    7.8010 S.3    62  MET62      -0.1393
    107  CE       -47.5900   13.2600    7.4700 C.3    62  MET62       0.0692
    108  N        -43.6400   11.0960    5.1840 N.3    71  VAL71      -0.1245
    109  CA       -44.0270   10.7130    6.5320 C.3    71  VAL71       0.1561
    110  C        -45.4260   10.0860    6.4570 C.2    71  VAL71       0.2260
    111  O        -46.3100   10.6210    5.8180 O.2    71  VAL71      -0.2867
    112  CB       -44.0270   11.9510    7.4770 C.3    71  VAL71       0.0252
    113  CG1      -44.6930   11.5990    8.7990 C.3    71  VAL71       0.0019
    114  CG2      -42.6030   12.4180    7.6980 C.3    71  VAL71       0.0019
    115  N        -47.0110    9.2650   13.7050 N.3    87  LEU87      -0.1231
    116  CA       -46.3320    9.5080   12.4200 C.3    87  LEU87       0.1693
    117  C        -44.9660    8.8540   12.3800 C.2    87  LEU87       0.2593
    118  O        -44.3450    8.6290   13.4340 O.2    87  LEU87      -0.2718
    119  CB       -46.1160   11.0260   12.2040 C.3    87  LEU87       0.0284
    120  CG       -47.3410   11.9490   12.3980 C.3    87  LEU87       0.0019
    121  CD1      -46.9200   13.4310   12.2650 C.3    87  LEU87       0.0001
    122  CD2      -48.4180   11.6290   11.4030 C.3    87  LEU87       0.0001
    123  N        -44.4780    8.5970   11.1510 N.am   88  SER88      -0.1938
    124  CA       -43.0820    8.2570   10.9130 C.3    88  SER88       0.2055
    125  C        -42.1320    9.1940   11.6570 C.2    88  SER88       0.2643
    126  O        -42.2870   10.4230   11.6250 O.2    88  SER88      -0.2714
    127  CB       -42.7430    8.3520    9.4100 C.3    88  SER88       0.2130
    128  OG       -43.6610    7.6130    8.6480 O.3    88  SER88      -0.2179
    129  N        -41.1270    8.5990   12.2950 N.am   89  TYR89      -0.1959
    130  CA       -40.0630    9.3590   12.9310 C.3    89  TYR89       0.1771
    131  C        -38.8840    9.4730   11.9640 C.2    89  TYR89       0.2619
    132  O        -38.2910    8.4720   11.5900 O.2    89  TYR89      -0.2715
    133  CB       -39.6140    8.6570   14.2180 C.3    89  TYR89       0.0574
    134  CG       -38.4260    9.3060   14.9010 C.ar   89  TYR89      -0.0198
    135  CD1      -38.2930   10.6910   14.9290 C.ar   89  TYR89      -0.0009
    136  CD2      -37.4190    8.5190   15.5010 C.ar   89  TYR89      -0.0009
    137  CE1      -37.1950   11.2730   15.5490 C.ar   89  TYR89       0.0417
    138  CE2      -36.3460    9.0900   16.1290 C.ar   89  TYR89       0.0417
    139  CZ       -36.2380   10.4560   16.1580 C.ar   89  TYR89       0.1957
    140  OH       -35.1650   11.0320   16.7700 O.3    89  TYR89      -0.2866
    141  N        -38.5770   10.6950   11.5290 N.am   90  ALA90      -0.1977
    142  CA       -37.4290   10.9650   10.6540 C.3    90  ALA90       0.1597
    143  C        -36.2930   11.4830   11.5270 C.2    90  ALA90       0.2287
    144  O        -36.3160   12.6440   11.9510 O.2    90  ALA90      -0.2864
    145  CB       -37.8030   12.0220    9.5790 C.3    90  ALA90       0.0319
    146  N        -34.1440   14.9590   11.1540 N.3    93  GLY93      -0.1210
    147  CA       -34.7610   16.2690   11.2630 C.3    93  GLY93       0.1956
    148  C        -34.9170   16.9660    9.9130 C.2    93  GLY93       0.2611
    149  O        -34.9930   16.3070    8.8780 O.2    93  GLY93      -0.2717
    150  N        -34.9250   18.2930    9.9310 N.am   94  GLU94      -0.1979
    151  CA       -35.2460   19.0980    8.7440 C.3    94  GLU94       0.1602
    152  C        -34.0980   19.2760    7.7690 C.2    94  GLU94       0.2287
    153  O        -32.9390   19.4780    8.1550 O.2    94  GLU94      -0.2864
    154  CB       -35.7330   20.5030    9.1770 C.3    94  GLU94       0.0415
    155  CG       -36.7890   20.4940   10.2370 C.3    94  GLU94       0.1163
    156  CD       -37.1800   21.9130   10.6970 C.2    94  GLU94       0.3649
    157  OE1      -38.0870   22.0320   11.5520 O.co2  94  GLU94      -0.2457
    158  OE2      -36.5880   22.9000   10.1980 O.co2  94  GLU94      -0.2457
    159  N        -47.7440   23.9290    0.7860 N.3   133  ASP133     -0.1239
    160  CA       -46.8150   24.6420    1.6740 C.3   133  ASP133      0.1674
    161  C        -45.4650   23.9460    1.7810 C.2   133  ASP133      0.2266
    162  O        -44.9190   23.8300    2.8770 O.2   133  ASP133     -0.2867
    163  CB       -47.4300   24.8630    3.0760 C.3   133  ASP133      0.1410
    164  CG       -46.6290   25.8670    3.9130 C.2   133  ASP133      0.3668
    165  OD1      -45.9220   26.7370    3.3480 O.co2 133  ASP133     -0.2456
    166  OD2      -46.6880   25.7790    5.1470 O.co2 133  ASP133     -0.2456
    167  N        -38.3430   23.2540    5.7060 N.3   137  GLU137     -0.1245
    168  CA       -38.7220   23.0010    7.1000 C.3   137  GLU137      0.1567
    169  C        -39.5970   21.7490    7.2240 C.2   137  GLU137      0.2260
    170  O        -39.6310   21.1050    8.2810 O.2   137  GLU137     -0.2867
    171  CB       -39.4530   24.2250    7.6590 C.3   137  GLU137      0.0388
    172  CG       -39.6430   24.2230    9.1520 C.3   137  GLU137      0.1160
    173  CD       -40.4820   25.4250    9.6390 C.2   137  GLU137      0.3649
    174  OE1      -41.1700   26.0560    8.7970 O.co2 137  GLU137     -0.2457
    175  OE2      -40.4540   25.7360   10.8570 O.co2 137  GLU137     -0.2457
    176  N        -38.1910   16.3680    5.6440 N.3   140  LEU140     -0.1245
    177  CA       -37.3570   15.8040    6.7130 C.3   140  LEU140      0.1561
    178  C        -36.3700   14.7910    6.1400 C.2   140  LEU140      0.2260
    179  O        -36.5010   14.3860    4.9860 O.2   140  LEU140     -0.2867
    180  CB       -38.2450   15.1250    7.7490 C.3   140  LEU140      0.0270
    181  CG       -39.3860   16.0350    8.2770 C.3   140  LEU140      0.0019
    182  CD1      -40.0840   15.3460    9.4180 C.3   140  LEU140      0.0001
    183  CD2      -38.8540   17.3960    8.7250 C.3   140  LEU140      0.0001
    184  N        -43.5050   15.9860    5.1510 N.3   150  THR150     -0.1203
    185  CA       -44.5490   15.9690    6.1590 C.3   150  THR150      0.1994
    186  C        -45.3980   17.2600    6.1000 C.2   150  THR150      0.2617
    187  O        -45.2180   18.0630    5.1700 O.2   150  THR150     -0.2717
    188  CB       -43.9200   15.7910    7.5820 C.3   150  THR150      0.1784
    189  OG1      -44.9320   15.3760    8.4930 O.3   150  THR150     -0.2211
    190  CG2      -43.1850   17.1040    8.0710 C.3   150  THR150      0.0376
    191  N        -46.3080   17.4330    7.0720 N.am  151  ASP151     -0.1973
    192  CA       -47.0210   18.7220    7.3220 C.3   151  ASP151      0.1709
    193  C        -48.0790   18.9670    6.2260 C.2   151  ASP151      0.2293
    194  O        -47.9000   19.8150    5.3290 O.2   151  ASP151     -0.2864
    195  CB       -46.0100   19.8790    7.4130 C.3   151  ASP151      0.1436
    196  CG       -46.6610   21.2620    7.7450 C.2   151  ASP151      0.3671
    197  OD1      -47.8330   21.3460    8.1680 O.co2 151  ASP151     -0.2456
    198  OD2      -45.9670   22.2710    7.5270 O.co2 151  ASP151     -0.2456
    199  N        -51.5270   19.6600    6.5530 N.3   153  GLY153     -0.1210
    200  CA       -52.7300   20.4400    6.8810 C.3   153  GLY153      0.1956
    201  C        -53.2440   21.3430    5.7560 C.2   153  GLY153      0.2612
    202  O        -54.4580   21.5010    5.5610 O.2   153  GLY153     -0.2717
    203  N        -52.3240   21.9150    4.9860 N.am  154  THR154     -0.1952
    204  CA       -52.7040   22.8370    3.9030 C.3   154  THR154      0.1897
    205  C        -52.9400   22.1360    2.5720 C.2   154  THR154      0.2313
    206  O        -53.1760   22.8060    1.5550 O.2   154  THR154     -0.2863
    207  CB       -51.6210   23.8760    3.6540 C.3   154  THR154      0.1794
    208  OG1      -50.4220   23.1980    3.2580 O.3   154  THR154     -0.2208
    209  CG2      -51.3570   24.6870    4.8990 C.3   154  THR154      0.0378
@<TRIPOS>BOND
     1   159   160    1
     2   206   205    2
     3   160   161    1
     4   160   163    1
     5   161   162    2
     6   205   204    1
     7   163   164    1
     8   208   207    1
     9   165   164   ar
    10   207   204    1
    11   207   209    1
    12   204   203    1
    13   164   166   ar
    14   179   178    2
    15   203   201   am
    16   100   101    1
    17   184   185    1
    18   187   186    2
    19   108   109    1
    20   194   193    2
    21   101   102    1
    22   101   104    1
    23   202   201    2
    24   176   177    1
    25   102   103    2
    26   167   168    1
    27   201   200    1
    28   111   110    2
    29   186   185    1
    30   186   191   am
    31   178   177    1
    32   185   188    1
    33   193   192    1
    34    87    85   ar
    35    87    89   ar
    36    90    89    1
    37   110   109    1
    38   105   104    1
    39   105   106    1
    40   109   112    1
    41   199   200    1
    42   177   180    1
    43    85    84   ar
    44    89    88   ar
    45    94    93    2
    46    91    92    1
    47   191   192    1
    48   168   169    1
    49   168   171    1
    50   169   170    2
    51    92    93    1
    52    92    95    1
    53   192   195    1
    54   195   196    1
    55   107   106    1
    56   112   114    1
    57   112   113    1
    58   198   196   ar
    59   188   190    1
    60   188   189    1
    61   171   172    1
    62   196   197   ar
    63   180   181    1
    64   152   153    2
    65   152   151    1
    66    84    83    1
    67    84    86   ar
    68   181   183    1
    69   181   182    1
    70    88    86   ar
    71    95    96    1
    72    80    79    1
    73    80    83    1
    74    80    81    1
    75    82    81    2
    76   128   127    1
    77    96    97    1
    78   151   154    1
    79   151   150    1
    80   174   173   ar
    81   149   148    2
    82    99    97   ar
    83   172   173    1
    84   154   155    1
    85   127   124    1
    86    97    98   ar
    87   145   142    1
    88   173   175   ar
    89   148   150   am
    90   148   147    1
    91   158   156   ar
    92   155   156    1
    93   142   143    1
    94   142   141    1
    95   156   157   ar
    96   124   123    1
    97   124   125    1
    98   123   117   am
    99   146   147    1
   100   122   120    1
   101    78    77    1
   102   143   144    2
   103   141   131   am
   104   132   131    2
   105   126   125    2
   106   125   129   am
   107    73    72    2
   108   131   130    1
   109    69    68    1
   110   119   120    1
   111   119   116    1
   112   121   120    1
   113    72    71    1
   114    76    77    1
   115    76    75    1
   116   129   130    1
   117   117   116    1
   118   117   118    2
   119   116   115    1
   120    71    74    1
   121    71    70    1
   122   130   133    1
   123    74    75    1
   124    68    67    1
   125    40    38   ar
   126    40    42   ar
   127    67    66    1
   128   133   134    1
   129    38    37   ar
   130    42    41   ar
   131    60    57    1
   132   134   135   ar
   133   134   136   ar
   134   135   137   ar
   135    37    36    1
   136    37    39   ar
   137    48    47    1
   138    59    58    2
   139    55    53    1
   140    66    65    1
   141   136   138   ar
   142    65    62    1
   143   137   139   ar
   144    41    39   ar
   145    36    33    1
   146    56    57    1
   147    16    15    2
   148     4     3    2
   149    54    53    1
   150    57    58    1
   151   138   139   ar
   152    23    22    1
   153    23    24    1
   154   139   140    1
   155    31    30    1
   156    53    50    1
   157    10    11    1
   158    10     9    1
   159    47    44    1
   160    30    27    1
   161    26    24   am
   162    26    27    1
   163    15    22   am
   164    15    14    1
   165    32    33    1
   166    32    28   am
   167     3     9   am
   168     3     2    1
   169    62    61    1
   170    62    63    1
   171     7     6    1
   172    13    11   am
   173    13    14    1
   174    33    34    1
   175     5     6    1
   176     5     2    1
   177    24    25    2
   178    11    12    2
   179    27    28    1
   180    34    43   am
   181    34    35    2
   182    43    44    1
   183     8     6    1
   184    28    29    2
   185    14    17    1
   186    44    45    1
   187     2     1    1
   188    46    45    2
   189    64    63    2
   190    50    49    1
   191    50    51    1
   192    17    18    1
   193    51    52    2
   194    18    19    1
   195    20    19   ar
   196    19    21   ar
