@<TRIPOS>MOLECULE
tmp/3qdcA09.pdb
 85 78 0 0 0
SMALL
GASTEIGER

@<TRIPOS>ATOM
      1  N          5.6000   41.4700   -8.6940 N.3     7  LEU7       -0.1245
      2  CA         6.4260   40.3280   -8.3210 C.3     7  LEU7        0.1561
      3  C          5.7970   39.5030   -7.2130 C.2     7  LEU7        0.2260
      4  O          5.7960   38.2690   -7.2890 O.2     7  LEU7       -0.2867
      5  CB         7.8600   40.7630   -7.9400 C.3     7  LEU7        0.0270
      6  CG         8.7130   41.2930   -9.1180 C.3     7  LEU7        0.0019
      7  CD1        9.9730   42.0190   -8.6010 C.3     7  LEU7        0.0001
      8  CD2        9.1100   40.1950  -10.1330 C.3     7  LEU7        0.0001
      9  N          3.0190   37.4650   -8.6010 N.3    10  LEU10      -0.1245
     10  CA         3.5500   36.3310   -9.3690 C.3    10  LEU10       0.1561
     11  C          3.9340   35.2210   -8.4130 C.2    10  LEU10       0.2260
     12  O          3.6470   34.0510   -8.6830 O.2    10  LEU10      -0.2867
     13  CB         4.7530   36.7590  -10.2380 C.3    10  LEU10       0.0270
     14  CG         4.4450   37.6260  -11.4720 C.3    10  LEU10       0.0019
     15  CD1        5.7350   38.1670  -12.1340 C.3    10  LEU10       0.0001
     16  CD2        3.5630   36.8700  -12.5090 C.3    10  LEU10       0.0001
     17  N          0.6970   33.5620   -7.1300 N.3    13  ILE13      -0.1231
     18  CA         0.0880   32.7090   -8.1600 C.3    13  ILE13       0.1692
     19  C          0.8700   31.3900   -8.2760 C.2    13  ILE13       0.2592
     20  O          0.2740   30.3080   -8.3190 O.2    13  ILE13      -0.2718
     21  CB         0.0370   33.4140   -9.5320 C.3    13  ILE13       0.0266
     22  CG1       -1.0730   34.4870   -9.5580 C.3    13  ILE13       0.0019
     23  CG2       -0.2450   32.3900  -10.6550 C.3    13  ILE13       0.0020
     24  CD1       -0.8410   35.6230  -10.6120 C.3    13  ILE13       0.0001
     25  N          2.2050   31.4900   -8.3480 N.am   14  GLY14      -0.1957
     26  CA         3.0370   30.2880   -8.4820 C.3    14  GLY14       0.1869
     27  C          2.8590   29.3740   -7.2740 C.2    14  GLY14       0.2309
     28  O          2.7480   28.1490   -7.4310 O.2    14  GLY14      -0.2863
     29  N         -0.6390   27.7530   -7.4960 N.3    17  VAL17      -0.1245
     30  CA        -0.5990   26.6470   -8.4560 C.3    17  VAL17       0.1561
     31  C          0.0320   25.3970   -7.8410 C.2    17  VAL17       0.2260
     32  O         -0.5330   24.3020   -7.9670 O.2    17  VAL17      -0.2867
     33  CB         0.1180   27.0160   -9.7850 C.3    17  VAL17       0.0252
     34  CG1        0.3240   25.7790  -10.6480 C.3    17  VAL17       0.0019
     35  CG2       -0.7100   28.0340  -10.5620 C.3    17  VAL17       0.0019
     36  N         12.6570   39.9700   -6.8630 N.3   195  ALA195     -0.1245
     37  CA        12.6410   39.1440   -8.0820 C.3   195  ALA195      0.1562
     38  C         13.4740   37.8580   -7.9120 C.2   195  ALA195      0.2260
     39  O         13.0130   36.7630   -8.2770 O.2   195  ALA195     -0.2867
     40  CB        13.1590   39.9540   -9.2990 C.3   195  ALA195      0.0290
     41  N         11.6640   35.6100   -5.2490 N.3   198  VAL198     -0.1231
     42  CA        10.4620   34.9750   -5.8340 C.3   198  VAL198      0.1692
     43  C         10.8670   33.7090   -6.6110 C.2   198  VAL198      0.2592
     44  O         10.2880   32.6470   -6.4160 O.2   198  VAL198     -0.2718
     45  CB         9.6680   35.9440   -6.7750 C.3   198  VAL198      0.0266
     46  CG1        8.6640   35.1590   -7.6460 C.3   198  VAL198      0.0020
     47  CG2        8.8930   36.9730   -5.9580 C.3   198  VAL198      0.0020
     48  N         11.8910   33.8090   -7.4610 N.am  199  TYR199     -0.1976
     49  CA        12.3580   32.6360   -8.1870 C.3   199  TYR199      0.1639
     50  C         12.8210   31.5390   -7.2010 C.2   199  TYR199      0.2290
     51  O         12.4090   30.3590   -7.2870 O.2   199  TYR199     -0.2864
     52  CB        13.5370   32.9980   -9.1350 C.3   199  TYR199      0.0560
     53  CG        14.1020   31.7310   -9.7610 C.ar  199  TYR199     -0.0198
     54  CD1       13.4530   31.1410  -10.8480 C.ar  199  TYR199     -0.0009
     55  CD2       15.2410   31.1000   -9.2370 C.ar  199  TYR199     -0.0009
     56  CE1       13.9210   29.9660  -11.4110 C.ar  199  TYR199      0.0417
     57  CE2       15.7120   29.8970   -9.8000 C.ar  199  TYR199      0.0417
     58  CZ        15.0250   29.3450  -10.8780 C.ar  199  TYR199      0.1957
     59  OH        15.4580   28.1890  -11.4880 O.3   199  TYR199     -0.2866
     60  N          9.9750   29.9780   -5.2390 N.3   202  LEU202     -0.1245
     61  CA         9.1720   29.0980   -6.0800 C.3   202  LEU202      0.1561
     62  C          9.8670   27.7710   -6.3500 C.2   202  LEU202      0.2260
     63  O          9.2410   26.7080   -6.3010 O.2   202  LEU202     -0.2867
     64  CB         8.7620   29.7650   -7.4120 C.3   202  LEU202      0.0270
     65  CG         7.6690   30.8360   -7.3040 C.3   202  LEU202      0.0019
     66  CD1        7.5160   31.6010   -8.6340 C.3   202  LEU202      0.0001
     67  CD2        6.3270   30.2210   -6.8690 C.3   202  LEU202      0.0001
     68  N          7.8330   24.9030   -4.7660 N.3   206  VAL206     -0.1245
     69  CA         7.0110   24.3070   -5.8300 C.3   206  VAL206      0.1561
     70  C          7.8440   23.4170   -6.7420 C.2   206  VAL206      0.2260
     71  O          7.4150   22.3320   -7.1080 O.2   206  VAL206     -0.2867
     72  CB         6.2180   25.3790   -6.6250 C.3   206  VAL206      0.0252
     73  CG1        5.3240   24.7180   -7.7190 C.3   206  VAL206      0.0019
     74  CG2        5.3330   26.2220   -5.6670 C.3   206  VAL206      0.0019
     75  N          7.2700   19.4730   -7.2030 N.3   210  PHE210     -0.1241
     76  CA         7.0290   18.7820   -8.4750 C.3   210  PHE210      0.1605
     77  C          8.0470   17.6740   -8.7320 C.2   210  PHE210      0.2264
     78  O          7.6980   16.6310   -9.2930 O.2   210  PHE210     -0.2867
     79  CB         6.9340   19.7520   -9.6500 C.3   210  PHE210      0.0534
     80  CG         5.5570   20.3250   -9.8360 C.ar  210  PHE210     -0.0203
     81  CD1        4.5180   19.5250  -10.2770 C.ar  210  PHE210     -0.0042
     82  CD2        5.2910   21.6460   -9.5360 C.ar  210  PHE210     -0.0042
     83  CE1        3.2420   20.0380  -10.4330 C.ar  210  PHE210     -0.0003
     84  CE2        4.0330   22.1620   -9.6900 C.ar  210  PHE210     -0.0003
     85  CZ         3.0010   21.3540  -10.1500 C.ar  210  PHE210     -0.0000
@<TRIPOS>BOND
     1    16    14    1
     2    15    14    1
     3    59    58    1
     4    14    13    1
     5    56    58   ar
     6    56    54   ar
     7    58    57   ar
     8    54    53   ar
     9    23    21    1
    10    34    33    1
    11    24    22    1
    12    35    33    1
    13    83    81   ar
    14    83    85   ar
    15    81    80   ar
    16    13    10    1
    17    85    84   ar
    18     8     6    1
    19    80    79    1
    20    80    82   ar
    21    57    55   ar
    22    33    30    1
    23    53    55   ar
    24    53    52    1
    25    84    82   ar
    26    79    76    1
    27    22    21    1
    28    21    18    1
    29    10     9    1
    30    10    11    1
    31    40    37    1
    32    78    77    2
    33    52    49    1
    34     6     7    1
    35     6     5    1
    36    77    76    1
    37     1     2    1
    38    12    11    2
    39    66    65    1
    40    26    25    1
    41    26    27    1
    42    76    75    1
    43    30    31    1
    44    30    29    1
    45    25    19   am
    46     2     5    1
    47     2     3    1
    48    20    19    2
    49    39    38    2
    50    19    18    1
    51    49    48    1
    52    49    50    1
    53    18    17    1
    54    37    38    1
    55    37    36    1
    56    32    31    2
    57    73    72    1
    58    46    45    1
    59    48    43   am
    60    28    27    2
    61    64    65    1
    62    64    61    1
    63    65    67    1
    64     4     3    2
    65    51    50    2
    66    71    70    2
    67    45    47    1
    68    45    42    1
    69    70    69    1
    70    72    69    1
    71    72    74    1
    72    43    44    2
    73    43    42    1
    74    62    63    2
    75    62    61    1
    76    61    60    1
    77    42    41    1
    78    69    68    1
