@<TRIPOS>MOLECULE
tmp/3qdcA06.pdb
 74 68 0 0 0
SMALL
GASTEIGER

@<TRIPOS>ATOM
      1  N         -2.2310   19.3020   -3.3640 N.3    23  ALA23      -0.1245
      2  CA        -3.4740   18.8700   -2.7280 C.3    23  ALA23       0.1562
      3  C         -4.1850   17.8300   -3.6020 C.2    23  ALA23       0.2260
      4  O         -4.6750   16.8210   -3.1000 O.2    23  ALA23      -0.2867
      5  CB        -4.3990   20.0680   -2.4700 C.3    23  ALA23       0.0290
      6  N         -2.1990   14.5090   -3.8090 N.3    26  GLY26      -0.1210
      7  CA        -2.3000   13.8170   -2.5340 C.3    26  GLY26       0.1956
      8  C         -3.6480   13.2050   -2.1930 C.2    26  GLY26       0.2611
      9  O         -3.7430   12.4160   -1.2540 O.2    26  GLY26      -0.2717
     10  N         -4.6810   13.5510   -2.9630 N.am   27  ARG27      -0.1979
     11  CA        -6.0500   13.1150   -2.6800 C.3    27  ARG27       0.1597
     12  C         -6.1820   11.5910   -2.4950 C.2    27  ARG27       0.2287
     13  O         -6.9830   11.1360   -1.6750 O.2    27  ARG27      -0.2864
     14  CB        -7.0300   13.6520   -3.7400 C.3    27  ARG27       0.0334
     15  CG        -6.9550   12.9760   -5.0690 C.3    27  ARG27       0.0492
     16  CD        -7.9290   13.6600   -6.0700 C.3    27  ARG27       0.2205
     17  NE        -9.2450   14.0660   -5.4480 N.pl3  27  ARG27      -0.0865
     18  CZ       -10.4130   13.3220   -5.6280 C.cat  27  ARG27       0.5346
     19  NH1      -10.3910   12.1240   -6.3220 N.pl3  27  ARG27       0.1354
     20  NH2      -11.6180   13.7300   -5.0640 N.pl3  27  ARG27       0.1354
     21  N         -4.2720    9.6530   -0.9530 N.3    29  ALA29      -0.1245
     22  CA        -4.0450    9.5130    0.4960 C.3    29  ALA29       0.1562
     23  C         -3.5500    8.1560    0.9870 C.2    29  ALA29       0.2260
     24  O         -3.9840    7.6850    2.0390 O.2    29  ALA29      -0.2867
     25  CB        -5.2820    9.9700    1.2930 C.3    29  ALA29       0.0290
     26  N          0.7540   10.0040    2.5620 N.3    34  ARG34      -0.1245
     27  CA        -0.0800   11.1970    2.8090 C.3    34  ARG34       0.1563
     28  C          0.6740   12.3520    3.4700 C.2    34  ARG34       0.2260
     29  O          0.5510   13.5080    3.0580 O.2    34  ARG34      -0.2867
     30  CB        -1.3000   10.8300    3.6350 C.3    34  ARG34       0.0307
     31  CG        -2.2650   12.0020    3.8160 C.3    34  ARG34       0.0489
     32  CD        -3.5330   11.5920    4.5500 C.3    34  ARG34       0.2205
     33  NE        -3.2450   11.0820    5.8840 N.pl3  34  ARG34      -0.0865
     34  CZ        -3.3390    9.8070    6.2470 C.cat  34  ARG34       0.5346
     35  NH1       -3.7220    8.8820    5.3740 N.pl3  34  ARG34       0.1354
     36  NH2       -3.0300    9.4580    7.4880 N.pl3  34  ARG34       0.1354
     37  N          2.4960   14.6820    1.1280 N.3    37  TYR37      -0.1227
     38  CA         1.6440   15.6080    0.3840 C.3    37  TYR37       0.1736
     39  C          1.1060   16.7420    1.2550 C.2    37  TYR37       0.2595
     40  O          1.0880   17.8920    0.8380 O.2    37  TYR37      -0.2718
     41  CB         0.4950   14.8610   -0.3060 C.3    37  TYR37       0.0548
     42  CG         0.9590   13.9590   -1.4200 C.ar   37  TYR37      -0.0200
     43  CD1        1.1330   14.4510   -2.7100 C.ar   37  TYR37      -0.0009
     44  CD2        1.2200   12.6030   -1.1880 C.ar   37  TYR37      -0.0009
     45  CE1        1.5570   13.6190   -3.7470 C.ar   37  TYR37       0.0417
     46  CE2        1.6500   11.7700   -2.2150 C.ar   37  TYR37       0.0417
     47  CZ         1.8190   12.2850   -3.4910 C.ar   37  TYR37       0.1957
     48  OH         2.2410   11.4720   -4.5180 O.3    37  TYR37      -0.2866
     49  N          0.6770   16.4150    2.4690 N.am   38  VAL38      -0.1980
     50  CA         0.1960   17.4260    3.4140 C.3    38  VAL38       0.1595
     51  C          1.3030   18.4490    3.7070 C.2    38  VAL38       0.2287
     52  O          1.0580   19.6600    3.7350 O.2    38  VAL38      -0.2864
     53  CB        -0.2900   16.7790    4.7230 C.3    38  VAL38       0.0276
     54  CG1       -0.7220   17.8440    5.7270 C.3    38  VAL38       0.0022
     55  CG2       -1.4500   15.7900    4.4360 C.3    38  VAL38       0.0022
     56  N          1.6550   20.7420    0.7150 N.3    41  VAL41      -0.1231
     57  CA         0.5350   21.6750    0.7630 C.3    41  VAL41       0.1692
     58  C          0.8040   22.7870    1.7800 C.2    41  VAL41       0.2592
     59  O          0.5470   23.9630    1.4990 O.2    41  VAL41      -0.2718
     60  CB        -0.8030   20.9300    1.0370 C.3    41  VAL41       0.0266
     61  CG1       -1.9760   21.9120    1.2940 C.3    41  VAL41       0.0020
     62  CG2       -1.1530   20.0020   -0.1550 C.3    41  VAL41       0.0020
     63  N          1.3320   22.4230    2.9520 N.am   42  GLY42      -0.1957
     64  CA         1.6530   23.4140    3.9780 C.3    42  GLY42       0.1869
     65  C          2.7500   24.3610    3.5260 C.2    42  GLY42       0.2309
     66  O          2.6530   25.5740    3.7210 O.2    42  GLY42      -0.2863
     67  N          1.3650   28.1650    2.9130 N.3    46  ILE46      -0.1245
     68  CA         1.8140   29.2520    3.7790 C.3    46  ILE46       0.1561
     69  C          2.5100   30.3300    2.9610 C.2    46  ILE46       0.2260
     70  O          2.2440   31.5210    3.1410 O.2    46  ILE46      -0.2867
     71  CB         2.7510   28.7380    4.9210 C.3    46  ILE46       0.0252
     72  CG1        1.9490   27.8170    5.8560 C.3    46  ILE46       0.0019
     73  CG2        3.4120   29.9200    5.6700 C.3    46  ILE46       0.0019
     74  CD1        2.7970   27.0350    6.9020 C.3    46  ILE46       0.0001
@<TRIPOS>BOND
     1    19    18    1
     2    16    17    1
     3    16    15    1
     4    18    17    2
     5    18    20    1
     6    15    14    1
     7    48    47    1
     8     6     7    1
     9    45    47   ar
    10    45    43   ar
    11    14    11    1
    12     3     4    2
    13     3     2    1
    14    47    46   ar
    15     1     2    1
    16    10    11    1
    17    10     8   am
    18     2     5    1
    19    43    42   ar
    20    11    12    1
    21     7     8    1
    22    12    13    2
    23    46    44   ar
    24     8     9    2
    25    42    44   ar
    26    42    41    1
    27    21    22    1
    28    41    38    1
    29    62    60    1
    30    38    37    1
    31    38    39    1
    32    22    23    1
    33    22    25    1
    34    56    57    1
    35    57    60    1
    36    57    58    1
    37    40    39    2
    38    23    24    2
    39    60    61    1
    40    39    49   am
    41    59    58    2
    42    58    63   am
    43    49    50    1
    44    26    27    1
    45    27    28    1
    46    27    30    1
    47    67    68    1
    48    63    64    1
    49    69    70    2
    50    69    68    1
    51    29    28    2
    52    50    51    1
    53    50    53    1
    54    65    66    2
    55    65    64    1
    56    30    31    1
    57    51    52    2
    58    68    71    1
    59    31    32    1
    60    55    53    1
    61    32    33    1
    62    53    54    1
    63    71    73    1
    64    71    72    1
    65    35    34    1
    66    72    74    1
    67    33    34    2
    68    34    36    1
