@<TRIPOS>MOLECULE
tmp/3qdcA02.pdb
 152 144 0 0 0
SMALL
GASTEIGER

@<TRIPOS>ATOM
      1  N          0.2440   24.6560   -4.5970 N.3    19  THR19      -0.1218
      2  CA        -0.6380   24.2000   -3.5190 C.3    19  THR19       0.1862
      3  C         -1.7990   23.3390   -4.0530 C.2    19  THR19       0.2287
      4  O         -2.1210   22.2910   -3.4870 O.2    19  THR19      -0.2866
      5  CB        -1.2130   25.3870   -2.7380 C.3    19  THR19       0.1770
      6  OG1       -0.1440   26.2180   -2.2920 O.3    19  THR19      -0.2211
      7  CG2       -2.0360   24.9100   -1.5010 C.3    19  THR19       0.0375
      8  N          1.6550   20.7420    0.7150 N.3    41  VAL41      -0.1231
      9  CA         0.5350   21.6750    0.7630 C.3    41  VAL41       0.1692
     10  C          0.8040   22.7870    1.7800 C.2    41  VAL41       0.2592
     11  O          0.5470   23.9630    1.4990 O.2    41  VAL41      -0.2718
     12  CB        -0.8030   20.9300    1.0370 C.3    41  VAL41       0.0266
     13  CG1       -1.9760   21.9120    1.2940 C.3    41  VAL41       0.0020
     14  CG2       -1.1530   20.0020   -0.1550 C.3    41  VAL41       0.0020
     15  N          1.3320   22.4230    2.9520 N.am   42  GLY42      -0.1957
     16  CA         1.6530   23.4140    3.9780 C.3    42  GLY42       0.1869
     17  C          2.7500   24.3610    3.5260 C.2    42  GLY42       0.2309
     18  O          2.6530   25.5740    3.7210 O.2    42  GLY42      -0.2863
     19  N          1.3030   26.4880    0.5670 N.3    45  GLY45      -0.1210
     20  CA         0.1080   27.1970    1.0500 C.3    45  GLY45       0.1956
     21  C          0.4670   28.3820    1.9530 C.2    45  GLY45       0.2611
     22  O         -0.0740   29.4780    1.7920 O.2    45  GLY45      -0.2717
     23  N          1.3650   28.1650    2.9130 N.am   46  ILE46      -0.1979
     24  CA         1.8140   29.2520    3.7790 C.3    46  ILE46       0.1595
     25  C          2.5100   30.3300    2.9610 C.2    46  ILE46       0.2287
     26  O          2.2440   31.5210    3.1410 O.2    46  ILE46      -0.2864
     27  CB         2.7510   28.7380    4.9210 C.3    46  ILE46       0.0276
     28  CG1        1.9490   27.8170    5.8560 C.3    46  ILE46       0.0022
     29  CG2        3.4120   29.9200    5.6700 C.3    46  ILE46       0.0022
     30  CD1        2.7970   27.0350    6.9020 C.3    46  ILE46       0.0001
     31  N          0.0280   32.5610    1.1040 N.3    49  VAL49      -0.1231
     32  CA        -0.5850   33.5390    1.9830 C.3    49  VAL49       0.1692
     33  C          0.3680   34.6900    2.1890 C.2    49  VAL49       0.2591
     34  O         -0.0170   35.8400    2.0130 O.2    49  VAL49      -0.2718
     35  CB        -1.0100   32.9130    3.3510 C.3    49  VAL49       0.0266
     36  CG1       -1.3520   34.0040    4.3850 C.3    49  VAL49       0.0020
     37  CG2       -2.1690   31.9720    3.1360 C.3    49  VAL49       0.0020
     38  N          1.6320   34.3770    2.5110 N.am   50  ALA50      -0.1980
     39  CA         2.6330   35.4120    2.7120 C.3    50  ALA50       0.1597
     40  C          2.7840   36.3360    1.5040 C.2    50  ALA50       0.2287
     41  O          2.8670   37.5580    1.6730 O.2    50  ALA50      -0.2864
     42  CB         3.9880   34.8000    3.0610 C.3    50  ALA50       0.0319
     43  N         -0.2990   38.6480    1.1450 N.3    53  VAL53      -0.1245
     44  CA        -0.1900   39.7090    2.1560 C.3    53  VAL53       0.1561
     45  C          0.7790   40.8010    1.6860 C.2    53  VAL53       0.2260
     46  O          0.4670   41.9950    1.7620 O.2    53  VAL53      -0.2867
     47  CB         0.2580   39.1160    3.5350 C.3    53  VAL53       0.0252
     48  CG1        0.7770   40.2020    4.4890 C.3    53  VAL53       0.0019
     49  CG2       -0.8870   38.3630    4.1760 C.3    53  VAL53       0.0019
     50  N          1.0600   44.7520    2.7430 N.3    58  VAL58      -0.1231
     51  CA         1.0920   44.5790    4.1960 C.3    58  VAL58       0.1692
     52  C          2.4550   44.0590    4.6230 C.2    58  VAL58       0.2593
     53  O          3.0310   43.1830    3.9600 O.2    58  VAL58      -0.2718
     54  CB        -0.0180   43.5900    4.7060 C.3    58  VAL58       0.0266
     55  CG1        0.0740   43.4050    6.2290 C.3    58  VAL58       0.0020
     56  CG2       -1.4160   44.0640    4.3110 C.3    58  VAL58       0.0020
     57  N          2.9670   44.5910    5.7280 N.am   59  GLY59      -0.1942
     58  CA         4.1780   44.0520    6.3370 C.3    59  GLY59       0.2014
     59  C          5.4490   44.5470    5.6820 C.2    59  GLY59       0.2639
     60  O          6.5040   43.9210    5.8160 O.2    59  GLY59      -0.2714
     61  N          5.3570   45.6670    4.9680 N.am   60  TRP60      -0.1959
     62  CA         6.5470   46.3500    4.4680 C.3    60  TRP60       0.1771
     63  C          7.0350   47.2450    5.6200 C.2    60  TRP60       0.2619
     64  O          6.4920   48.3220    5.8410 O.2    60  TRP60      -0.2715
     65  CB         6.2130   47.2140    3.2410 C.3    60  TRP60       0.0590
     66  CG         5.6470   46.4810    2.0170 C.ar   60  TRP60       0.0006
     67  CD1        5.0110   45.2530    1.9890 C.ar   60  TRP60       0.0946
     68  CD2        5.6190   46.9750    0.6660 C.ar   60  TRP60       0.0152
     69  NE1        4.6070   44.9670    0.7010 N.ar   60  TRP60      -0.2442
     70  CE2        4.9670   46.0030   -0.1250 C.ar   60  TRP60       0.0810
     71  CE3        6.1040   48.1380    0.0490 C.ar   60  TRP60       0.0012
     72  CZ2        4.7850   46.1560   -1.5050 C.ar   60  TRP60       0.0191
     73  CZ3        5.9130   48.2990   -1.3220 C.ar   60  TRP60       0.0001
     74  CH2        5.2540   47.3100   -2.0850 C.ar   60  TRP60       0.0015
     75  N          8.0320   46.7910    6.3730 N.am   61  VAL61      -0.1977
     76  CA         8.4270   47.5000    7.5970 C.3    61  VAL61       0.1596
     77  C          9.6600   48.3700    7.3500 C.2    61  VAL61       0.2287
     78  O         10.6850   47.8630    6.8880 O.2    61  VAL61      -0.2864
     79  CB         8.6980   46.5100    8.7780 C.3    61  VAL61       0.0276
     80  CG1        9.0110   47.2840   10.0840 C.3    61  VAL61       0.0022
     81  CG2        7.5190   45.5580    8.9690 C.3    61  VAL61       0.0022
     82  N          8.4490   41.7070    6.3980 N.3    70  ALA70      -0.1231
     83  CA         8.1700   40.8320    7.5450 C.3    70  ALA70       0.1679
     84  C          7.5270   39.4780    7.1370 C.2    70  ALA70       0.2434
     85  O          7.9600   38.4390    7.6290 O.2    70  ALA70      -0.2733
     86  CB         7.3070   41.5800    8.6230 C.3    70  ALA70       0.0304
     87  N          6.5320   39.4800    6.2090 N.am   71  PRO71      -0.2729
     88  CA         5.9000   38.1890    5.8860 C.3    71  PRO71       0.1401
     89  C          6.8340   37.1880    5.2330 C.2    71  PRO71       0.2269
     90  O          6.6440   35.9900    5.4160 O.2    71  PRO71      -0.2865
     91  CB         4.7270   38.5760    4.9580 C.3    71  PRO71       0.0296
     92  CG         4.3990   40.0550    5.4080 C.3    71  PRO71       0.0237
     93  CD         5.7990   40.6100    5.5920 C.3    71  PRO71       0.0939
     94  N          8.5750   35.5300    8.2510 N.3    74  ILE74      -0.1231
     95  CA         7.5830   34.6960    8.9520 C.3    74  ILE74       0.1692
     96  C          7.2800   33.4230    8.1450 C.2    74  ILE74       0.2592
     97  O          7.2350   32.2990    8.7100 O.2    74  ILE74      -0.2718
     98  CB         6.3200   35.5050    9.2690 C.3    74  ILE74       0.0266
     99  CG1        6.6750   36.6120   10.2840 C.3    74  ILE74       0.0019
    100  CG2        5.1950   34.5960    9.7960 C.3    74  ILE74       0.0020
    101  CD1        5.6770   37.7530   10.3330 C.3    74  ILE74       0.0001
    102  N          7.0770   33.6070    6.8330 N.am   75  ASP75      -0.1974
    103  CA         6.9710   32.4930    5.8740 C.3    75  ASP75       0.1709
    104  C          8.1460   31.5320    6.0870 C.2    75  ASP75       0.2293
    105  O          7.9210   30.3580    6.3680 O.2    75  ASP75      -0.2864
    106  CB         6.8970   33.0530    4.4300 C.3    75  ASP75       0.1436
    107  CG         7.1050   31.9940    3.3110 C.2    75  ASP75       0.3671
    108  OD1        7.5100   30.8250    3.5340 O.co2  75  ASP75      -0.2456
    109  OD2        6.8700   32.3840    2.1420 O.co2  75  ASP75      -0.2456
    110  N         10.2890   31.0860    8.4970 N.3    77  ILE77      -0.1231
    111  CA        10.3210   30.4610    9.8200 C.3    77  ILE77       0.1692
    112  C          9.4050   29.2420    9.8910 C.2    77  ILE77       0.2591
    113  O          9.7320   28.2380   10.5350 O.2    77  ILE77      -0.2718
    114  CB         9.9980   31.4910   10.9350 C.3    77  ILE77       0.0266
    115  CG1       11.1830   32.4420   11.0790 C.3    77  ILE77       0.0019
    116  CG2        9.6860   30.7930   12.2790 C.3    77  ILE77       0.0020
    117  CD1       10.8510   33.7810   11.7490 C.3    77  ILE77       0.0001
    118  N          8.2630   29.3470    9.2190 N.am   78  LEU78      -0.1980
    119  CA         7.2470   28.2970    9.1940 C.3    78  LEU78       0.1596
    120  C          7.4540   27.2320    8.1140 C.2    78  LEU78       0.2287
    121  O          7.1230   26.0560    8.3180 O.2    78  LEU78      -0.2864
    122  CB         5.8580   28.9290    9.0000 C.3    78  LEU78       0.0297
    123  CG         5.3770   29.8670   10.1160 C.3    78  LEU78       0.0022
    124  CD1        4.0480   30.5820    9.7200 C.3    78  LEU78       0.0001
    125  CD2        5.1960   29.0590   11.4350 C.3    78  LEU78       0.0001
    126  N         15.4060   32.6020   12.4100 N.3   110  LEU110     -0.1245
    127  CA        15.2280   33.6090   13.4680 C.3   110  LEU110      0.1561
    128  C         16.3560   34.6510   13.4290 C.2   110  LEU110      0.2260
    129  O         16.0990   35.8540   13.5560 O.2   110  LEU110     -0.2867
    130  CB        15.1950   32.9560   14.8520 C.3   110  LEU110      0.0270
    131  CG        13.9840   32.0980   15.2040 C.3   110  LEU110      0.0019
    132  CD1       14.1200   31.6450   16.6720 C.3   110  LEU110      0.0001
    133  CD2       12.6650   32.8510   15.0090 C.3   110  LEU110      0.0001
    134  N         15.8010   36.9540   10.4410 N.3   113  PHE113     -0.1241
    135  CA        14.6780   37.8750   10.6480 C.3   113  PHE113      0.1605
    136  C         15.1140   38.9630   11.6210 C.2   113  PHE113      0.2264
    137  O         14.9360   40.1610   11.3620 O.2   113  PHE113     -0.2867
    138  CB        13.4610   37.1260   11.1970 C.3   113  PHE113      0.0534
    139  CG        12.1980   37.9620   11.2840 C.ar  113  PHE113     -0.0203
    140  CD1       12.0500   39.1470   10.5590 C.ar  113  PHE113     -0.0042
    141  CD2       11.1400   37.5310   12.0540 C.ar  113  PHE113     -0.0042
    142  CE1       10.8860   39.8960   10.6260 C.ar  113  PHE113     -0.0003
    143  CE2        9.9480   38.2920   12.1210 C.ar  113  PHE113     -0.0003
    144  CZ         9.8420   39.4740   11.4070 C.ar  113  PHE113     -0.0000
    145  N         15.7330   43.1430   11.0730 N.3   117  MET117     -0.1245
    146  CA        14.9850   44.1330   11.8690 C.3   117  MET117      0.1570
    147  C         15.8630   45.0670   12.7190 C.2   117  MET117      0.2261
    148  O         15.3630   46.0650   13.2380 O.2   117  MET117     -0.2867
    149  CB        13.9620   43.4370   12.7740 C.3   117  MET117      0.0387
    150  CG        12.8610   42.7020   12.0440 C.3   117  MET117      0.0595
    151  SD        11.7800   43.7820   11.0760 S.3   117  MET117     -0.1393
    152  CE        10.8930   44.6410   12.3810 C.3   117  MET117      0.0692
@<TRIPOS>BOND
     1     1     2    1
     2     3     2    1
     3     3     4    2
     4     2     5    1
     5     5     6    1
     6     5     7    1
     7    74    72   ar
     8    74    73   ar
     9    72    70   ar
    10    73    71   ar
    11    14    12    1
    12    70    68   ar
    13    70    69   ar
    14    71    68   ar
    15    19    20    1
    16    68    66   ar
    17    69    67   ar
    18     8     9    1
    19     9    12    1
    20     9    10    1
    21    12    13    1
    22    20    21    1
    23    31    32    1
    24    43    44    1
    25    11    10    2
    26    40    41    2
    27    40    39    1
    28    45    46    2
    29    45    44    1
    30    10    15   am
    31    22    21    2
    32    21    23   am
    33    32    33    1
    34    32    35    1
    35    67    66   ar
    36    34    33    2
    37    66    65    1
    38   109   107   ar
    39    44    47    1
    40    33    38   am
    41    38    39    1
    42    39    42    1
    43    50    51    1
    44    23    24    1
    45    15    16    1
    46    25    26    2
    47    25    24    1
    48    37    35    1
    49    65    62    1
    50   107   108   ar
    51   107   106    1
    52    35    36    1
    53    17    18    2
    54    17    16    1
    55    47    49    1
    56    47    48    1
    57    24    27    1
    58    53    52    2
    59    51    52    1
    60    51    54    1
    61    56    54    1
    62   106   103    1
    63    62    61    1
    64    62    63    1
    65    52    57   am
    66    54    55    1
    67    27    29    1
    68    27    28    1
    69    91    92    1
    70    91    88    1
    71    61    59   am
    72    89    90    2
    73    89    88    1
    74    92    93    1
    75    93    87    1
    76    63    64    2
    77    63    75   am
    78    59    60    2
    79    59    58    1
    80    57    58    1
    81    28    30    1
    82   103   104    1
    83   103   102    1
    84    88    87    1
    85   104   105    2
    86    87    84   am
    87    75    76    1
    88    82    83    1
    89   102    96   am
    90    78    77    2
    91    84    83    1
    92    84    85    2
    93    77    76    1
    94    83    86    1
    95    76    79    1
    96   120   121    2
    97   120   119    1
    98    96    97    2
    99    96    95    1
   100    94    95    1
   101   110   111    1
   102    79    81    1
   103    79    80    1
   104    95    98    1
   105   122   119    1
   106   122   123    1
   107   119   118    1
   108   118   112   am
   109    98   100    1
   110    98    99    1
   111   124   123    1
   112   111   112    1
   113   111   114    1
   114   112   113    2
   115   123   125    1
   116    99   101    1
   117   134   135    1
   118   140   142   ar
   119   140   139   ar
   120   142   144   ar
   121   135   138    1
   122   135   136    1
   123   114   115    1
   124   114   116    1
   125   145   146    1
   126   151   150    1
   127   151   152    1
   128   115   117    1
   129   138   139    1
   130   139   141   ar
   131   137   136    2
   132   144   143   ar
   133   146   147    1
   134   146   149    1
   135   150   149    1
   136   141   143   ar
   137   126   127    1
   138   147   148    2
   139   128   127    1
   140   128   129    2
   141   127   130    1
   142   130   131    1
   143   133   131    1
   144   131   132    1
