@<TRIPOS>MOLECULE
tmp/3qdcA14.pdb
 117 109 0 0 0
SMALL
GASTEIGER

@<TRIPOS>ATOM
      1  N          1.1230    5.6410    4.0430 N.3    32  GLY32      -0.1210
      2  CA         2.5310    6.0090    4.2330 C.3    32  GLY32       0.1956
      3  C          2.9290    7.2820    3.5040 C.2    32  GLY32       0.2611
      4  O          3.8620    7.9770    3.9230 O.2    32  GLY32      -0.2717
      5  N          2.2190    7.5890    2.4200 N.am   33  GLU33      -0.1979
      6  CA         2.5690    8.6980    1.5380 C.3    33  GLU33       0.1602
      7  C          1.9040   10.0450    1.8790 C.2    33  GLU33       0.2287
      8  O          2.4390   11.0950    1.5160 O.2    33  GLU33      -0.2864
      9  CB         2.2730    8.3370    0.0730 C.3    33  GLU33       0.0415
     10  CG         3.3720    7.5390   -0.6240 C.3    33  GLU33       0.1163
     11  CD         3.3430    7.6840   -2.1460 C.2    33  GLU33       0.3649
     12  OE1        2.4320    8.3520   -2.6830 O.co2  33  GLU33      -0.2457
     13  OE2        4.2420    7.1280   -2.8110 O.co2  33  GLU33      -0.2457
     14  N          3.6840   13.2730    3.2590 N.3    36  TYR36      -0.1227
     15  CA         4.5140   14.0290    2.3360 C.3    36  TYR36       0.1736
     16  C          3.6930   15.0700    1.5730 C.2    36  TYR36       0.2595
     17  O          4.1390   16.1970    1.3730 O.2    36  TYR36      -0.2718
     18  CB         5.1970   13.0760    1.3520 C.3    36  TYR36       0.0548
     19  CG         6.2670   12.1890    1.9620 C.ar   36  TYR36      -0.0200
     20  CD1        7.5760   12.6430    2.1210 C.ar   36  TYR36      -0.0009
     21  CD2        5.9720   10.8830    2.3540 C.ar   36  TYR36      -0.0009
     22  CE1        8.5640   11.8210    2.6570 C.ar   36  TYR36       0.0417
     23  CE2        6.9570   10.0480    2.9070 C.ar   36  TYR36       0.0417
     24  CZ         8.2460   10.5200    3.0430 C.ar   36  TYR36       0.1957
     25  OH         9.2070    9.6990    3.5790 O.3    36  TYR36      -0.2866
     26  N          2.4960   14.6820    1.1280 N.am   37  TYR37      -0.1976
     27  CA         1.6440   15.6080    0.3840 C.3    37  TYR37       0.1639
     28  C          1.1060   16.7420    1.2550 C.2    37  TYR37       0.2290
     29  O          1.0880   17.8920    0.8380 O.2    37  TYR37      -0.2864
     30  CB         0.4950   14.8610   -0.3060 C.3    37  TYR37       0.0560
     31  CG         0.9590   13.9590   -1.4200 C.ar   37  TYR37      -0.0198
     32  CD1        1.1330   14.4510   -2.7100 C.ar   37  TYR37      -0.0009
     33  CD2        1.2200   12.6030   -1.1880 C.ar   37  TYR37      -0.0009
     34  CE1        1.5570   13.6190   -3.7470 C.ar   37  TYR37       0.0417
     35  CE2        1.6500   11.7700   -2.2150 C.ar   37  TYR37       0.0417
     36  CZ         1.8190   12.2850   -3.4910 C.ar   37  TYR37       0.1957
     37  OH         2.2410   11.4720   -4.5180 O.3    37  TYR37      -0.2866
     38  N          3.8270   19.2300    1.7440 N.3    40  LEU40      -0.1245
     39  CA         3.9960   20.0780    0.5400 C.3    40  LEU40       0.1561
     40  C          2.8870   21.1440    0.4200 C.2    40  LEU40       0.2260
     41  O          3.1430   22.3110    0.0570 O.2    40  LEU40      -0.2867
     42  CB         4.0300   19.2070   -0.7270 C.3    40  LEU40       0.0270
     43  CG         5.2910   18.3650   -0.9940 C.3    40  LEU40       0.0019
     44  CD1        5.1130   17.4730   -2.2510 C.3    40  LEU40       0.0001
     45  CD2        6.5660   19.2270   -1.1120 C.3    40  LEU40       0.0001
     46  N         10.3150   17.2200    5.5340 N.3    86  PHE86      -0.1241
     47  CA        10.0920   16.3950    4.3390 C.3    86  PHE86       0.1605
     48  C         11.3690   15.6030    3.9980 C.2    86  PHE86       0.2264
     49  O         11.3160   14.3950    3.7490 O.2    86  PHE86      -0.2867
     50  CB         9.7040   17.2970    3.1610 C.3    86  PHE86       0.0534
     51  CG         9.2280   16.5470    1.9370 C.ar   86  PHE86      -0.0203
     52  CD1        7.8670   16.5070    1.6160 C.ar   86  PHE86      -0.0042
     53  CD2       10.1440   15.9210    1.0770 C.ar   86  PHE86      -0.0042
     54  CE1        7.4060   15.8190    0.4490 C.ar   86  PHE86      -0.0003
     55  CE2        9.7010   15.2340   -0.0880 C.ar   86  PHE86      -0.0003
     56  CZ         8.3290   15.1890   -0.3990 C.ar   86  PHE86      -0.0000
     57  N         12.0590   11.5170    4.2640 N.3    90  LEU90      -0.1245
     58  CA        12.6440   10.8030    3.1390 C.3    90  LEU90       0.1561
     59  C         13.9050   10.0470    3.5740 C.2    90  LEU90       0.2260
     60  O         14.0960    8.8730    3.2100 O.2    90  LEU90      -0.2867
     61  CB        12.9530   11.7940    2.0130 C.3    90  LEU90       0.0270
     62  CG        13.0970   11.2390    0.6020 C.3    90  LEU90       0.0019
     63  CD1       11.8800   10.3770    0.2520 C.3    90  LEU90       0.0001
     64  CD2       13.2550   12.3900   -0.3820 C.3    90  LEU90       0.0001
     65  N         17.4610    3.2710    2.6960 N.3   152  ARG152     -0.1245
     66  CA        16.2380    3.1940    1.9170 C.3   152  ARG152      0.1563
     67  C         16.5440    2.5520    0.5720 C.2   152  ARG152      0.2260
     68  O         17.7050    2.3390    0.2300 O.2   152  ARG152     -0.2867
     69  CB        15.6780    4.6000    1.6840 C.3   152  ARG152      0.0307
     70  CG        15.3550    5.3780    2.9530 C.3   152  ARG152      0.0489
     71  CD        14.0160    4.9670    3.4900 C.3   152  ARG152      0.2205
     72  NE        13.2170    6.1320    3.8270 N.pl3 152  ARG152     -0.0865
     73  CZ        11.8940    6.1770    3.7300 C.cat 152  ARG152      0.5346
     74  NH1       11.2150    5.1210    3.2970 N.pl3 152  ARG152      0.1354
     75  NH2       11.2520    7.2820    4.0650 N.pl3 152  ARG152      0.1354
     76  N         14.4400    5.8630   -3.5010 N.3   156  ILE156     -0.1245
     77  CA        14.1870    6.8410   -2.4340 C.3   156  ILE156      0.1561
     78  C         15.4680    7.5800   -2.1210 C.2   156  ILE156      0.2260
     79  O         15.4620    8.8140   -1.9460 O.2   156  ILE156     -0.2867
     80  CB        13.5830    6.1610   -1.1500 C.3   156  ILE156      0.0252
     81  CG1       12.1660    5.6750   -1.4450 C.3   156  ILE156      0.0019
     82  CG2       13.5610    7.1090    0.0680 C.3   156  ILE156      0.0019
     83  CD1       11.2000    6.8130   -1.8130 C.3   156  ILE156      0.0001
     84  N         15.9710   10.0600   -4.9060 N.3   159  LEU159     -0.1245
     85  CA        15.1010   11.2110   -4.6710 C.3   159  LEU159      0.1561
     86  C         15.6500   12.0790   -3.5430 C.2   159  LEU159      0.2260
     87  O         15.6650   13.3110   -3.6550 O.2   159  LEU159     -0.2867
     88  CB        13.6670   10.7930   -4.3510 C.3   159  LEU159      0.0270
     89  CG        12.7050   11.9670   -4.0770 C.3   159  LEU159      0.0019
     90  CD1       12.6500   12.9950   -5.2530 C.3   159  LEU159      0.0001
     91  CD2       11.3220   11.4350   -3.7460 C.3   159  LEU159      0.0001
     92  N          9.4150   15.8400   -6.3720 N.3   212  ALA212     -0.1231
     93  CA         8.9390   14.7350   -5.5260 C.3   212  ALA212      0.1694
     94  C          7.7090   14.0350   -6.1420 C.2   212  ALA212      0.2591
     95  O          7.6250   12.7970   -6.1520 O.2   212  ALA212     -0.2718
     96  CB         8.6410   15.2400   -4.0870 C.3   212  ALA212      0.0304
     97  N          6.7600   14.8180   -6.6560 N.am  213  LEU213     -0.1980
     98  CA         5.5780   14.2600   -7.3370 C.3   213  LEU213      0.1596
     99  C          5.9580   13.3510   -8.4930 C.2   213  LEU213      0.2287
    100  O          5.3950   12.2470   -8.6610 O.2   213  LEU213     -0.2864
    101  CB         4.6710   15.3850   -7.8570 C.3   213  LEU213      0.0297
    102  CG         3.4030   15.7550   -7.0750 C.3   213  LEU213      0.0022
    103  CD1        3.6650   16.0570   -5.5910 C.3   213  LEU213      0.0001
    104  CD2        2.6860   16.9260   -7.7590 C.3   213  LEU213      0.0001
    105  N          7.6200   10.1420   -7.1340 N.3   216  ALA216     -0.1245
    106  CA         6.5890    9.3430   -6.4600 C.3   216  ALA216      0.1562
    107  C          5.7660    8.5120   -7.4410 C.2   216  ALA216      0.2260
    108  O          5.4230    7.3630   -7.1560 O.2   216  ALA216     -0.2867
    109  CB         5.6680   10.2380   -5.6350 C.3   216  ALA216      0.0290
    110  N          8.0390    5.9190   -9.0910 N.3   219  LEU219     -0.1245
    111  CA         8.2120    4.8110   -8.1570 C.3   219  LEU219      0.1561
    112  C          7.0040    3.8950   -8.2030 C.2   219  LEU219      0.2260
    113  O          7.1540    2.6710   -8.1600 O.2   219  LEU219     -0.2867
    114  CB         8.4190    5.3170   -6.7240 C.3   219  LEU219      0.0270
    115  CG         9.7860    5.8920   -6.3540 C.3   219  LEU219      0.0019
    116  CD1        9.7410    6.5020   -4.9790 C.3   219  LEU219      0.0001
    117  CD2       10.9000    4.8590   -6.4550 C.3   219  LEU219      0.0001
@<TRIPOS>BOND
     1   110   111    1
     2   100    99    2
     3    99    98    1
     4   112   113    2
     5   112   111    1
     6   111   114    1
     7   101    98    1
     8   101   102    1
     9   104   102    1
    10   107   108    2
    11   107   106    1
    12    98    97    1
    13   105   106    1
    14   102   103    1
    15   114   115    1
    16    97    94   am
    17   106   109    1
    18   117   115    1
    19    92    93    1
    20   115   116    1
    21    95    94    2
    22    94    93    1
    23    93    96    1
    24    90    89    1
    25    84    85    1
    26    85    88    1
    27    85    86    1
    28    37    36    1
    29    88    89    1
    30    89    91    1
    31    34    36   ar
    32    34    32   ar
    33    87    86    2
    34    76    77    1
    35    36    35   ar
    36    13    11   ar
    37    32    31   ar
    38    12    11   ar
    39    77    78    1
    40    77    80    1
    41    44    43    1
    42    35    33   ar
    43    11    10    1
    44    78    79    2
    45    83    81    1
    46    81    80    1
    47    31    33   ar
    48    31    30    1
    49    80    82    1
    50    45    43    1
    51    43    42    1
    52    42    39    1
    53    10     9    1
    54    56    55   ar
    55    56    54   ar
    56    64    62    1
    57    30    27    1
    58    55    53   ar
    59    41    40    2
    60     9     6    1
    61    68    67    2
    62    63    62    1
    63    27    26    1
    64    27    28    1
    65    40    39    1
    66    54    52   ar
    67    39    38    1
    68    67    66    1
    69    62    61    1
    70    29    28    2
    71    53    51   ar
    72    26    16   am
    73    18    19    1
    74    18    15    1
    75    17    16    2
    76     8     7    2
    77     6     7    1
    78     6     5    1
    79    16    15    1
    80    52    51   ar
    81    69    66    1
    82    69    70    1
    83    66    65    1
    84    51    50    1
    85    19    20   ar
    86    19    21   ar
    87    61    58    1
    88    20    22   ar
    89    15    14    1
    90    21    23   ar
    91     5     3   am
    92    22    24   ar
    93    23    24   ar
    94    70    71    1
    95    24    25    1
    96    58    59    1
    97    58    57    1
    98    50    47    1
    99    60    59    2
   100    74    73    1
   101    71    72    1
   102     3     4    2
   103     3     2    1
   104    73    72    2
   105    73    75    1
   106    49    48    2
   107    48    47    1
   108     1     2    1
   109    47    46    1
