@<TRIPOS>MOLECULE
tmp/3qdcA03.pdb
 95 90 0 0 0
SMALL
GASTEIGER

@<TRIPOS>ATOM
      1  N         23.3290   37.9880   11.4130 N.3   127  PHE127     -0.1241
      2  CA        23.5480   37.2890   10.1370 C.3   127  PHE127      0.1605
      3  C         24.5980   36.1690   10.3390 C.2   127  PHE127      0.2264
      4  O         24.4280   35.0600    9.8610 O.2   127  PHE127     -0.2867
      5  CB        24.0380   38.2600    9.0640 C.3   127  PHE127      0.0534
      6  CG        24.4760   37.5560    7.8120 C.ar  127  PHE127     -0.0203
      7  CD1       23.5330   37.1930    6.8470 C.ar  127  PHE127     -0.0042
      8  CD2       25.8140   37.1740    7.6430 C.ar  127  PHE127     -0.0042
      9  CE1       23.9170   36.5080    5.6820 C.ar  127  PHE127     -0.0003
     10  CE2       26.2210   36.4770    6.4620 C.ar  127  PHE127     -0.0003
     11  CZ        25.2600   36.1370    5.5010 C.ar  127  PHE127     -0.0000
     12  N         24.5180   32.2110    9.6090 N.3   131  ALA131     -0.1245
     13  CA        25.4100   31.5790    8.6240 C.3   131  ALA131      0.1562
     14  C         26.0780   30.3470    9.2520 C.2   131  ALA131      0.2260
     15  O         26.2020   29.3040    8.5960 O.2   131  ALA131     -0.2867
     16  CB        26.4690   32.5690    8.0880 C.3   131  ALA131      0.0290
     17  N         23.5670   27.5440    9.5530 N.3   134  PHE134     -0.1227
     18  CA        23.3540   27.0160    8.1870 C.3   134  PHE134      0.1736
     19  C         24.4620   26.0360    7.7460 C.2   134  PHE134      0.2595
     20  O         24.1760   24.9800    7.1880 O.2   134  PHE134     -0.2718
     21  CB        23.2260   28.1640    7.1650 C.3   134  PHE134      0.0547
     22  CG        22.9900   27.6920    5.7500 C.ar  134  PHE134     -0.0202
     23  CD1       21.7650   27.1230    5.3960 C.ar  134  PHE134     -0.0042
     24  CD2       23.9980   27.8130    4.7750 C.ar  134  PHE134     -0.0042
     25  CE1       21.5320   26.6610    4.0840 C.ar  134  PHE134     -0.0003
     26  CE2       23.7840   27.3760    3.4350 C.ar  134  PHE134     -0.0003
     27  CZ        22.5410   26.7890    3.0980 C.ar  134  PHE134     -0.0000
     28  N         25.7160   26.3610    8.0360 N.am  135  LEU135     -0.1980
     29  CA        26.7950   25.3940    7.7700 C.3   135  LEU135      0.1596
     30  C         26.5600   24.0570    8.4980 C.2   135  LEU135      0.2287
     31  O         26.7760   22.9740    7.9300 O.2   135  LEU135     -0.2864
     32  CB        28.1600   25.9790    8.1460 C.3   135  LEU135      0.0297
     33  CG        28.5900   27.1850    7.3050 C.3   135  LEU135      0.0022
     34  CD1       29.8970   27.7700    7.8740 C.3   135  LEU135      0.0001
     35  CD2       28.7310   26.8290    5.8090 C.3   135  LEU135      0.0001
     36  N         23.7380   22.2540    6.6150 N.3   138  VAL138     -0.1245
     37  CA        24.2950   21.6690    5.3950 C.3   138  VAL138      0.1561
     38  C         25.0990   20.4010    5.7040 C.2   138  VAL138      0.2260
     39  O         24.9370   19.3690    5.0240 O.2   138  VAL138     -0.2867
     40  CB        25.1390   22.7110    4.5820 C.3   138  VAL138      0.0252
     41  CG1       25.9500   22.0150    3.4540 C.3   138  VAL138      0.0019
     42  CG2       24.2310   23.7710    3.9840 C.3   138  VAL138      0.0019
     43  N         24.1820   16.7590    4.0540 N.3   142  VAL142     -0.1245
     44  CA        25.1140   16.0690    3.1500 C.3   142  VAL142      0.1561
     45  C         25.8290   14.8940    3.8220 C.2   142  VAL142      0.2260
     46  O         26.3260   13.9900    3.1360 O.2   142  VAL142     -0.2867
     47  CB        26.1460   17.0340    2.4720 C.3   142  VAL142      0.0252
     48  CG1       25.4350   18.1650    1.6880 C.3   142  VAL142      0.0019
     49  CG2       27.1470   17.5960    3.4810 C.3   142  VAL142      0.0019
     50  N         20.3950   22.3150   -0.9050 N.3   168  VAL168     -0.1231
     51  CA        21.6760   22.8490   -0.4390 C.3   168  VAL168      0.1692
     52  C         22.1650   23.9720   -1.3790 C.2   168  VAL168      0.2591
     53  O         22.6240   25.0130   -0.9320 O.2   168  VAL168     -0.2718
     54  CB        22.7660   21.7360   -0.2890 C.3   168  VAL168      0.0266
     55  CG1       24.1980   22.3440   -0.1590 C.3   168  VAL168      0.0020
     56  CG2       22.4620   20.8500    0.9460 C.3   168  VAL168      0.0020
     57  N         22.0620   23.7390   -2.6770 N.am  169  ILE169     -0.1980
     58  CA        22.6420   24.6770   -3.6510 C.3   169  ILE169      0.1595
     59  C         21.8270   25.9800   -3.6590 C.2   169  ILE169      0.2287
     60  O         22.4030   27.0940   -3.6290 O.2   169  ILE169     -0.2864
     61  CB        22.6900   24.0660   -5.0730 C.3   169  ILE169      0.0276
     62  CG1       23.7640   22.9790   -5.1530 C.3   169  ILE169      0.0022
     63  CG2       22.9730   25.1710   -6.1170 C.3   169  ILE169      0.0022
     64  CD1       23.5700   22.0000   -6.3600 C.3   169  ILE169      0.0001
     65  N         21.8550   28.0360   -0.2650 N.3   172  ALA172     -0.1245
     66  CA        23.1360   28.7400   -0.0680 C.3   172  ALA172      0.1562
     67  C         23.1680   30.1130   -0.7380 C.2   172  ALA172      0.2260
     68  O         23.9760   30.9580   -0.3790 O.2   172  ALA172     -0.2867
     69  CB        24.3110   27.8800   -0.5450 C.3   172  ALA172      0.0290
     70  N         21.6370   33.6150    1.7270 N.3   175  PRO175     -0.2102
     71  CA        22.4590   34.5410    2.5440 C.3   175  PRO175      0.1504
     72  C         23.2170   35.5900    1.7480 C.2   175  PRO175      0.2575
     73  O         23.4270   36.6990    2.2480 O.2   175  PRO175     -0.2718
     74  CB        23.4580   33.6190    3.2630 C.3   175  PRO175      0.0282
     75  CG        23.3690   32.2750    2.5520 C.3   175  PRO175      0.0208
     76  CD        21.9420   32.2110    2.0390 C.3   175  PRO175      0.0893
     77  N         23.6440   35.2490    0.5250 N.am  176  PHE176     -0.1977
     78  CA        24.2640   36.2530   -0.3230 C.3   176  PHE176      0.1639
     79  C         23.3200   37.3700   -0.7530 C.2   176  PHE176      0.2290
     80  O         23.7430   38.5300   -0.8830 O.2   176  PHE176     -0.2864
     81  CB        24.9180   35.5990   -1.5410 C.3   176  PHE176      0.0560
     82  CG        26.1020   34.8110   -1.1830 C.ar  176  PHE176     -0.0200
     83  CD1       27.3460   35.4360   -1.0970 C.ar  176  PHE176     -0.0042
     84  CD2       25.9960   33.4540   -0.8800 C.ar  176  PHE176     -0.0042
     85  CE1       28.4700   34.7090   -0.7560 C.ar  176  PHE176     -0.0003
     86  CE2       27.1260   32.7250   -0.5370 C.ar  176  PHE176     -0.0003
     87  CZ        28.3590   33.3620   -0.4640 C.ar  176  PHE176     -0.0000
     88  N         22.9290   39.6510    2.2230 N.3   179  LEU179     -0.1245
     89  CA        24.1090   40.4970    2.3650 C.3   179  LEU179      0.1561
     90  C         24.1760   41.6180    1.3430 C.2   179  LEU179      0.2260
     91  O         24.5490   42.7340    1.6770 O.2   179  LEU179     -0.2867
     92  CB        25.4030   39.6750    2.2920 C.3   179  LEU179      0.0270
     93  CG        25.8070   38.8760    3.5270 C.3   179  LEU179      0.0019
     94  CD1       27.0660   38.0660    3.1730 C.3   179  LEU179      0.0001
     95  CD2       26.0610   39.8070    4.7820 C.3   179  LEU179      0.0001
@<TRIPOS>BOND
     1    64    62    1
     2    63    61    1
     3    62    61    1
     4    61    58    1
     5    59    58    1
     6    59    60    2
     7    58    57    1
     8    57    52   am
     9    81    82    1
    10    81    78    1
    11    52    53    2
    12    52    51    1
    13    82    83   ar
    14    82    84   ar
    15    83    85   ar
    16    50    51    1
    17    80    79    2
    18    84    86   ar
    19    85    87   ar
    20    79    78    1
    21    67    68    2
    22    67    66    1
    23    69    66    1
    24    86    87   ar
    25    51    54    1
    26    78    77    1
    27    54    55    1
    28    54    56    1
    29    65    66    1
    30    77    72   am
    31    90    91    2
    32    90    89    1
    33    48    47    1
    34    70    76    1
    35    70    71    1
    36    72    73    2
    37    72    71    1
    38    76    75    1
    39    88    89    1
    40    92    89    1
    41    92    93    1
    42    47    44    1
    43    47    49    1
    44    71    74    1
    45    75    74    1
    46    27    26   ar
    47    27    25   ar
    48    46    45    2
    49    44    45    1
    50    44    43    1
    51    94    93    1
    52    26    24   ar
    53    41    40    1
    54    93    95    1
    55    42    40    1
    56    25    23   ar
    57    40    37    1
    58    24    22   ar
    59    39    38    2
    60    37    38    1
    61    37    36    1
    62    23    22   ar
    63    11     9   ar
    64    11    10   ar
    65     9     7   ar
    66    22    21    1
    67    35    33    1
    68    10     8   ar
    69     7     6   ar
    70    21    18    1
    71    20    19    2
    72    33    34    1
    73    33    32    1
    74     8     6   ar
    75    19    28   am
    76    19    18    1
    77    29    28    1
    78    29    32    1
    79    29    30    1
    80     6     5    1
    81    31    30    2
    82    16    13    1
    83    18    17    1
    84    15    14    2
    85    13    14    1
    86    13    12    1
    87     5     2    1
    88     4     3    2
    89     2     3    1
    90     2     1    1
