@<TRIPOS>MOLECULE
tmp/3qddA00.pdb
 149 140 0 0 0
SMALL
GASTEIGER

@<TRIPOS>ATOM
      1  N        -16.1760   26.5670   26.1070 N.3     6  PHE6       -0.1241
      2  CA       -15.9420   27.8770   25.5690 C.3     6  PHE6        0.1605
      3  C        -17.2650   28.5920   25.5730 C.2     6  PHE6        0.2264
      4  O        -18.3110   27.9770   25.4570 O.2     6  PHE6       -0.2867
      5  CB       -15.4700   27.7910   24.1180 C.3     6  PHE6        0.0534
      6  CG       -14.0430   27.3060   23.9450 C.ar    6  PHE6       -0.0203
      7  CD1      -12.9570   28.1460   24.2450 C.ar    6  PHE6       -0.0042
      8  CD2      -13.7930   26.0490   23.4430 C.ar    6  PHE6       -0.0042
      9  CE1      -11.6230   27.7120   24.0400 C.ar    6  PHE6       -0.0003
     10  CE2      -12.4730   25.6040   23.1980 C.ar    6  PHE6       -0.0003
     11  CZ       -11.3810   26.4470   23.5050 C.ar    6  PHE6       -0.0000
     12  N          0.9660   33.9200   16.2420 N.3    32  LEU32      -0.1245
     13  CA         1.5360   33.3870   17.4620 C.3    32  LEU32       0.1561
     14  C          2.8190   34.1130   17.8700 C.2    32  LEU32       0.2260
     15  O          3.0230   34.3950   18.9810 O.2    32  LEU32      -0.2867
     16  CB         1.7200   31.8810   17.3730 C.3    32  LEU32       0.0270
     17  CG         0.4390   31.0900   17.1440 C.3    32  LEU32       0.0019
     18  CD1        0.7240   29.6570   16.9860 C.3    32  LEU32       0.0001
     19  CD2       -0.5680   31.3050   18.2370 C.3    32  LEU32       0.0001
     20  N          1.8150   37.4110   19.2380 N.3    35  ASN35      -0.1225
     21  CA         1.3890   37.2060   20.6140 C.3    35  ASN35       0.1785
     22  C          2.5650   37.0850   21.5730 C.2    35  ASN35       0.2597
     23  O          2.5740   37.6830   22.6630 O.2    35  ASN35      -0.2718
     24  CB         0.4850   35.9680   20.6920 C.3    35  ASN35       0.1169
     25  CG        -0.9290   36.1870   20.1330 C.2    35  ASN35       0.2627
     26  OD1       -1.3390   37.3060   19.7460 O.2    35  ASN35      -0.2716
     27  ND2       -1.7030   35.0820   20.0790 N.am   35  ASN35      -0.0877
     28  N          3.5590   36.3100   21.1780 N.am   36  SER36      -0.1952
     29  CA         4.7810   36.1670   21.9650 C.3    36  SER36       0.1924
     30  C          5.5040   37.5280   22.1460 C.2    36  SER36       0.2314
     31  O          5.9040   37.8730   23.2840 O.2    36  SER36      -0.2863
     32  CB         5.7040   35.1160   21.3310 C.3    36  SER36       0.2116
     33  OG         5.1450   33.8020   21.4480 O.3    36  SER36      -0.2180
     34  N          3.6380   39.5940   24.6800 N.3    39  ALA39      -0.1245
     35  CA         3.8900   39.0630   26.0420 C.3    39  ALA39       0.1562
     36  C          5.2800   39.4560   26.5660 C.2    39  ALA39       0.2260
     37  O          5.4580   39.7610   27.7700 O.2    39  ALA39      -0.2867
     38  CB         3.6840   37.5180   26.0800 C.3    39  ALA39       0.0290
     39  N          5.2870   43.0990   27.4610 N.3    42  LYS42      -0.1245
     40  CA         4.5870   43.3180   28.7270 C.3    42  LYS42       0.1561
     41  C          5.4900   43.0660   29.9270 C.2    42  LYS42       0.2260
     42  O          5.5360   43.8830   30.8640 O.2    42  LYS42      -0.2867
     43  CB         3.3200   42.4630   28.8180 C.3    42  LYS42       0.0271
     44  CG         2.1940   42.9750   27.9230 C.3    42  LYS42       0.0035
     45  CD         0.9120   42.1240   27.9680 C.3    42  LYS42       0.0206
     46  CE         0.1210   42.3680   26.6640 C.3    42  LYS42       0.1093
     47  NZ        -1.0340   41.4710   26.4430 N.3    42  LYS42      -0.1314
     48  N          8.0260   31.2630   24.2700 N.3    77  ASP77      -0.1239
     49  CA         8.5270   32.5540   24.6460 C.3    77  ASP77       0.1674
     50  C          8.7330   32.6570   26.1580 C.2    77  ASP77       0.2266
     51  O          8.1750   31.8850   26.9450 O.2    77  ASP77      -0.2867
     52  CB         7.5960   33.6610   24.1320 C.3    77  ASP77       0.1410
     53  CG         6.2550   33.6890   24.8360 C.2    77  ASP77       0.3668
     54  OD1        6.2550   34.0100   26.0530 O.co2  77  ASP77      -0.2456
     55  OD2        5.2130   33.3990   24.2020 O.co2  77  ASP77      -0.2456
     56  N          5.3310   37.3380   29.6170 N.3    80  ILE80      -0.1231
     57  CA         4.7200   37.5050   30.9230 C.3    80  ILE80       0.1692
     58  C          3.9790   36.2200   31.3760 C.2    80  ILE80       0.2593
     59  O          3.7770   36.0000   32.5620 O.2    80  ILE80      -0.2718
     60  CB         3.7430   38.7590   30.9240 C.3    80  ILE80       0.0266
     61  CG1        3.4070   39.1710   32.3820 C.3    80  ILE80       0.0019
     62  CG2        2.5960   38.5490   29.9220 C.3    80  ILE80       0.0020
     63  CD1        3.0890   40.6720   32.5270 C.3    80  ILE80       0.0001
     64  N          3.5540   35.4010   30.4110 N.am   81  GLY81      -0.1942
     65  CA         2.7750   34.1960   30.7250 C.3    81  GLY81       0.2014
     66  C          1.3270   34.5460   31.0860 C.2    81  GLY81       0.2638
     67  O          0.9010   35.7260   31.0150 O.2    81  GLY81      -0.2714
     68  N          0.5650   33.5010   31.4210 N.am   82  MET82      -0.1976
     69  CA        -0.8820   33.6030   31.7020 C.3    82  MET82       0.1605
     70  C         -1.2100   32.9700   33.0490 C.2    82  MET82       0.2287
     71  O         -0.6910   31.9050   33.4090 O.2    82  MET82      -0.2864
     72  CB        -1.7160   32.8990   30.6240 C.3    82  MET82       0.0413
     73  CG        -1.6310   33.5990   29.2830 C.3    82  MET82       0.0598
     74  SD        -2.2150   32.6480   27.8860 S.3    82  MET82      -0.1393
     75  CE        -0.7920   31.5060   27.7760 C.3    82  MET82       0.0692
     76  N         -6.5770   32.0130   31.7250 N.3    87  LEU87      -0.1245
     77  CA        -6.8950   30.8020   30.9440 C.3    87  LEU87       0.1561
     78  C         -8.3780   30.4720   30.9710 C.2    87  LEU87       0.2260
     79  O         -8.9310   30.0820   29.9630 O.2    87  LEU87      -0.2867
     80  CB        -6.1110   29.5830   31.4310 C.3    87  LEU87       0.0270
     81  CG        -4.6070   29.6880   31.2580 C.3    87  LEU87       0.0019
     82  CD1       -3.8640   28.4950   31.9610 C.3    87  LEU87       0.0001
     83  CD2       -4.1990   29.7840   29.7830 C.3    87  LEU87       0.0001
     84  N         -9.1490   35.8490   29.0870 N.3    91  LEU91      -0.1245
     85  CA        -8.8530   35.8580   27.6400 C.3    91  LEU91       0.1561
     86  C        -10.1300   35.6940   26.7940 C.2    91  LEU91       0.2260
     87  O        -10.3030   36.3560   25.7390 O.2    91  LEU91      -0.2867
     88  CB        -7.8260   34.7970   27.3070 C.3    91  LEU91       0.0270
     89  CG        -6.4400   35.0520   27.9140 C.3    91  LEU91       0.0019
     90  CD1       -5.5140   33.8680   27.6320 C.3    91  LEU91       0.0001
     91  CD2       -5.8590   36.3950   27.4450 C.3    91  LEU91       0.0001
     92  N         -4.7360   34.1370   18.1580 N.3   122  PHE122     -0.1227
     93  CA        -4.3690   32.8400   18.7180 C.3   122  PHE122      0.1736
     94  C         -5.1720   31.6980   18.0620 C.2   122  PHE122      0.2595
     95  O         -4.6480   30.6260   17.8160 O.2   122  PHE122     -0.2718
     96  CB        -4.6580   32.7800   20.2400 C.3   122  PHE122      0.0547
     97  CG        -4.6080   31.3890   20.8030 C.ar  122  PHE122     -0.0202
     98  CD1       -3.3990   30.7580   21.0350 C.ar  122  PHE122     -0.0042
     99  CD2       -5.7860   30.6900   21.0960 C.ar  122  PHE122     -0.0042
    100  CE1       -3.3500   29.4700   21.5700 C.ar  122  PHE122     -0.0003
    101  CE2       -5.7390   29.4080   21.6410 C.ar  122  PHE122     -0.0003
    102  CZ        -4.5350   28.7820   21.8470 C.ar  122  PHE122     -0.0000
    103  N         -6.4620   31.9260   17.8370 N.am  123  TYR123     -0.1976
    104  CA        -7.3380   30.8420   17.3740 C.3   123  TYR123      0.1639
    105  C         -7.0460   30.4030   15.9430 C.2   123  TYR123      0.2290
    106  O         -7.4910   29.3180   15.5340 O.2   123  TYR123     -0.2864
    107  CB        -8.8290   31.2210   17.5710 C.3   123  TYR123      0.0560
    108  CG        -9.1740   31.4660   19.0370 C.ar  123  TYR123     -0.0198
    109  CD1       -9.5270   30.4320   19.9100 C.ar  123  TYR123     -0.0009
    110  CD2       -9.0690   32.7420   19.5550 C.ar  123  TYR123     -0.0009
    111  CE1       -9.7640   30.6980   21.2650 C.ar  123  TYR123      0.0417
    112  CE2       -9.3270   33.0150   20.8680 C.ar  123  TYR123      0.0417
    113  CZ        -9.6820   32.0100   21.7260 C.ar  123  TYR123      0.1957
    114  OH        -9.9190   32.3640   23.0490 O.3   123  TYR123     -0.2866
    115  N         -1.1930   24.3420   25.5410 N.3   134  VAL134     -0.1245
    116  CA        -0.5190   25.5700   25.9580 C.3   134  VAL134      0.1561
    117  C          0.0000   25.3830   27.3880 C.2   134  VAL134      0.2260
    118  O         -0.7880   25.1600   28.3350 O.2   134  VAL134     -0.2867
    119  CB        -1.4170   26.8370   25.8460 C.3   134  VAL134      0.0252
    120  CG1       -0.6350   28.0540   26.3990 C.3   134  VAL134      0.0019
    121  CG2       -1.9090   27.0980   24.3940 C.3   134  VAL134      0.0019
    122  N         -3.0940   24.1880   29.4590 N.3   146  TRP146     -0.1241
    123  CA        -4.3900   24.3510   28.8240 C.3   146  TRP146      0.1605
    124  C         -4.3790   23.4900   27.5650 C.2   146  TRP146      0.2264
    125  O         -3.3330   23.3340   26.9170 O.2   146  TRP146     -0.2867
    126  CB        -4.5470   25.8390   28.4330 C.3   146  TRP146      0.0550
    127  CG        -5.7490   26.3000   27.6670 C.ar  146  TRP146      0.0003
    128  CD1       -6.7960   27.0290   28.1560 C.ar  146  TRP146      0.0946
    129  CD2       -5.9880   26.1780   26.2440 C.ar  146  TRP146      0.0152
    130  NE1       -7.6650   27.3410   27.1510 N.ar  146  TRP146     -0.2442
    131  CE2       -7.2080   26.8230   25.9720 C.ar  146  TRP146      0.0810
    132  CE3       -5.2940   25.5630   25.1850 C.ar  146  TRP146      0.0012
    133  CZ2       -7.7540   26.8770   24.6830 C.ar  146  TRP146      0.0191
    134  CZ3       -5.8310   25.6280   23.8890 C.ar  146  TRP146      0.0001
    135  CH2       -7.0550   26.2650   23.6620 C.ar  146  TRP146      0.0015
    136  N          5.3930   31.1070   27.9490 N.3   168  THR168     -0.1218
    137  CA         4.3890   30.3060   27.2950 C.3   168  THR168      0.1862
    138  C          4.9500   29.4280   26.2030 C.2   168  THR168      0.2287
    139  O          5.7720   29.8350   25.4560 O.2   168  THR168     -0.2866
    140  CB         3.2900   31.2250   26.7270 C.3   168  THR168      0.1770
    141  OG1        2.7400   31.9960   27.7680 O.3   168  THR168     -0.2211
    142  CG2        2.2180   30.4760   26.0350 C.3   168  THR168      0.0375
    143  N          3.2930   27.3140   23.1550 N.3   170  VAL170     -0.1245
    144  CA         2.1350   26.8950   22.3550 C.3   170  VAL170      0.1561
    145  C          2.5580   25.6940   21.4980 C.2   170  VAL170      0.2260
    146  O          3.3720   25.8390   20.5650 O.2   170  VAL170     -0.2867
    147  CB         1.5850   28.0180   21.4910 C.3   170  VAL170      0.0252
    148  CG1        0.3440   27.4870   20.6300 C.3   170  VAL170      0.0019
    149  CG2        1.2220   29.2590   22.3620 C.3   170  VAL170      0.0019
@<TRIPOS>BOND
     1   106   105    2
     2   105   104    1
     3    12    13    1
     4    18    17    1
     5    17    16    1
     6    17    19    1
     7    16    13    1
     8   104   107    1
     9   104   103    1
    10    13    14    1
    11   107   108    1
    12    95    94    2
    13   103    94   am
    14    14    15    2
    15    94    93    1
    16    92    93    1
    17    93    96    1
    18   108   110   ar
    19   108   109   ar
    20    20    21    1
    21   110   112   ar
    22    26    25    2
    23   109   111   ar
    24    27    25   am
    25    25    24    1
    26    96    97    1
    27   146   145    2
    28    21    24    1
    29    21    22    1
    30   148   147    1
    31    97    98   ar
    32    97    99   ar
    33   112   113   ar
    34    98   100   ar
    35    99   101   ar
    36    28    22   am
    37    28    29    1
    38   111   113   ar
    39    32    33    1
    40    32    29    1
    41   147   144    1
    42   147   149    1
    43   145   144    1
    44   100   102   ar
    45    22    23    2
    46   101   102   ar
    47   113   114    1
    48    29    30    1
    49    30    31    2
    50   144   143    1
    51    10     8   ar
    52    10    11   ar
    53     8     6   ar
    54    11     9   ar
    55   135   134   ar
    56   135   133   ar
    57   134   132   ar
    58     6     5    1
    59     6     7   ar
    60     9     7   ar
    61     5     2    1
    62    52    49    1
    63    52    53    1
    64    55    53   ar
    65    48    49    1
    66   121   119    1
    67    49    50    1
    68    34    35    1
    69   133   131   ar
    70    53    54   ar
    71   132   129   ar
    72   139   138    2
    73     4     3    2
    74   115   116    1
    75     2     3    1
    76     2     1    1
    77    87    86    2
    78   119   116    1
    79   119   120    1
    80   116   117    1
    81   131   129   ar
    82   131   130   ar
    83   142   140    1
    84    35    38    1
    85    35    36    1
    86    50    51    2
    87   138   137    1
    88   129   127   ar
    89    47    46    1
    90    36    37    2
    91    46    45    1
    92   140   137    1
    93   140   141    1
    94    86    85    1
    95   125   124    2
    96   130   128   ar
    97   137   136    1
    98    88    85    1
    99    88    89    1
   100   117   118    2
   101    91    89    1
   102    39    40    1
   103   124   123    1
   104    90    89    1
   105    85    84    1
   106   127   128   ar
   107   127   126    1
   108    75    74    1
   109    74    73    1
   110    44    45    1
   111    44    43    1
   112   126   123    1
   113    40    43    1
   114    40    41    1
   115   123   122    1
   116    73    72    1
   117    56    57    1
   118    83    81    1
   119    62    60    1
   120    41    42    2
   121    79    78    2
   122    64    65    1
   123    64    58   am
   124    72    69    1
   125    65    66    1
   126    57    60    1
   127    57    58    1
   128    60    61    1
   129    77    78    1
   130    77    80    1
   131    77    76    1
   132    67    66    2
   133    66    68   am
   134    81    80    1
   135    81    82    1
   136    58    59    2
   137    68    69    1
   138    69    70    1
   139    61    63    1
   140    70    71    2
