@<TRIPOS>MOLECULE
tmp/3qdeA00.pdb
 128 123 0 0 0
SMALL
GASTEIGER

@<TRIPOS>ATOM
      1  N         69.3470   33.5780  113.8630 N.3   344  ARG344     -0.1245
      2  CA        69.8830   34.7130  113.1240 C.3   344  ARG344      0.1563
      3  C         69.6310   36.0380  113.8570 C.2   344  ARG344      0.2260
      4  O         69.5840   37.0980  113.2350 O.2   344  ARG344     -0.2867
      5  CB        69.2870   34.7540  111.7110 C.3   344  ARG344      0.0307
      6  CG        70.2800   34.4870  110.5900 C.3   344  ARG344      0.0489
      7  CD        70.3070   33.0280  110.1390 C.3   344  ARG344      0.2205
      8  NE        70.8500   32.1520  111.1690 N.pl3 344  ARG344     -0.0865
      9  CZ        71.0020   30.8360  111.0480 C.cat 344  ARG344      0.5346
     10  NH1       70.6650   30.2090  109.9300 N.pl3 344  ARG344      0.1354
     11  NH2       71.4960   30.1440  112.0630 N.pl3 344  ARG344      0.1354
     12  N         64.7670   40.3110  114.4450 N.3   355  ARG355     -0.1245
     13  CA        64.7540   38.8750  114.1790 C.3   355  ARG355      0.1563
     14  C         64.8180   38.0530  115.4620 C.2   355  ARG355      0.2260
     15  O         65.6280   38.3310  116.3550 O.2   355  ARG355     -0.2867
     16  CB        65.8990   38.4940  113.2370 C.3   355  ARG355      0.0307
     17  CG        65.8750   39.2660  111.9190 C.3   355  ARG355      0.0489
     18  CD        66.9360   38.7790  110.9500 C.3   355  ARG355      0.2205
     19  NE        66.6470   37.4430  110.4320 N.pl3 355  ARG355     -0.0865
     20  CZ        67.4090   36.8090  109.5440 C.cat 355  ARG355      0.5346
     21  NH1       68.5100   37.3910  109.0780 N.pl3 355  ARG355      0.1354
     22  NH2       67.0730   35.5920  109.1220 N.pl3 355  ARG355      0.1354
     23  N         62.7660   28.5390  109.2500 N.3   360  ARG360     -0.1231
     24  CA        63.5500   27.7110  108.3620 C.3   360  ARG360      0.1694
     25  C         64.9980   27.6940  108.8170 C.2   360  ARG360      0.2592
     26  O         65.6880   26.6930  108.6500 O.2   360  ARG360     -0.2718
     27  CB        63.4000   28.1470  106.9010 C.3   360  ARG360      0.0321
     28  CG        64.5330   28.9830  106.3630 C.3   360  ARG360      0.0489
     29  CD        64.2810   29.3210  104.9060 C.3   360  ARG360      0.2205
     30  NE        64.3430   30.7590  104.7190 N.pl3 360  ARG360     -0.0865
     31  CZ        63.4040   31.4860  104.1310 C.cat 360  ARG360      0.5346
     32  NH1       62.3230   30.9160  103.6320 N.pl3 360  ARG360      0.1354
     33  NH2       63.5690   32.7920  104.0280 N.pl3 360  ARG360      0.1354
     34  N         65.4420   28.7860  109.4300 N.am  361  ASP361     -0.1974
     35  CA        66.8290   28.9080  109.8610 C.3   361  ASP361      0.1709
     36  C         67.1620   27.9070  110.9750 C.2   361  ASP361      0.2293
     37  O         68.1620   27.1800  110.9000 O.2   361  ASP361     -0.2864
     38  CB        67.1160   30.3400  110.3100 C.3   361  ASP361      0.1436
     39  CG        66.5850   31.3790  109.3230 C.2   361  ASP361      0.3671
     40  OD1       65.3650   31.6870  109.3600 O.co2 361  ASP361     -0.2456
     41  OD2       67.3900   31.8890  108.5090 O.co2 361  ASP361     -0.2456
     42  N         67.1170   24.2510  109.8780 N.3   364  GLN364     -0.1245
     43  CA        68.3390   23.8770  109.1910 C.3   364  GLN364      0.1566
     44  C         69.5230   23.7670  110.1500 C.2   364  GLN364      0.2260
     45  O         70.3850   22.8930  109.9880 O.2   364  GLN364     -0.2867
     46  CB        68.6340   24.8540  108.0580 C.3   364  GLN364      0.0367
     47  CG        67.6630   24.7300  106.9030 C.3   364  GLN364      0.0905
     48  CD        67.9540   25.7280  105.8210 C.2   364  GLN364      0.2608
     49  OE1       68.7460   25.4550  104.9200 O.2   364  GLN364     -0.2717
     50  NE2       67.3330   26.9050  105.9070 N.am  364  GLN364     -0.0878
     51  N         63.2780   29.8190   99.7640 N.3   481  TRP481     -0.1227
     52  CA        64.5080   29.9680  100.5410 C.3   481  TRP481      0.1737
     53  C         65.1860   31.3100  100.2660 C.2   481  TRP481      0.2595
     54  O         65.7760   31.9100  101.1570 O.2   481  TRP481     -0.2718
     55  CB        65.4910   28.8250  100.2510 C.3   481  TRP481      0.0564
     56  CG        66.8260   29.0160  100.9220 C.ar  481  TRP481      0.0003
     57  CD1       67.1790   28.5940  102.1660 C.ar  481  TRP481      0.0946
     58  CD2       67.9700   29.7060  100.3910 C.ar  481  TRP481      0.0152
     59  NE1       68.4680   28.9710  102.4430 N.ar  481  TRP481     -0.2442
     60  CE2       68.9770   29.6520  101.3690 C.ar  481  TRP481      0.0810
     61  CE3       68.2400   30.3530   99.1810 C.ar  481  TRP481      0.0012
     62  CZ2       70.2390   30.2190  101.1770 C.ar  481  TRP481      0.0191
     63  CZ3       69.4880   30.9180   98.9940 C.ar  481  TRP481      0.0001
     64  CH2       70.4700   30.8500   99.9860 C.ar  481  TRP481      0.0015
     65  N         65.1200   31.7560   99.0170 N.am  482  ASN482     -0.1960
     66  CA        65.6130   33.0690   98.6330 C.3   482  ASN482      0.1819
     67  C         64.5760   34.1310   99.0240 C.2   482  ASN482      0.2621
     68  O         63.5490   34.2800   98.3520 O.2   482  ASN482     -0.2715
     69  CB        65.8730   33.0990   97.1250 C.3   482  ASN482      0.1195
     70  CG        66.6820   34.3120   96.6860 C.2   482  ASN482      0.2630
     71  OD1       66.5380   35.4050   97.2350 O.2   482  ASN482     -0.2716
     72  ND2       67.5320   34.1240   95.6740 N.am  482  ASN482     -0.0877
     73  N         64.8500   34.8500  100.1140 N.am  483  ASP483     -0.1971
     74  CA        63.9360   35.8540  100.6680 C.3   483  ASP483      0.1709
     75  C         63.6670   36.9760   99.6880 C.2   483  ASP483      0.2293
     76  O         62.6620   37.6710   99.8040 O.2   483  ASP483     -0.2864
     77  CB        64.5070   36.4680  101.9520 C.3   483  ASP483      0.1436
     78  CG        64.1930   35.6500  103.1880 C.2   483  ASP483      0.3671
     79  OD1       63.1530   34.9560  103.1910 O.co2 483  ASP483     -0.2456
     80  OD2       64.9790   35.7100  104.1630 O.co2 483  ASP483     -0.2456
     81  N         74.7700   40.6700   98.4510 N.3   645  LYS645     -0.1231
     82  CA        73.6160   39.9380   98.9730 C.3   645  LYS645      0.1693
     83  C         72.9700   39.0460   97.9090 C.2   645  LYS645      0.2591
     84  O         73.6780   38.3960   97.1320 O.2   645  LYS645     -0.2718
     85  CB        72.6030   40.9020   99.6050 C.3   645  LYS645      0.0285
     86  CG        73.1410   41.6090  100.8580 C.3   645  LYS645      0.0035
     87  CD        73.0830   40.7220  102.1000 C.3   645  LYS645      0.0206
     88  CE        71.6500   40.3150  102.4170 C.3   645  LYS645      0.1093
     89  NZ        71.5520   39.4630  103.6300 N.3   645  LYS645     -0.1314
     90  N         71.6420   39.0030   97.8690 N.am  646  GLU646     -0.1979
     91  CA        70.9720   38.0550   96.9820 C.3   646  GLU646      0.1602
     92  C         71.2080   38.3270   95.4920 C.2   646  GLU646      0.2287
     93  O         70.9670   37.4450   94.6630 O.2   646  GLU646     -0.2864
     94  CB        69.4750   37.9250   97.2960 C.3   646  GLU646      0.0415
     95  CG        69.1530   37.0690   98.5320 C.3   646  GLU646      0.1163
     96  CD        69.2300   37.8520   99.8480 C.2   646  GLU646      0.3649
     97  OE1       69.8040   38.9610   99.8580 O.co2 646  GLU646     -0.2457
     98  OE2       68.7070   37.3630  100.8730 O.co2 646  GLU646     -0.2457
     99  N         76.5240   33.4700   98.4310 N.3   651  PHE651     -0.1241
    100  CA        75.8170   32.9970   99.6120 C.3   651  PHE651      0.1605
    101  C         76.3090   31.6270  100.0280 C.2   651  PHE651      0.2264
    102  O         75.8120   30.6000   99.5510 O.2   651  PHE651     -0.2867
    103  CB        74.3210   32.9640   99.3590 C.3   651  PHE651      0.0534
    104  CG        73.6000   34.1400   99.9270 C.ar  651  PHE651     -0.0203
    105  CD1       73.5310   35.3300   99.2230 C.ar  651  PHE651     -0.0042
    106  CD2       72.9960   34.0570  101.1680 C.ar  651  PHE651     -0.0042
    107  CE1       72.8700   36.4150   99.7470 C.ar  651  PHE651     -0.0003
    108  CE2       72.3300   35.1410  101.7000 C.ar  651  PHE651     -0.0003
    109  CZ        72.2730   36.3250  100.9910 C.ar  651  PHE651     -0.0000
    110  N         75.8910   29.5900  102.2060 N.3   653  HIS653     -0.1241
    111  CA        74.8860   28.6040  102.5770 C.3   653  HIS653      0.1621
    112  C         74.5690   27.6680  101.4060 C.2   653  HIS653      0.2264
    113  O         74.5890   26.4500  101.5670 O.2   653  HIS653     -0.2867
    114  CB        73.6230   29.3250  103.0780 C.3   653  HIS653      0.0745
    115  CG        72.5440   28.4170  103.5840 C.ar  653  HIS653      0.0817
    116  ND1       71.5700   28.8450  104.4650 N.ar  653  HIS653     -0.2268
    117  CD2       72.2610   27.1200  103.3170 C.ar  653  HIS653      0.1154
    118  CE1       70.7410   27.8500  104.7230 C.ar  653  HIS653      0.1986
    119  NE2       71.1370   26.7920  104.0390 N.ar  653  HIS653     -0.2212
    120  N         77.7720   34.7910  106.1370 N.3   699  GLN699     -0.1245
    121  CA        76.6380   34.5360  105.2470 C.3   699  GLN699      0.1566
    122  C         76.9240   34.8980  103.7970 C.2   699  GLN699      0.2260
    123  O         76.5030   34.1940  102.8760 O.2   699  GLN699     -0.2867
    124  CB        75.4020   35.3100  105.7090 C.3   699  GLN699      0.0367
    125  CG        74.2850   35.3720  104.6720 C.3   699  GLN699      0.0905
    126  CD        73.3210   36.5190  104.9410 C.2   699  GLN699      0.2608
    127  OE1       73.5390   37.6450  104.4910 O.2   699  GLN699     -0.2717
    128  NE2       72.2580   36.2390  105.6850 N.am  699  GLN699     -0.0878
@<TRIPOS>BOND
     1    93    92    2
     2    92    91    1
     3    72    70   am
     4    70    69    1
     5    70    71    2
     6    91    94    1
     7    91    90    1
     8    69    66    1
     9    84    83    2
    10    94    95    1
    11    90    83   am
    12    83    82    1
    13    68    67    2
    14    99   100    1
    15    81    82    1
    16    95    96    1
    17    66    65    1
    18    66    67    1
    19    82    85    1
    20    63    61   ar
    21    63    64   ar
    22    65    53   am
    23    67    73   am
    24    61    58   ar
    25   105   107   ar
    26   105   104   ar
    27   103   100    1
    28   103   104    1
    29   102   101    2
    30    85    86    1
    31   100   101    1
    32    75    76    2
    33    75    74    1
    34   107   109   ar
    35    51    52    1
    36    96    97   ar
    37    96    98   ar
    38   104   106   ar
    39    64    62   ar
    40    73    74    1
    41    55    52    1
    42    55    56    1
    43    53    52    1
    44    53    54    2
    45    58    56   ar
    46    58    60   ar
    47    74    77    1
    48    86    87    1
    49    56    57   ar
    50   109   108   ar
    51   106   108   ar
    52    62    60   ar
    53    60    59   ar
    54   112   113    2
    55   112   111    1
    56    77    78    1
    57    87    88    1
    58    57    59   ar
    59   110   111    1
    60    88    89    1
    61   111   114    1
    62   123   122    2
    63   114   115    1
    64    78    79   ar
    65    78    80   ar
    66   117   115   ar
    67   117   119   ar
    68   115   116   ar
    69    32    31    1
    70   122   121    1
    71    33    31    1
    72   119   118   ar
    73    31    30    2
    74   116   118   ar
    75   127   126    2
    76   125   126    1
    77   125   124    1
    78    30    29    1
    79    29    28    1
    80    49    48    2
    81   126   128   am
    82   121   124    1
    83   121   120    1
    84    48    50   am
    85    48    47    1
    86    28    27    1
    87    27    24    1
    88    47    46    1
    89    46    43    1
    90    24    25    1
    91    24    23    1
    92    41    39   ar
    93    26    25    2
    94    25    34   am
    95    21    20    1
    96    22    20    1
    97    43    42    1
    98    43    44    1
    99    39    40   ar
   100    39    38    1
   101    34    35    1
   102    20    19    2
   103    35    38    1
   104    35    36    1
   105    10     9    1
   106    45    44    2
   107     7     6    1
   108     7     8    1
   109    19    18    1
   110     6     5    1
   111    37    36    2
   112    18    17    1
   113     9     8    2
   114     9    11    1
   115     5     2    1
   116    17    16    1
   117     2     3    1
   118     2     1    1
   119     4     3    2
   120    16    13    1
   121    13    12    1
   122    13    14    1
   123    14    15    2
