@<TRIPOS>MOLECULE
tmp/3qdkA00.pdb
 96 91 0 0 0
SMALL
GASTEIGER

@<TRIPOS>ATOM
      1  N         47.4860   49.8410   36.3920 N.3    10  THR10      -0.1218
      2  CA        46.0630   50.0840   36.5140 C.3    10  THR10       0.1862
      3  C         45.6780   51.4870   36.0540 C.2    10  THR10       0.2287
      4  O         44.6140   51.6800   35.4640 O.2    10  THR10      -0.2866
      5  CB        45.6260   49.9150   37.9670 C.3    10  THR10       0.1770
      6  OG1       45.8420   48.5570   38.3600 O.3    10  THR10      -0.2211
      7  CG2       44.1590   50.2750   38.1420 C.3    10  THR10       0.0375
      8  N         48.5640   44.0970   33.9030 N.3    88  THR88      -0.1203
      9  CA        47.8280   43.7190   35.0950 C.3    88  THR88       0.1994
     10  C         47.1280   42.4590   34.5660 C.2    88  THR88       0.2617
     11  O         46.5930   42.4750   33.4570 O.2    88  THR88      -0.2717
     12  CB        46.7910   44.8070   35.4980 C.3    88  THR88       0.1784
     13  OG1       45.9430   45.1030   34.3820 O.3    88  THR88      -0.2211
     14  CG2       47.4950   46.0960   35.9580 C.3    88  THR88       0.0376
     15  N         47.1640   41.3690   35.3290 N.am   89  ALA89      -0.1979
     16  CA        46.5730   40.1020   34.8870 C.3    89  ALA89       0.1597
     17  C         45.0810   39.9750   35.0680 C.2    89  ALA89       0.2287
     18  O         44.5160   40.2610   36.1230 O.2    89  ALA89      -0.2864
     19  CB        47.2760   38.8980   35.5450 C.3    89  ALA89       0.0319
     20  N         41.1510   43.9750   35.9040 N.3   119  TRP119     -0.1241
     21  CA        41.3060   42.9200   36.9060 C.3   119  TRP119      0.1605
     22  C         40.4970   43.2160   38.1700 C.2   119  TRP119      0.2264
     23  O         40.0340   42.3030   38.8500 O.2   119  TRP119     -0.2867
     24  CB        42.7780   42.7880   37.3050 C.3   119  TRP119      0.0550
     25  CG        43.3460   44.0610   37.9000 C.ar  119  TRP119      0.0003
     26  CD1       43.8180   45.1450   37.2160 C.ar  119  TRP119      0.0946
     27  CD2       43.4890   44.3760   39.2930 C.ar  119  TRP119      0.0152
     28  NE1       44.2470   46.1100   38.0930 N.ar  119  TRP119     -0.2442
     29  CE2       44.0580   45.6640   39.3740 C.ar  119  TRP119      0.0810
     30  CE3       43.1930   43.6910   40.4800 C.ar  119  TRP119      0.0012
     31  CZ2       44.3410   46.2840   40.5970 C.ar  119  TRP119      0.0191
     32  CZ3       43.4750   44.3130   41.7110 C.ar  119  TRP119      0.0001
     33  CH2       44.0430   45.5950   41.7520 C.ar  119  TRP119      0.0015
     34  N         37.8190   37.8500   39.4230 N.3   153  GLU153     -0.1245
     35  CA        38.7200   38.6940   38.6440 C.3   153  GLU153      0.1567
     36  C         39.2110   37.9760   37.3870 C.2   153  GLU153      0.2260
     37  O         39.6650   38.6180   36.4370 O.2   153  GLU153     -0.2867
     38  CB        39.9580   39.0980   39.4740 C.3   153  GLU153      0.0388
     39  CG        39.6970   39.8840   40.7610 C.3   153  GLU153      0.1160
     40  CD        40.9850   40.3910   41.4160 C.2   153  GLU153      0.3649
     41  OE1       42.0860   40.1100   40.8890 O.co2 153  GLU153     -0.2457
     42  OE2       40.8960   41.0770   42.4580 O.co2 153  GLU153     -0.2457
     43  N         44.9930   32.5900   35.1730 N.3   201  LYS201     -0.1245
     44  CA        43.6690   33.2070   35.0590 C.3   201  LYS201      0.1561
     45  C         42.6130   32.4870   34.2110 C.2   201  LYS201      0.2260
     46  O         41.4150   32.7420   34.3530 O.2   201  LYS201     -0.2867
     47  CB        43.8100   34.6350   34.5180 C.3   201  LYS201      0.0271
     48  CG        45.1250   35.3410   34.8510 C.3   201  LYS201      0.0035
     49  CD        45.0550   36.2210   36.0880 C.3   201  LYS201      0.0206
     50  CE        45.3120   35.4660   37.3620 C.3   201  LYS201      0.1093
     51  NZ        45.8510   36.3960   38.4120 N.3   201  LYS201     -0.1314
     52  N         52.9440   39.0420   32.8590 N.3   266  VAL266     -0.1231
     53  CA        52.0810   39.5870   33.9000 C.3   266  VAL266      0.1692
     54  C         52.9480   40.4090   34.8510 C.2   266  VAL266      0.2592
     55  O         54.0660   40.0030   35.1720 O.2   266  VAL266     -0.2718
     56  CB        51.3760   38.4650   34.6790 C.3   266  VAL266      0.0266
     57  CG1       50.5330   39.0620   35.7830 C.3   266  VAL266      0.0020
     58  CG2       50.5080   37.6570   33.7360 C.3   266  VAL266      0.0020
     59  N         52.4380   41.5580   35.2920 N.am  267  ASP267     -0.1960
     60  CA        53.1860   42.4420   36.1830 C.3   267  ASP267      0.1840
     61  C         53.8410   41.7850   37.4050 C.2   267  ASP267      0.2622
     62  O         55.0100   42.0480   37.6900 O.2   267  ASP267     -0.2715
     63  CB        52.3130   43.6320   36.6420 C.3   267  ASP267      0.1450
     64  CG        50.9670   43.2030   37.2090 C.2   267  ASP267      0.3671
     65  OD1       50.8360   42.0530   37.6760 O.co2 267  ASP267     -0.2456
     66  OD2       50.0310   44.0280   37.2010 O.co2 267  ASP267     -0.2456
     67  N         53.1070   40.9420   38.1250 N.am  268  ALA268     -0.1963
     68  CA        53.6710   40.2830   39.3070 C.3   268  ALA268      0.1728
     69  C         54.6940   39.2040   38.9320 C.2   268  ALA268      0.2616
     70  O         55.8380   39.2210   39.3840 O.2   268  ALA268     -0.2715
     71  CB        52.5480   39.6670   40.1570 C.3   268  ALA268      0.0334
     72  N         54.2740   38.2680   38.0970 N.am  269  HIS269     -0.1973
     73  CA        55.1360   37.1760   37.6640 C.3   269  HIS269      0.1656
     74  C         56.4220   37.6640   36.9820 C.2   269  HIS269      0.2291
     75  O         57.4850   37.0510   37.1270 O.2   269  HIS269     -0.2864
     76  CB        54.3320   36.2750   36.7420 C.3   269  HIS269      0.0771
     77  CG        53.0500   35.8000   37.3530 C.ar  269  HIS269      0.0820
     78  ND1       52.9590   34.6410   38.0940 N.ar  269  HIS269     -0.2267
     79  CD2       51.8180   36.3620   37.3870 C.ar  269  HIS269      0.1154
     80  CE1       51.7300   34.5080   38.5570 C.ar  269  HIS269      0.1986
     81  NE2       51.0170   35.5380   38.1420 N.ar  269  HIS269     -0.2212
     82  N         51.9620   39.1020   46.9070 N.3   292  CYS292     -0.1235
     83  CA        51.7440   38.0380   45.9480 C.3   292  CYS292      0.1677
     84  C         53.0070   37.1790   46.0390 C.2   292  CYS292      0.2270
     85  O         54.0660   37.5790   45.5520 O.2   292  CYS292     -0.2867
     86  CB        51.5900   38.6220   44.5440 C.3   292  CYS292      0.0956
     87  SG        51.5760   37.3770   43.2440 S.3   292  CYS292     -0.0801
     88  N         52.0190   30.3190   42.9010 N.3   322  GLU322     -0.1245
     89  CA        51.6210   31.6490   43.3420 C.3   322  GLU322      0.1567
     90  C         50.6990   31.4860   44.5410 C.2   322  GLU322      0.2260
     91  O         49.8310   30.6150   44.5480 O.2   322  GLU322     -0.2867
     92  CB        50.8800   32.4010   42.2330 C.3   322  GLU322      0.0388
     93  CG        50.4280   33.8060   42.6370 C.3   322  GLU322      0.1160
     94  CD        49.4470   34.4370   41.6440 C.2   322  GLU322      0.3649
     95  OE1       49.3100   33.9190   40.5100 O.co2 322  GLU322     -0.2457
     96  OE2       48.8200   35.4620   41.9990 O.co2 322  GLU322     -0.2457
@<TRIPOS>BOND
     1    52    53    1
     2    11    10    2
     3    58    56    1
     4    53    56    1
     5    53    54    1
     6     8     9    1
     7    45    46    2
     8    45    44    1
     9    13    12    1
    10    47    48    1
    11    47    44    1
    12    10     9    1
    13    10    15   am
    14    56    57    1
    15    54    55    2
    16    54    59   am
    17    48    49    1
    18    16    17    1
    19    16    15    1
    20    16    19    1
    21    44    43    1
    22    17    18    2
    23     9    12    1
    24    59    60    1
    25     4     3    2
    26    12    14    1
    27    20    21    1
    28     3     2    1
    29    49    50    1
    30    60    63    1
    31    60    61    1
    32     1     2    1
    33    37    36    2
    34     2     5    1
    35    63    64    1
    36    76    77    1
    37    76    73    1
    38    21    24    1
    39    21    22    1
    40    74    75    2
    41    74    73    1
    42    66    64   ar
    43    64    65   ar
    44    26    25   ar
    45    26    28   ar
    46    24    25    1
    47    77    79   ar
    48    77    78   ar
    49    50    51    1
    50    79    81   ar
    51    36    35    1
    52    61    62    2
    53    61    67   am
    54    73    72    1
    55    25    27   ar
    56     5     7    1
    57     5     6    1
    58    28    29   ar
    59    78    80   ar
    60    72    69   am
    61    67    68    1
    62    81    80   ar
    63    22    23    2
    64    35    34    1
    65    35    38    1
    66    69    68    1
    67    69    70    2
    68    27    29   ar
    69    27    30   ar
    70    68    71    1
    71    29    31   ar
    72    38    39    1
    73    30    32   ar
    74    95    94   ar
    75    31    33   ar
    76    39    40    1
    77    41    40   ar
    78    40    42   ar
    79    94    96   ar
    80    94    93    1
    81    32    33   ar
    82    92    93    1
    83    92    89    1
    84    88    89    1
    85    87    86    1
    86    89    90    1
    87    90    91    2
    88    86    83    1
    89    85    84    2
    90    83    84    1
    91    83    82    1
