@<TRIPOS>MOLECULE
tmp/3qdlA00.pdb
 150 143 0 0 0
SMALL
GASTEIGER

@<TRIPOS>ATOM
      1  N         20.7450   -0.4940   11.8430 N.3    16  ARG16      -0.1231
      2  CA        20.3140   -0.6600   10.4590 C.3    16  ARG16       0.1694
      3  C         20.8240   -2.0210   10.0020 C.2    16  ARG16       0.2592
      4  O         21.9930   -2.1660    9.6350 O.2    16  ARG16      -0.2718
      5  CB        20.8770    0.4640    9.5750 C.3    16  ARG16       0.0321
      6  CG        20.0750    0.7830    8.2970 C.3    16  ARG16       0.0489
      7  CD        19.9680   -0.3930    7.3240 C.3    16  ARG16       0.2205
      8  NE        21.2750   -0.9410    6.9620 N.pl3  16  ARG16      -0.0865
      9  CZ        21.4910   -2.2030    6.6060 C.cat  16  ARG16       0.5346
     10  NH1       22.7200   -2.6050    6.3010 N.pl3  16  ARG16       0.1354
     11  NH2       20.4860   -3.0710    6.5680 N.pl3  16  ARG16       0.1354
     12  N         19.9440   -3.0180   10.0590 N.am   17  HIS17      -0.1962
     13  CA        20.2870   -4.3930    9.7060 C.3    17  HIS17       0.1787
     14  C         19.1020   -5.0940    9.0480 C.2    17  HIS17       0.2620
     15  O         17.9670   -4.6250    9.1380 O.2    17  HIS17      -0.2715
     16  CB        20.7490   -5.1700   10.9470 C.3    17  HIS17       0.0785
     17  CG        19.6280   -5.6130   11.8380 C.ar   17  HIS17       0.0821
     18  ND1       18.9980   -4.7620   12.7220 N.ar   17  HIS17      -0.2267
     19  CD2       19.0220   -6.8160   11.9770 C.ar   17  HIS17       0.1154
     20  CE1       18.0520   -5.4230   13.3670 C.ar   17  HIS17       0.1986
     21  NE2       18.0460   -6.6710   12.9330 N.ar   17  HIS17      -0.2212
     22  N         19.3670   -6.2180    8.3900 N.am   18  SER18      -0.1950
     23  CA        18.3040   -6.9990    7.7710 C.3    18  SER18       0.1924
     24  C         17.5850   -7.8710    8.7990 C.2    18  SER18       0.2314
     25  O         18.0000   -9.0010    9.0840 O.2    18  SER18      -0.2863
     26  CB        18.8450   -7.8230    6.6090 C.3    18  SER18       0.2116
     27  OG        19.3230   -6.9570    5.5990 O.3    18  SER18      -0.2180
     28  N         15.3690  -10.3560   10.2270 N.3    20  LYS20      -0.1245
     29  CA        14.9010  -11.6160    9.6390 C.3    20  LYS20       0.1561
     30  C         13.5470  -12.0890   10.1790 C.2    20  LYS20       0.2260
     31  O         12.9310  -12.9800    9.5940 O.2    20  LYS20      -0.2867
     32  CB        15.9490  -12.7210    9.8340 C.3    20  LYS20       0.0271
     33  CG        17.3990  -12.3170    9.5220 C.3    20  LYS20       0.0035
     34  CD        17.8180  -12.6350    8.0870 C.3    20  LYS20       0.0206
     35  CE        17.5330  -11.4830    7.1310 C.3    20  LYS20       0.1093
     36  NZ        18.4850  -11.4740    5.9860 N.3    20  LYS20      -0.1314
     37  N         11.3720  -18.3500    0.8130 N.3    72  PHE72      -0.1227
     38  CA        11.9430  -18.4240    2.1620 C.3    72  PHE72       0.1736
     39  C         11.7020  -17.1620    2.9920 C.2    72  PHE72       0.2595
     40  O         11.9880  -17.1320    4.1940 O.2    72  PHE72      -0.2718
     41  CB        13.4470  -18.7400    2.0950 C.3    72  PHE72       0.0547
     42  CG        14.1800  -18.0180    0.9890 C.ar   72  PHE72      -0.0202
     43  CD1       14.7440  -16.7630    1.2080 C.ar   72  PHE72      -0.0042
     44  CD2       14.3170  -18.6010   -0.2690 C.ar   72  PHE72      -0.0042
     45  CE1       15.4240  -16.0950    0.1860 C.ar   72  PHE72      -0.0003
     46  CE2       14.9940  -17.9430   -1.2980 C.ar   72  PHE72      -0.0003
     47  CZ        15.5470  -16.6870   -1.0690 C.ar   72  PHE72      -0.0000
     48  N         11.1790  -16.1250    2.3430 N.am   73  ASN73      -0.1974
     49  CA        10.8460  -14.8720    3.0140 C.3    73  ASN73       0.1688
     50  C          9.4050  -14.8400    3.5300 C.2    73  ASN73       0.2292
     51  O          8.9900  -13.8590    4.1530 O.2    73  ASN73      -0.2864
     52  CB        11.1070  -13.6820    2.0800 C.3    73  ASN73       0.1181
     53  CG        12.5450  -13.6250    1.5870 C.2    73  ASN73       0.2629
     54  OD1       13.4890  -13.7080    2.3710 O.2    73  ASN73      -0.2716
     55  ND2       12.7140  -13.4810    0.2800 N.am   73  ASN73      -0.0877
     56  N          8.7340  -14.3200    7.3520 N.3    76  MET76      -0.1245
     57  CA         9.1950  -12.9550    7.6320 C.3    76  MET76       0.1570
     58  C          8.1900  -11.8860    7.1800 C.2    76  MET76       0.2261
     59  O          7.8330  -11.0040    7.9640 O.2    76  MET76      -0.2867
     60  CB        10.5740  -12.7110    6.9960 C.3    76  MET76       0.0387
     61  CG        11.0030  -11.2480    6.9340 C.3    76  MET76       0.0595
     62  SD        12.7250  -10.9780    6.4510 S.3    76  MET76      -0.1393
     63  CE        12.7620  -11.6870    4.8120 C.3    76  MET76       0.0692
     64  N         16.5170    2.9330   -5.9070 N.3   109  TYR109     -0.1241
     65  CA        17.5000    2.3700   -4.9810 C.3   109  TYR109      0.1605
     66  C         18.0340    3.3920   -3.9710 C.2   109  TYR109      0.2264
     67  O         18.2490    3.0550   -2.8060 O.2   109  TYR109     -0.2867
     68  CB        18.6550    1.7150   -5.7400 C.3   109  TYR109      0.0534
     69  CG        18.4240    0.2620   -6.1230 C.ar  109  TYR109     -0.0201
     70  CD1       17.4960   -0.5350   -5.4410 C.ar  109  TYR109     -0.0009
     71  CD2       19.1570   -0.3220   -7.1490 C.ar  109  TYR109     -0.0009
     72  CE1       17.3030   -1.8770   -5.7910 C.ar  109  TYR109      0.0417
     73  CE2       18.9720   -1.6550   -7.5040 C.ar  109  TYR109      0.0417
     74  CZ        18.0490   -2.4240   -6.8270 C.ar  109  TYR109      0.1957
     75  OH        17.8850   -3.7440   -7.1950 O.3   109  TYR109     -0.2866
     76  N         15.4690    3.7530   -1.3140 N.3   112  VAL112     -0.1245
     77  CA        15.5730    2.5840   -0.4390 C.3   112  VAL112      0.1561
     78  C         16.6340    2.7780    0.6510 C.2   112  VAL112      0.2260
     79  O         16.3750    2.5180    1.8320 O.2   112  VAL112     -0.2867
     80  CB        15.8700    1.2900   -1.2460 C.3   112  VAL112      0.0252
     81  CG1       16.2330    0.1380   -0.3190 C.3   112  VAL112      0.0019
     82  CG2       14.6810    0.9160   -2.1090 C.3   112  VAL112      0.0019
     83  N         13.7310   -4.9780    6.4140 N.3   127  CYS127     -0.1221
     84  CA        14.4910   -5.9150    5.5950 C.3   127  CYS127      0.1808
     85  C         14.1050   -5.6890    4.1390 C.2   127  CYS127      0.2601
     86  O         12.9350   -5.8320    3.7730 O.2   127  CYS127     -0.2717
     87  CB        14.2210   -7.3660    6.0080 C.3   127  CYS127      0.0970
     88  SG        15.2550   -8.5990    5.1610 S.3   127  CYS127     -0.0800
     89  N         15.0850   -5.2960    3.3260 N.am  128  ILE128     -0.1965
     90  CA        14.9000   -5.1720    1.8790 C.3   128  ILE128      0.1727
     91  C         14.7500   -6.5830    1.3150 C.2   128  ILE128      0.2616
     92  O         15.4930   -7.4800    1.7050 O.2   128  ILE128     -0.2715
     93  CB        16.0970   -4.4510    1.2040 C.3   128  ILE128      0.0290
     94  CG1       16.3830   -3.1130    1.9010 C.3   128  ILE128      0.0022
     95  CG2       15.8290   -4.2360   -0.2890 C.3   128  ILE128      0.0023
     96  CD1       17.7860   -2.5790    1.6890 C.3   128  ILE128      0.0001
     97  N         13.7830   -6.7820    0.4210 N.am  129  ILE129     -0.1963
     98  CA        13.5020   -8.1190   -0.1150 C.3   129  ILE129      0.1727
     99  C         13.4210   -8.1430   -1.6430 C.2   129  ILE129      0.2617
    100  O         12.5710   -7.4810   -2.2470 O.2   129  ILE129     -0.2715
    101  CB        12.2210   -8.7440    0.5130 C.3   129  ILE129      0.0290
    102  CG1       12.4210   -8.9780    2.0120 C.3   129  ILE129      0.0022
    103  CG2       11.8550  -10.0650   -0.1780 C.3   129  ILE129      0.0023
    104  CD1       11.1370   -9.0210    2.8040 C.3   129  ILE129      0.0001
    105  N         14.3210   -8.9130   -2.2490 N.am  130  GLY130     -0.1940
    106  CA        14.3270   -9.1460   -3.6900 C.3   130  GLY130      0.2014
    107  C         14.0230  -10.5970   -4.0260 C.2   130  GLY130      0.2639
    108  O         13.8530  -10.9490   -5.1930 O.2   130  GLY130     -0.2714
    109  N         13.9520  -11.4360   -2.9950 N.am  131  GLY131     -0.1954
    110  CA        13.6710  -12.8590   -3.1650 C.3   131  GLY131      0.1869
    111  C         12.1860  -13.1610   -3.1800 C.2   131  GLY131      0.2309
    112  O         11.6200  -13.5670   -2.1640 O.2   131  GLY131     -0.2863
    113  N         11.8720   -3.5540   -5.7180 N.3   152  CYS152     -0.1235
    114  CA        12.1070   -4.4010   -4.5530 C.3   152  CYS152      0.1677
    115  C         11.0110   -4.1880   -3.5100 C.2   152  CYS152      0.2270
    116  O         10.2030   -3.2620   -3.6210 O.2   152  CYS152     -0.2867
    117  CB        13.4790   -4.1060   -3.9360 C.3   152  CYS152      0.0956
    118  SG        13.6480   -2.4230   -3.3060 S.3   152  CYS152     -0.0801
    119  N         21.7840   -8.8950   13.7680 N.3   164  SER164     -0.1217
    120  CA        22.8180   -9.8240   13.3230 C.3   164  SER164      0.1889
    121  C         24.1490   -9.0930   13.2050 C.2   164  SER164      0.2288
    122  O         24.1800   -7.8750   13.0160 O.2   164  SER164     -0.2866
    123  CB        22.4360  -10.4460   11.9780 C.3   164  SER164      0.2089
    124  OG        22.3250   -9.4530   10.9720 O.3   164  SER164     -0.2183
    125  N         27.5230   -7.6720   11.6260 N.3   166  LYS166     -0.1231
    126  CA        27.9070   -7.1520   10.3180 C.3   166  LYS166      0.1693
    127  C         29.0140   -7.9790    9.6620 C.2   166  LYS166      0.2593
    128  O         30.0430   -8.2700   10.2800 O.2   166  LYS166     -0.2718
    129  CB        28.3320   -5.6830   10.4260 C.3   166  LYS166      0.0285
    130  CG        27.1750   -4.6910   10.4570 C.3   166  LYS166      0.0035
    131  CD        26.7060   -4.3410    9.0500 C.3   166  LYS166      0.0206
    132  CE        25.5980   -3.3060    9.0760 C.3   166  LYS166      0.1093
    133  NZ        24.2610   -3.9020    9.3530 N.3   166  LYS166     -0.1314
    134  N         28.7770   -8.3570    8.4090 N.am  167  SER167     -0.1938
    135  CA        29.7560   -9.0590    7.5900 C.3   167  SER167      0.2055
    136  C         29.9950   -8.2620    6.3060 C.2   167  SER167      0.2642
    137  O         29.1290   -8.2020    5.4290 O.2   167  SER167     -0.2714
    138  CB        29.2610  -10.4740    7.2720 C.3   167  SER167      0.2130
    139  OG        30.2320  -11.2180    6.5550 O.3   167  SER167     -0.2179
    140  N         31.1620   -7.6250    6.2160 N.am  168  ARG168     -0.1977
    141  CA        31.5300   -6.8200    5.0460 C.3   168  ARG168      0.1597
    142  C         32.9780   -7.0660    4.6430 C.2   168  ARG168      0.2287
    143  O         33.8270   -7.3420    5.4960 O.2   168  ARG168     -0.2864
    144  CB        31.3470   -5.3230    5.3250 C.3   168  ARG168      0.0334
    145  CG        29.9270   -4.8690    5.6410 C.3   168  ARG168      0.0492
    146  CD        29.0070   -4.9480    4.4310 C.3   168  ARG168      0.2205
    147  NE        27.7520   -4.2340    4.6560 N.pl3 168  ARG168     -0.0865
    148  CZ        26.6950   -4.7410    5.2850 C.cat 168  ARG168      0.5346
    149  NH1       26.7250   -5.9790    5.7680 N.pl3 168  ARG168      0.1354
    150  NH2       25.6030   -4.0050    5.4370 N.pl3 168  ARG168      0.1354
@<TRIPOS>BOND
     1    73    71   ar
     2    73    74   ar
     3    75    74    1
     4    71    69   ar
     5    74    72   ar
     6    69    68    1
     7    69    70   ar
     8    64    65    1
     9    72    70   ar
    10    68    65    1
    11   113   114    1
    12   108   107    2
    13    65    66    1
    14   114   117    1
    15   114   115    1
    16   107   106    1
    17   107   109   am
    18    66    67    2
    19   117   118    1
    20   106   105    1
    21   116   115    2
    22   111   110    1
    23   111   112    2
    24   110   109    1
    25   105    99   am
    26   100    99    2
    27    82    80    1
    28    99    98    1
    29    76    77    1
    30    46    47   ar
    31    46    44   ar
    32    80    77    1
    33    80    81    1
    34    47    45   ar
    35    77    78    1
    36    95    93    1
    37    44    42   ar
    38   103   101    1
    39    98    97    1
    40    98   101    1
    41    45    43   ar
    42    55    53   am
    43    97    91   am
    44   101   102    1
    45    78    79    2
    46    37    38    1
    47    42    43   ar
    48    42    41    1
    49    93    90    1
    50    93    94    1
    51    91    92    2
    52    91    90    1
    53    53    52    1
    54    53    54    2
    55    96    94    1
    56    90    89    1
    57   102   104    1
    58    52    49    1
    59    41    38    1
    60    38    39    1
    61    48    39   am
    62    48    49    1
    63    39    40    2
    64    49    50    1
    65    89    85   am
    66    50    51    2
    67    86    85    2
    68    85    84    1
    69   146   147    1
    70   146   145    1
    71   142   141    1
    72   142   143    2
    73   147   148    2
    74    63    62    1
    75   141   144    1
    76   141   140    1
    77    88    87    1
    78   148   150    1
    79   148   149    1
    80   144   145    1
    81   137   136    2
    82    84    87    1
    83    84    83    1
    84    27    26    1
    85    36    35    1
    86   140   136   am
    87    10     9    1
    88   136   135    1
    89    62    61    1
    90   139   138    1
    91    11     9    1
    92     9     8    2
    93    26    23    1
    94    61    60    1
    95     8     7    1
    96    60    57    1
    97    35    34    1
    98    58    57    1
    99    58    59    2
   100   138   135    1
   101     7     6    1
   102    56    57    1
   103   135   134    1
   104    23    22    1
   105    23    24    1
   106    34    33    1
   107     6     5    1
   108    22    14   am
   109   134   127   am
   110    24    25    2
   111    14    15    2
   112    14    13    1
   113   131   132    1
   114   131   130    1
   115   132   133    1
   116    33    32    1
   117     5     2    1
   118    31    30    2
   119     4     3    2
   120    29    32    1
   121    29    30    1
   122    29    28    1
   123   127   128    2
   124   127   126    1
   125    13    12    1
   126    13    16    1
   127     3    12   am
   128     3     2    1
   129   126   129    1
   130   126   125    1
   131   129   130    1
   132     2     1    1
   133    16    17    1
   134   124   123    1
   135    17    19   ar
   136    17    18   ar
   137    19    21   ar
   138   123   120    1
   139    18    20   ar
   140    21    20   ar
   141   122   121    2
   142   121   120    1
   143   120   119    1
