@<TRIPOS>MOLECULE
tmp/3qdlA01.pdb
 79 78 0 0 0
SMALL
GASTEIGER

@<TRIPOS>ATOM
      1  N         10.4870   12.0950    0.6160 N.3    42  LEU42      -0.1231
      2  CA        11.4580   13.1930    0.6960 C.3    42  LEU42       0.1693
      3  C         12.8700   12.7940    0.2420 C.2    42  LEU42       0.2593
      4  O         13.8300   13.5370    0.4510 O.2    42  LEU42      -0.2718
      5  CB        11.4810   13.8020    2.1090 C.3    42  LEU42       0.0284
      6  CG        10.1700   14.3960    2.6660 C.3    42  LEU42       0.0019
      7  CD1       10.3330   14.8390    4.1080 C.3    42  LEU42       0.0001
      8  CD2        9.6490   15.5480    1.8170 C.3    42  LEU42       0.0001
      9  N         12.9840   11.6280   -0.3900 N.am   43  SER43      -0.1939
     10  CA        14.2710   11.1310   -0.8800 C.3    43  SER43       0.2040
     11  C         14.7400   11.8860   -2.1280 C.2    43  SER43       0.2485
     12  O         13.9130   12.4050   -2.8830 O.2    43  SER43      -0.2729
     13  CB        14.1820    9.6320   -1.1640 C.3    43  SER43       0.2129
     14  OG        13.9630    8.9130    0.0360 O.3    43  SER43      -0.2179
     15  N         16.0700   11.9560   -2.3430 N.am   44  PRO44      -0.2715
     16  CA        16.6110   12.6660   -3.5010 C.3    44  PRO44       0.1536
     17  C         16.6230   11.8200   -4.7800 C.2    44  PRO44       0.2599
     18  O         16.6270   10.5870   -4.7100 O.2    44  PRO44      -0.2715
     19  CB        18.0420   12.9920   -3.0650 C.3    44  PRO44       0.0310
     20  CG        18.4160   11.8760   -2.1550 C.3    44  PRO44       0.0237
     21  CD        17.1430   11.4130   -1.4830 C.3    44  PRO44       0.0939
     22  N         16.6230   12.4970   -5.9270 N.am   45  SER45      -0.1936
     23  CA        16.6990   11.8570   -7.2440 C.3    45  SER45       0.2055
     24  C         17.2320   12.8480   -8.2730 C.2    45  SER45       0.2644
     25  O         17.0770   14.0610   -8.1090 O.2    45  SER45      -0.2714
     26  CB        15.3300   11.3300   -7.6890 C.3    45  SER45       0.2130
     27  OG        14.4290   12.3900   -7.9410 O.3    45  SER45      -0.2179
     28  N         17.8610   12.3240   -9.3240 N.am   46  SER46      -0.1935
     29  CA        18.3740   13.1350  -10.4260 C.3    46  SER46       0.2055
     30  C         17.2690   14.0100  -11.0200 C.2    46  SER46       0.2643
     31  O         16.1630   13.5240  -11.2760 O.2    46  SER46      -0.2714
     32  CB        18.9850   12.2320  -11.5010 C.3    46  SER46       0.2130
     33  OG        19.0250   12.8810  -12.7590 O.3    46  SER46      -0.2179
     34  N         17.5750   15.2980  -11.2030 N.am   47  TYR47      -0.1959
     35  CA        16.6250   16.3040  -11.7150 C.3    47  TYR47       0.1771
     36  C         15.2560   16.2700  -11.0240 C.2    47  TYR47       0.2619
     37  O         14.2560   16.7480  -11.5720 O.2    47  TYR47      -0.2715
     38  CB        16.4820   16.2130  -13.2440 C.3    47  TYR47       0.0574
     39  CG        17.7500   16.5780  -13.9940 C.ar   47  TYR47      -0.0198
     40  CD1       18.1380   17.9140  -14.1490 C.ar   47  TYR47      -0.0009
     41  CD2       18.5650   15.5890  -14.5420 C.ar   47  TYR47      -0.0009
     42  CE1       19.3150   18.2490  -14.8300 C.ar   47  TYR47       0.0417
     43  CE2       19.7400   15.9140  -15.2240 C.ar   47  TYR47       0.0417
     44  CZ        20.1050   17.2410  -15.3670 C.ar   47  TYR47       0.1957
     45  OH        21.2650   17.5500  -16.0460 O.3    47  TYR47      -0.2866
     46  N         15.2330   15.7140   -9.8140 N.am   48  ASN48      -0.1972
     47  CA        14.0170   15.5810   -9.0130 C.3    48  ASN48       0.1688
     48  C         12.8850   14.8750   -9.7750 C.2    48  ASN48       0.2292
     49  O         11.7240   15.2950   -9.7220 O.2    48  ASN48      -0.2864
     50  CB        13.5730   16.9540   -8.4790 C.3    48  ASN48       0.1181
     51  CG        12.7300   16.8560   -7.2160 C.2    48  ASN48       0.2629
     52  OD1       12.6850   15.8190   -6.5560 O.2    48  ASN48      -0.2716
     53  ND2       12.0570   17.9450   -6.8760 N.am   48  ASN48      -0.0877
     54  N         17.8140    3.2010  -10.4390 N.3   106  GLU106     -0.1231
     55  CA        18.8970    3.8590   -9.7030 C.3   106  GLU106      0.1699
     56  C         18.3400    4.8550   -8.6860 C.2   106  GLU106      0.2592
     57  O         18.8060    4.9090   -7.5480 O.2   106  GLU106     -0.2718
     58  CB        19.8570    4.5650  -10.6640 C.3   106  GLU106      0.0402
     59  CG        20.8290    3.6270  -11.3580 C.3   106  GLU106      0.1161
     60  CD        21.6860    4.2910  -12.4330 C.2   106  GLU106      0.3649
     61  OE1       21.5500    5.5090  -12.6830 O.co2 106  GLU106     -0.2457
     62  OE2       22.5070    3.5770  -13.0450 O.co2 106  GLU106     -0.2457
     63  N         17.3400    5.6280   -9.1080 N.am  107  GLN107     -0.1979
     64  CA        16.6840    6.6130   -8.2440 C.3   107  GLN107      0.1601
     65  C         15.9110    5.9170   -7.1280 C.2   107  GLN107      0.2287
     66  O         15.9680    6.3330   -5.9720 O.2   107  GLN107     -0.2864
     67  CB        15.7380    7.5080   -9.0540 C.3   107  GLN107      0.0394
     68  CG        16.2860    7.9930  -10.4020 C.3   107  GLN107      0.0908
     69  CD        17.6530    8.6450  -10.2830 C.2   107  GLN107      0.2608
     70  OE1       17.8750    9.4870   -9.4150 O.2   107  GLN107     -0.2717
     71  NE2       18.5780    8.2510  -11.1560 N.am  107  GLN107     -0.0878
     72  N         18.2440    4.6330   -4.4160 N.3   110  ILE110     -0.1245
     73  CA        18.6210    5.7200   -3.5030 C.3   110  ILE110      0.1561
     74  C         17.5710    5.8480   -2.3970 C.2   110  ILE110      0.2260
     75  O         17.8930    5.7890   -1.2050 O.2   110  ILE110     -0.2867
     76  CB        18.8090    7.0740   -4.2400 C.3   110  ILE110      0.0252
     77  CG1       20.0480    7.0210   -5.1440 C.3   110  ILE110      0.0019
     78  CG2       18.9370    8.2310   -3.2360 C.3   110  ILE110      0.0019
     79  CD1       20.1320    8.1520   -6.1490 C.3   110  ILE110      0.0001
@<TRIPOS>BOND
     1    45    44    1
     2    44    43   ar
     3    44    42   ar
     4    43    41   ar
     5    42    40   ar
     6    41    39   ar
     7    40    39   ar
     8    39    38    1
     9    38    35    1
    10    62    60   ar
    11    33    32    1
    12    61    60   ar
    13    60    59    1
    14    35    34    1
    15    35    36    1
    16    37    36    2
    17    32    29    1
    18    59    58    1
    19    31    30    2
    20    34    30   am
    21    71    69   am
    22    36    46   am
    23    30    29    1
    24    58    55    1
    25    54    55    1
    26    29    28    1
    27    68    69    1
    28    68    67    1
    29    69    70    2
    30    46    47    1
    31    48    49    2
    32    48    47    1
    33    55    56    1
    34    28    24   am
    35    63    56   am
    36    63    64    1
    37    67    64    1
    38    47    50    1
    39    56    57    2
    40    50    51    1
    41    24    25    2
    42    24    23    1
    43    64    65    1
    44    27    26    1
    45    26    23    1
    46    23    22    1
    47    51    53   am
    48    51    52    2
    49    65    66    2
    50    79    77    1
    51    22    17   am
    52    77    76    1
    53    17    18    2
    54    17    16    1
    55    72    73    1
    56    76    73    1
    57    76    78    1
    58    73    74    1
    59    16    19    1
    60    16    15    1
    61    19    20    1
    62    12    11    2
    63    74    75    2
    64    15    11   am
    65    15    21    1
    66    20    21    1
    67    11    10    1
    68    13    10    1
    69    13    14    1
    70    10     9    1
    71     9     3   am
    72     3     4    2
    73     3     2    1
    74     1     2    1
    75     2     5    1
    76     8     6    1
    77     5     6    1
    78     6     7    1
