@<TRIPOS>MOLECULE
tmp/3qduA00.pdb
 131 126 0 0 0
SMALL
GASTEIGER

@<TRIPOS>ATOM
      1  N        -12.6170  -92.6490   52.8240 N.3    78  ASP78      -0.1225
      2  CA       -13.1050  -91.4880   53.5440 C.3    78  ASP78       0.1805
      3  C        -12.9040  -90.2570   52.6800 C.2    78  ASP78       0.2598
      4  O        -12.0110  -90.2220   51.8320 O.2    78  ASP78      -0.2718
      5  CB       -12.3500  -91.3280   54.8670 C.3    78  ASP78       0.1424
      6  CG       -12.9330  -90.2370   55.7480 C.2    78  ASP78       0.3668
      7  OD1      -12.1580  -89.5850   56.4810 O.co2  78  ASP78      -0.2456
      8  OD2      -14.1640  -90.0330   55.7120 O.co2  78  ASP78      -0.2456
      9  N        -13.7530  -89.2580   52.8850 N.am   79  VAL79      -0.1966
     10  CA       -13.5980  -87.9730   52.2280 C.3    79  VAL79       0.1727
     11  C        -13.6760  -86.8700   53.2710 C.2    79  VAL79       0.2616
     12  O        -14.5860  -86.8500   54.0990 O.2    79  VAL79      -0.2715
     13  CB       -14.6810  -87.7490   51.1510 C.3    79  VAL79       0.0290
     14  CG1      -14.5950  -86.3370   50.5890 C.3    79  VAL79       0.0023
     15  CG2      -14.5490  -88.7800   50.0390 C.3    79  VAL79       0.0023
     16  N        -12.7040  -85.9650   53.2440 N.am   80  VAL80      -0.1963
     17  CA       -12.7260  -84.8000   54.1180 C.3    80  VAL80       0.1727
     18  C        -12.7990  -83.5450   53.2620 C.2    80  VAL80       0.2616
     19  O        -11.9890  -83.3650   52.3510 O.2    80  VAL80      -0.2715
     20  CB       -11.4710  -84.7240   55.0100 C.3    80  VAL80       0.0290
     21  CG1      -11.5720  -83.5390   55.9670 C.3    80  VAL80       0.0023
     22  CG2      -11.2830  -86.0200   55.7760 C.3    80  VAL80       0.0023
     23  N        -13.7770  -82.6890   53.5510 N.am   81  THR81      -0.1951
     24  CA       -13.9880  -81.4650   52.7860 C.3    81  THR81       0.1897
     25  C        -13.7500  -80.2260   53.6430 C.2    81  THR81       0.2313
     26  O        -13.4730  -80.3260   54.8390 O.2    81  THR81      -0.2863
     27  CB       -15.4330  -81.3850   52.2350 C.3    81  THR81       0.1794
     28  OG1      -16.3360  -81.0700   53.3010 O.3    81  THR81      -0.2208
     29  CG2      -15.8460  -82.7040   51.6010 C.3    81  THR81       0.0378
     30  N        -11.3590  -78.1750   53.7680 N.3    83  LEU83      -0.1245
     31  CA       -10.0140  -78.1030   54.3150 C.3    83  LEU83       0.1561
     32  C         -9.4520  -76.6960   54.1750 C.2    83  LEU83       0.2260
     33  O         -9.8060  -75.9660   53.2510 O.2    83  LEU83      -0.2867
     34  CB        -9.0910  -79.0970   53.6100 C.3    83  LEU83       0.0270
     35  CG        -9.3990  -80.5850   53.7890 C.3    83  LEU83       0.0019
     36  CD1       -8.5810  -81.4180   52.8160 C.3    83  LEU83       0.0001
     37  CD2       -9.1520  -81.0300   55.2260 C.3    83  LEU83       0.0001
     38  N         -4.0750  -77.4800   55.9450 N.3    87  GLU87      -0.1245
     39  CA        -4.4550  -78.8580   56.2330 C.3    87  GLU87       0.1567
     40  C         -4.1850  -79.7460   55.0260 C.2    87  GLU87       0.2260
     41  O         -5.1080  -80.1940   54.3390 O.2    87  GLU87      -0.2867
     42  CB        -5.9160  -78.9280   56.6720 C.3    87  GLU87       0.0388
     43  CG        -6.1600  -78.2700   58.0290 C.3    87  GLU87       0.1160
     44  CD        -7.6120  -77.8880   58.2500 C.2    87  GLU87       0.3649
     45  OE1       -8.4230  -78.0590   57.3190 O.co2  87  GLU87      -0.2457
     46  OE2       -7.9400  -77.4080   59.3540 O.co2  87  GLU87      -0.2457
     47  N         -3.8120  -88.8300   60.5340 N.3    95  GLN95      -0.1245
     48  CA        -4.9190  -88.7020   61.4860 C.3    95  GLN95       0.1566
     49  C         -5.8190  -89.9330   61.5000 C.2    95  GLN95       0.2260
     50  O         -6.6980  -90.0620   62.3560 O.2    95  GLN95      -0.2867
     51  CB        -5.7420  -87.4440   61.1960 C.3    95  GLN95       0.0367
     52  CG        -4.9750  -86.1510   61.4130 C.3    95  GLN95       0.0905
     53  CD        -5.8550  -84.9210   61.3220 C.2    95  GLN95       0.2608
     54  OE1       -5.7250  -83.9980   62.1220 O.2    95  GLN95      -0.2717
     55  NE2       -6.7570  -84.9030   60.3500 N.am   95  GLN95      -0.0878
     56  N         -8.0100  -88.6070   65.2170 N.3   101  PRO101     -0.2102
     57  CA        -9.4340  -88.2750   65.1710 C.3   101  PRO101      0.1504
     58  C        -10.1650  -88.7800   63.9210 C.2   101  PRO101      0.2575
     59  O        -11.3490  -88.4970   63.7510 O.2   101  PRO101     -0.2718
     60  CB        -9.4360  -86.7400   65.2070 C.3   101  PRO101      0.0282
     61  CG        -8.1170  -86.3490   64.6310 C.3   101  PRO101      0.0208
     62  CD        -7.1540  -87.4170   65.0660 C.3   101  PRO101      0.0893
     63  N         -9.4770  -89.5260   63.0610 N.am  102  ARG102     -0.1980
     64  CA       -10.1110  -90.0590   61.8550 C.3   102  ARG102      0.1597
     65  C        -10.0410  -91.5890   61.7810 C.2   102  ARG102      0.2287
     66  O        -10.6380  -92.2050   60.8980 O.2   102  ARG102     -0.2864
     67  CB        -9.5030  -89.4230   60.5970 C.3   102  ARG102      0.0334
     68  CG        -9.5740  -87.8930   60.5890 C.3   102  ARG102      0.0492
     69  CD        -9.1050  -87.2800   59.2660 C.3   102  ARG102      0.2205
     70  NE        -8.8960  -85.8400   59.4190 N.pl3 102  ARG102     -0.0865
     71  CZ        -9.8660  -84.9320   59.3920 C.cat 102  ARG102      0.5346
     72  NH1      -11.1280  -85.3010   59.1980 N.pl3 102  ARG102      0.1354
     73  NH2       -9.5750  -83.6490   59.5560 N.pl3 102  ARG102      0.1354
     74  N        -11.5210  -93.7900   63.2290 N.3   104  TYR104     -0.1227
     75  CA       -12.8220  -94.4510   63.3190 C.3   104  TYR104      0.1736
     76  C        -13.4590  -94.7600   61.9570 C.2   104  TYR104      0.2596
     77  O        -14.0580  -95.8210   61.7840 O.2   104  TYR104     -0.2718
     78  CB       -13.7870  -93.6580   64.2110 C.3   104  TYR104      0.0548
     79  CG       -14.3600  -92.4110   63.5730 C.ar  104  TYR104     -0.0200
     80  CD1      -13.6420  -91.2200   63.5580 C.ar  104  TYR104     -0.0009
     81  CD2      -15.6260  -92.4230   62.9950 C.ar  104  TYR104     -0.0009
     82  CE1      -14.1680  -90.0770   62.9800 C.ar  104  TYR104      0.0417
     83  CE2      -16.1580  -91.2890   62.4140 C.ar  104  TYR104      0.0417
     84  CZ       -15.4270  -90.1180   62.4100 C.ar  104  TYR104      0.1957
     85  OH       -15.9580  -88.9880   61.8330 O.3   104  TYR104     -0.2866
     86  N        -13.3440  -93.8530   60.9900 N.am  105  THR105     -0.1953
     87  CA       -13.9000  -94.1430   59.6630 C.3   105  THR105      0.1897
     88  C        -13.0780  -95.2080   58.9170 C.2   105  THR105      0.2313
     89  O        -13.6170  -95.9600   58.1090 O.2   105  THR105     -0.2863
     90  CB       -14.1360  -92.8780   58.7930 C.3   105  THR105      0.1794
     91  OG1      -13.2570  -91.8310   59.2110 O.3   105  THR105     -0.2208
     92  CG2      -15.6040  -92.3920   58.9080 C.3   105  THR105      0.0378
     93  N        -18.7880  -94.4330   50.3030 N.3   113  TYR113     -0.1241
     94  CA       -18.9840  -93.3010   51.1970 C.3   113  TYR113      0.1605
     95  C        -19.1950  -92.0240   50.4060 C.2   113  TYR113      0.2264
     96  O        -18.5510  -91.7990   49.3790 O.2   113  TYR113     -0.2867
     97  CB       -17.7930  -93.1300   52.1440 C.3   113  TYR113      0.0534
     98  CG       -17.9350  -91.9350   53.0570 C.ar  113  TYR113     -0.0201
     99  CD1      -18.7840  -91.9760   54.1570 C.ar  113  TYR113     -0.0009
    100  CD2      -17.2380  -90.7570   52.8110 C.ar  113  TYR113     -0.0009
    101  CE1      -18.9280  -90.8820   54.9940 C.ar  113  TYR113      0.0417
    102  CE2      -17.3740  -89.6560   53.6460 C.ar  113  TYR113      0.0417
    103  CZ       -18.2240  -89.7260   54.7340 C.ar  113  TYR113      0.1957
    104  OH       -18.3680  -88.6390   55.5690 O.3   113  TYR113     -0.2866
    105  N        -20.2760  -87.5850   50.9350 N.3   115  VAL115     -0.1231
    106  CA       -20.4650  -86.4500   51.8200 C.3   115  VAL115      0.1692
    107  C        -20.5360  -85.1960   50.9690 C.2   115  VAL115      0.2593
    108  O        -19.9710  -85.1500   49.8750 O.2   115  VAL115     -0.2718
    109  CB       -19.3050  -86.3100   52.8290 C.3   115  VAL115      0.0266
    110  CG1      -17.9820  -86.1170   52.1010 C.3   115  VAL115      0.0020
    111  CG2      -19.5640  -85.1510   53.7820 C.3   115  VAL115      0.0020
    112  N        -21.2400  -84.1860   51.4640 N.am  116  THR116     -0.1939
    113  CA       -21.3640  -82.9250   50.7460 C.3   116  THR116      0.2028
    114  C        -20.6990  -81.8130   51.5460 C.2   116  THR116      0.2643
    115  O        -21.0300  -81.5980   52.7120 O.2   116  THR116     -0.2714
    116  CB       -22.8480  -82.5820   50.4730 C.3   116  THR116      0.1808
    117  OG1      -23.4410  -83.6360   49.7060 O.3   116  THR116     -0.2208
    118  CG2      -22.9740  -81.2710   49.7030 C.3   116  THR116      0.0379
    119  N        -19.7460  -81.1220   50.9270 N.am  117  SER117     -0.1935
    120  CA       -19.0510  -80.0290   51.5970 C.3   117  SER117      0.2055
    121  C        -20.0270  -78.8930   51.8850 C.2   117  SER117      0.2642
    122  O        -21.0890  -78.8100   51.2700 O.2   117  SER117     -0.2714
    123  CB       -17.8740  -79.5250   50.7540 C.3   117  SER117      0.2130
    124  OG       -18.3180  -78.8310   49.6020 O.3   117  SER117     -0.2179
    125  N        -19.6690  -78.0220   52.8220 N.am  118  VAL118     -0.1977
    126  CA       -20.5520  -76.9220   53.1950 C.3   118  VAL118      0.1596
    127  C        -20.8020  -75.9810   52.0140 C.2   118  VAL118      0.2287
    128  O        -21.8580  -75.3570   51.9250 O.2   118  VAL118     -0.2864
    129  CB       -20.0130  -76.1360   54.4140 C.3   118  VAL118      0.0276
    130  CG1      -18.5650  -75.7250   54.1920 C.3   118  VAL118      0.0022
    131  CG2      -20.8890  -74.9210   54.6990 C.3   118  VAL118      0.0022
@<TRIPOS>BOND
     1    96    95    2
     2   124   123    1
     3   118   116    1
     4   117   116    1
     5   108   107    2
     6    15    13    1
     7    93    94    1
     8    95    94    1
     9   116   113    1
    10    14    13    1
    11   113   112    1
    12   113   114    1
    13   123   120    1
    14   119   114   am
    15   119   120    1
    16   105   106    1
    17   107   112   am
    18   107   106    1
    19    13    10    1
    20    94    97    1
    21   122   121    2
    22   114   115    2
    23   120   121    1
    24    29    27    1
    25   106   109    1
    26     4     3    2
    27   121   125   am
    28   128   127    2
    29   127   126    1
    30   110   109    1
    31    97    98    1
    32    10     9    1
    33    10    11    1
    34    27    24    1
    35    27    28    1
    36    19    18    2
    37     3     9   am
    38     3     2    1
    39    24    23    1
    40    24    25    1
    41   100    98   ar
    42   100   102   ar
    43    36    35    1
    44   125   126    1
    45     1     2    1
    46   109   111    1
    47    98    99   ar
    48   126   129    1
    49    16    11   am
    50    16    17    1
    51    33    32    2
    52    18    23   am
    53    18    17    1
    54    11    12    2
    55     2     5    1
    56    34    35    1
    57    34    31    1
    58    25    26    2
    59   102   103   ar
    60    30    31    1
    61    35    37    1
    62    17    20    1
    63    99   101   ar
    64    32    31    1
    65   130   129    1
    66    41    40    2
    67   129   131    1
    68   103   101   ar
    69   103   104    1
    70     5     6    1
    71    20    22    1
    72    20    21    1
    73    40    39    1
    74     8     6   ar
    75     6     7   ar
    76    38    39    1
    77    39    42    1
    78    42    43    1
    79    45    44   ar
    80    43    44    1
    81    89    88    2
    82    44    46   ar
    83    90    92    1
    84    90    91    1
    85    90    87    1
    86    88    87    1
    87    72    71    1
    88    69    70    1
    89    69    68    1
    90    71    70    2
    91    71    73    1
    92    87    86    1
    93    55    53   am
    94    47    48    1
    95    68    67    1
    96    67    64    1
    97    66    65    2
    98    86    76   am
    99    51    52    1
   100    51    48    1
   101    53    52    1
   102    53    54    2
   103    48    49    1
   104    49    50    2
   105    65    64    1
   106    77    76    2
   107    85    84    1
   108    64    63    1
   109    76    75    1
   110    84    83   ar
   111    84    82   ar
   112    83    81   ar
   113    82    80   ar
   114    81    79   ar
   115    63    58   am
   116    74    75    1
   117    75    78    1
   118    80    79   ar
   119    79    78    1
   120    59    58    2
   121    58    57    1
   122    61    62    1
   123    61    60    1
   124    62    56    1
   125    57    60    1
   126    57    56    1
