@<TRIPOS>MOLECULE
tmp/3qdwB00.pdb
 88 87 0 0 0
SMALL
GASTEIGER

@<TRIPOS>ATOM
      1  N          1.8030   59.1860   -3.4430 N.3    28  TYR28      -0.1227
      2  CA         0.7780   58.2430   -2.9880 C.3    28  TYR28       0.1736
      3  C          1.3910   56.9750   -2.4020 C.2    28  TYR28       0.2595
      4  O          2.5960   56.7470   -2.5020 O.2    28  TYR28      -0.2718
      5  CB        -0.1880   57.8650   -4.1180 C.3    28  TYR28       0.0548
      6  CG        -1.0250   59.0130   -4.6180 C.ar   28  TYR28      -0.0200
      7  CD1       -1.1320   60.1880   -3.8830 C.ar   28  TYR28      -0.0009
      8  CD2       -1.7810   58.8930   -5.7780 C.ar   28  TYR28      -0.0009
      9  CE1       -1.9160   61.2350   -4.3190 C.ar   28  TYR28       0.0417
     10  CE2       -2.5740   59.9360   -6.2210 C.ar   28  TYR28       0.0417
     11  CZ        -2.6370   61.1040   -5.4850 C.ar   28  TYR28       0.1957
     12  OH        -3.4140   62.1510   -5.9250 O.3    28  TYR28      -0.2866
     13  N          0.5460   56.1500   -1.7910 N.am   29  ALA29      -0.1980
     14  CA         0.9830   54.8660   -1.2500 C.3    29  ALA29       0.1597
     15  C          2.1680   55.0020   -0.2970 C.2    29  ALA29       0.2287
     16  O          3.0350   54.1310   -0.2350 O.2    29  ALA29      -0.2864
     17  CB         1.3090   53.9010   -2.3780 C.3    29  ALA29       0.0319
     18  N          0.8420   49.6980   -3.1810 N.3    48  SER48      -0.1202
     19  CA         0.3350   49.8960   -4.5300 C.3    48  SER48       0.2020
     20  C         -0.2700   51.2850   -4.6330 C.2    48  SER48       0.2619
     21  O         -0.9600   51.7370   -3.7150 O.2    48  SER48      -0.2717
     22  CB        -0.7470   48.8510   -4.8500 C.3    48  SER48       0.2103
     23  OG        -1.3360   49.1050   -6.1170 O.3    48  SER48      -0.2182
     24  N         -0.0190   51.9640   -5.7480 N.am   49  GLY49      -0.1956
     25  CA        -0.6980   53.2220   -6.0260 C.3    49  GLY49       0.1869
     26  C          0.2200   54.3950   -6.2850 C.2    49  GLY49       0.2309
     27  O         -0.2350   55.5340   -6.3940 O.2    49  GLY49      -0.2863
     28  N         -0.2540   50.1880  -10.1220 N.3    71  HIS71      -0.1226
     29  CA        -1.6040   50.7310  -10.0600 C.3    71  HIS71       0.1752
     30  C         -2.5800   49.5810   -9.8300 C.2    71  HIS71       0.2596
     31  O         -2.6190   48.6280  -10.6070 O.2    71  HIS71      -0.2718
     32  CB        -1.9430   51.4650  -11.3610 C.3    71  HIS71       0.0759
     33  CG        -3.3460   51.9910  -11.4140 C.ar   71  HIS71       0.0818
     34  ND1       -4.2330   51.6500  -12.4140 N.ar   71  HIS71      -0.2268
     35  CD2       -4.0210   52.8170  -10.5800 C.ar   71  HIS71       0.1154
     36  CE1       -5.3870   52.2570  -12.2030 C.ar   71  HIS71       0.1986
     37  NE2       -5.2850   52.9750  -11.0990 N.ar   71  HIS71      -0.2212
     38  N         -3.3340   49.6570   -8.7390 N.am   72  ASN72      -0.1960
     39  CA        -4.2200   48.5680   -8.3450 C.3    72  ASN72       0.1819
     40  C         -3.5430   47.1980   -8.4180 C.2    72  ASN72       0.2621
     41  O         -4.0770   46.2560   -9.0140 O.2    72  ASN72      -0.2715
     42  CB        -5.5070   48.5950   -9.1680 C.3    72  ASN72       0.1195
     43  CG        -6.3830   49.7840   -8.8270 C.2    72  ASN72       0.2630
     44  OD1       -6.4070   50.2420   -7.6840 O.2    72  ASN72      -0.2716
     45  ND2       -7.1120   50.2870   -9.8150 N.am   72  ASN72      -0.0877
     46  N         -2.3420   47.1260   -7.8470 N.am   73  TYR73      -0.1974
     47  CA        -1.6040   45.8780   -7.6670 C.3    73  TYR73       0.1639
     48  C         -1.0460   45.2810   -8.9560 C.2    73  TYR73       0.2290
     49  O         -0.6080   44.1340   -8.9750 O.2    73  TYR73      -0.2864
     50  CB        -2.4430   44.8540   -6.8830 C.3    73  TYR73       0.0560
     51  CG        -3.1050   45.4540   -5.6590 C.ar   73  TYR73      -0.0198
     52  CD1       -4.4480   45.8210   -5.6830 C.ar   73  TYR73      -0.0009
     53  CD2       -2.3740   45.7120   -4.5030 C.ar   73  TYR73      -0.0009
     54  CE1       -5.0470   46.4100   -4.5850 C.ar   73  TYR73       0.0417
     55  CE2       -2.9700   46.2910   -3.3920 C.ar   73  TYR73       0.0417
     56  CZ        -4.3040   46.6460   -3.4460 C.ar   73  TYR73       0.1957
     57  OH        -4.9050   47.2230   -2.3530 O.3    73  TYR73      -0.2866
     58  N         -1.3040   61.4760  -12.8990 N.3    97  TYR97      -0.1227
     59  CA        -2.3820   61.4710  -11.9050 C.3    97  TYR97       0.1736
     60  C         -3.3560   62.6440  -12.1050 C.2    97  TYR97       0.2595
     61  O         -3.1340   63.4900  -12.9600 O.2    97  TYR97      -0.2718
     62  CB        -1.7810   61.4820  -10.4900 C.3    97  TYR97       0.0548
     63  CG        -0.8750   60.2930  -10.2410 C.ar   97  TYR97      -0.0200
     64  CD1        0.4630   60.3190  -10.6220 C.ar   97  TYR97      -0.0009
     65  CD2       -1.3840   59.1120   -9.7140 C.ar   97  TYR97      -0.0009
     66  CE1        1.2830   59.2150  -10.4330 C.ar   97  TYR97       0.0417
     67  CE2       -0.5800   58.0050   -9.5230 C.ar   97  TYR97       0.0417
     68  CZ         0.7520   58.0610   -9.8890 C.ar   97  TYR97       0.1957
     69  OH         1.5450   56.9580   -9.7000 O.3    97  TYR97      -0.2866
     70  N         -4.4590   62.6600  -11.3600 N.am   98  ASN98      -0.1974
     71  CA        -5.4020   63.8150  -11.3580 C.3    98  ASN98       0.1688
     72  C         -5.8910   64.4290  -12.6690 C.2    98  ASN98       0.2292
     73  O         -5.8650   65.6560  -12.8110 O.2    98  ASN98      -0.2864
     74  CB        -4.7930   64.9840  -10.6050 C.3    98  ASN98       0.1181
     75  CG        -4.3750   64.6220   -9.2250 C.2    98  ASN98       0.2629
     76  OD1       -5.1720   64.1220   -8.4370 O.2    98  ASN98      -0.2716
     77  ND2       -3.1190   64.8880   -8.9070 N.am   98  ASN98      -0.0877
     78  N         -0.9970   55.1260  -17.2020 N.3   106  ARG106     -0.1245
     79  CA        -0.9630   54.4020  -15.9270 C.3   106  ARG106      0.1563
     80  C         -2.1010   53.3780  -15.8460 C.2   106  ARG106      0.2260
     81  O         -1.9090   52.2440  -15.3930 O.2   106  ARG106     -0.2867
     82  CB        -1.0350   55.3780  -14.7450 C.3   106  ARG106      0.0307
     83  CG        -1.2070   54.7180  -13.3730 C.3   106  ARG106      0.0489
     84  CD        -1.0950   55.7520  -12.2390 C.3   106  ARG106      0.2205
     85  NE        -1.9740   56.8910  -12.4860 N.pl3 106  ARG106     -0.0865
     86  CZ        -3.2800   56.9010  -12.2360 C.cat 106  ARG106      0.5346
     87  NH1       -3.8640   55.8440  -11.6880 N.pl3 106  ARG106      0.1354
     88  NH2       -4.0050   57.9730  -12.5350 N.pl3 106  ARG106      0.1354
@<TRIPOS>BOND
     1    78    79    1
     2    79    80    1
     3    79    82    1
     4    80    81    2
     5    82    83    1
     6    83    84    1
     7    61    60    2
     8    58    59    1
     9    73    72    2
    10    72    71    1
    11    88    86    1
    12    85    84    1
    13    85    86    2
    14    34    36   ar
    15    34    33   ar
    16    86    87    1
    17    36    37   ar
    18    60    59    1
    19    60    70   am
    20    59    62    1
    21    33    32    1
    22    33    35   ar
    23    32    29    1
    24    70    71    1
    25    71    74    1
    26    37    35   ar
    27    64    66   ar
    28    64    63   ar
    29    31    30    2
    30    74    75    1
    31    62    63    1
    32    66    68   ar
    33    63    65   ar
    34    28    29    1
    35    29    30    1
    36    68    69    1
    37    68    67   ar
    38    30    38   am
    39    45    43   am
    40    65    67   ar
    41    75    77   am
    42    75    76    2
    43    42    43    1
    44    42    39    1
    45    41    40    2
    46    49    48    2
    47    48    47    1
    48    43    44    2
    49    38    39    1
    50    40    39    1
    51    40    46   am
    52    46    47    1
    53    47    50    1
    54    50    51    1
    55    27    26    2
    56    26    25    1
    57    10     8   ar
    58    10    11   ar
    59    23    22    1
    60    25    24    1
    61    12    11    1
    62     8     6   ar
    63    24    20   am
    64    52    51   ar
    65    52    54   ar
    66    51    53   ar
    67    11     9   ar
    68    22    19    1
    69    20    19    1
    70    20    21    2
    71     6     5    1
    72     6     7   ar
    73    54    56   ar
    74    19    18    1
    75    53    55   ar
    76     9     7   ar
    77     5     2    1
    78    56    55   ar
    79    56    57    1
    80     1     2    1
    81     2     3    1
    82     4     3    2
    83     3    13   am
    84    17    14    1
    85    13    14    1
    86    14    15    1
    87    15    16    2
