@<TRIPOS>MOLECULE
tmp/3qdxA01.pdb
 105 104 0 0 0
SMALL
GASTEIGER

@<TRIPOS>ATOM
      1  N         -6.7000   -0.8560  -10.9680 N.3    28  TYR28      -0.1227
      2  CA        -6.2800   -1.2020  -12.3330 C.3    28  TYR28       0.1736
      3  C         -7.4650   -1.1210  -13.3080 C.2    28  TYR28       0.2595
      4  O         -8.6240   -1.0770  -12.8950 O.2    28  TYR28      -0.2718
      5  CB        -5.7470   -2.6250  -12.3510 C.3    28  TYR28       0.0548
      6  CG        -4.3710   -2.8420  -11.7280 C.ar   28  TYR28      -0.0200
      7  CD1       -3.8920   -4.1390  -11.5470 C.ar   28  TYR28      -0.0009
      8  CD2       -3.5710   -1.7830  -11.3090 C.ar   28  TYR28      -0.0009
      9  CE1       -2.6600   -4.3830  -11.0030 C.ar   28  TYR28       0.0417
     10  CE2       -2.3140   -2.0240  -10.7280 C.ar   28  TYR28       0.0417
     11  CZ        -1.8680   -3.3240  -10.6010 C.ar   28  TYR28       0.1957
     12  OH        -0.6170   -3.5890  -10.0500 O.3    28  TYR28      -0.2866
     13  N         -7.1530   -1.1250  -14.6040 N.am   29  ALA29      -0.1966
     14  CA        -8.1720   -1.2190  -15.6490 C.3    29  ALA29       0.1728
     15  C         -9.1790   -0.0890  -15.5410 C.2    29  ALA29       0.2616
     16  O        -10.3640   -0.2790  -15.7930 O.2    29  ALA29      -0.2715
     17  CB        -8.8770   -2.5840  -15.6150 C.3    29  ALA29       0.0334
     18  N         -8.6750    1.0980  -15.2030 N.am   30  ASN30      -0.1972
     19  CA        -9.5170    2.3040  -15.0760 C.3    30  ASN30       0.1688
     20  C        -10.5770    2.1940  -13.9710 C.2    30  ASN30       0.2292
     21  O        -11.6040    2.8680  -13.9950 O.2    30  ASN30      -0.2864
     22  CB       -10.1310    2.7030  -16.4270 C.3    30  ASN30       0.1181
     23  CG        -9.0720    3.1660  -17.4160 C.2    30  ASN30       0.2629
     24  OD1       -8.2220    3.9850  -17.0810 O.2    30  ASN30      -0.2716
     25  ND2       -9.1090    2.6340  -18.6170 N.am   30  ASN30      -0.0877
     26  N        -10.5880   -5.6580  -18.5550 N.3    48  SER48      -0.1202
     27  CA       -10.0720   -6.8320  -17.8370 C.3    48  SER48       0.2020
     28  C         -8.8560   -6.4140  -17.0040 C.2    48  SER48       0.2619
     29  O         -8.0560   -5.5680  -17.4490 O.2    48  SER48      -0.2717
     30  CB        -9.6550   -7.9410  -18.8260 C.3    48  SER48       0.2103
     31  OG        -9.0190   -9.0180  -18.1480 O.3    48  SER48      -0.2182
     32  N         -8.7470   -6.9780  -15.7960 N.am   49  GLY49      -0.1956
     33  CA        -7.5160   -6.8680  -14.9700 C.3    49  GLY49       0.1869
     34  C         -7.7150   -6.1760  -13.6280 C.2    49  GLY49       0.2309
     35  O         -6.7550   -5.7500  -12.9920 O.2    49  GLY49      -0.2863
     36  N         -9.5470  -11.5370  -14.7960 N.3    71  HIS71      -0.1226
     37  CA        -8.0930  -11.6220  -14.9770 C.3    71  HIS71       0.1752
     38  C         -7.8080  -12.2230  -16.3470 C.2    71  HIS71       0.2596
     39  O         -8.2340  -13.3440  -16.6320 O.2    71  HIS71      -0.2718
     40  CB        -7.4590  -12.5160  -13.9080 C.3    71  HIS71       0.0759
     41  CG        -5.9900  -12.7340  -14.1130 C.ar   71  HIS71       0.0818
     42  ND1       -5.4350  -13.9750  -14.3570 N.ar   71  HIS71      -0.2268
     43  CD2       -4.9650  -11.8520  -14.1410 C.ar   71  HIS71       0.1154
     44  CE1       -4.1230  -13.8500  -14.5100 C.ar   71  HIS71       0.1986
     45  NE2       -3.8110  -12.5730  -14.3660 N.ar   71  HIS71      -0.2212
     46  N         -7.1060  -11.4770  -17.1910 N.am   72  ASN72      -0.1960
     47  CA        -6.8290  -11.9510  -18.5530 C.3    72  ASN72       0.1819
     48  C         -8.0920  -12.4670  -19.2630 C.2    72  ASN72       0.2621
     49  O         -8.1060  -13.5460  -19.8650 O.2    72  ASN72      -0.2715
     50  CB        -5.6700  -12.9720  -18.5530 C.3    72  ASN72       0.1195
     51  CG        -4.3200  -12.3240  -18.2540 C.2    72  ASN72       0.2630
     52  OD1       -4.1470  -11.1190  -18.4390 O.2    72  ASN72      -0.2716
     53  ND2       -3.3470  -13.1300  -17.8010 N.am   72  ASN72      -0.0877
     54  N         -9.1480  -11.6560  -19.1910 N.am   73  TYR73      -0.1974
     55  CA       -10.4070  -11.8900  -19.9120 C.3    73  TYR73       0.1639
     56  C        -11.2190  -13.0730  -19.4060 C.2    73  TYR73       0.2290
     57  O        -12.1650  -13.4990  -20.0740 O.2    73  TYR73      -0.2864
     58  CB       -10.1650  -11.9880  -21.4380 C.3    73  TYR73       0.0560
     59  CG        -9.2450  -10.8800  -21.8890 C.ar   73  TYR73      -0.0198
     60  CD1       -7.9000  -11.1180  -22.1290 C.ar   73  TYR73      -0.0009
     61  CD2       -9.7190   -9.5790  -22.0120 C.ar   73  TYR73      -0.0009
     62  CE1       -7.0460  -10.0830  -22.5130 C.ar   73  TYR73       0.0417
     63  CE2       -8.8720   -8.5400  -22.3980 C.ar   73  TYR73       0.0417
     64  CZ        -7.5400   -8.8100  -22.6350 C.ar   73  TYR73       0.1957
     65  OH        -6.7090   -7.7850  -23.0010 O.3    73  TYR73      -0.2866
     66  N         -2.9100   -8.5100   -5.6370 N.3    97  TYR97      -0.1227
     67  CA        -2.0480   -7.9010   -6.6490 C.3    97  TYR97       0.1736
     68  C         -0.6640   -7.6170   -6.0940 C.2    97  TYR97       0.2595
     69  O         -0.4230   -7.8490   -4.9180 O.2    97  TYR97      -0.2718
     70  CB        -2.6690   -6.5980   -7.1480 C.3    97  TYR97       0.0548
     71  CG        -4.0580   -6.8160   -7.7440 C.ar   97  TYR97      -0.0200
     72  CD1       -5.2150   -6.6960   -6.9670 C.ar   97  TYR97      -0.0009
     73  CD2       -4.2040   -7.1980   -9.0720 C.ar   97  TYR97      -0.0009
     74  CE1       -6.4750   -6.9080   -7.5180 C.ar   97  TYR97       0.0417
     75  CE2       -5.4680   -7.4070   -9.6380 C.ar   97  TYR97       0.0417
     76  CZ        -6.5970   -7.2590   -8.8600 C.ar   97  TYR97       0.1957
     77  OH        -7.8500   -7.4750   -9.4080 O.3    97  TYR97      -0.2866
     78  N          0.2180   -7.1150   -6.9530 N.am   98  ASN98      -0.1974
     79  CA         1.5930   -6.7610   -6.5660 C.3    98  ASN98       0.1688
     80  C          2.3050   -7.8700   -5.8070 C.2    98  ASN98       0.2292
     81  O          2.9730   -7.6180   -4.7870 O.2    98  ASN98      -0.2864
     82  CB         1.6070   -5.4480   -5.7820 C.3    98  ASN98       0.1181
     83  CG         1.0940   -4.2730   -6.6140 C.2    98  ASN98       0.2629
     84  OD1        1.7850   -3.7890   -7.5090 O.2    98  ASN98      -0.2716
     85  ND2       -0.1300   -3.8220   -6.3310 N.am   98  ASN98      -0.0877
     86  N         -6.5590  -15.3160   -7.6060 N.3   106  ARG106     -0.1231
     87  CA        -6.9710  -14.5960   -8.8120 C.3   106  ARG106      0.1694
     88  C         -6.4970  -15.3210  -10.0670 C.2   106  ARG106      0.2591
     89  O         -7.2280  -15.4280  -11.0570 O.2   106  ARG106     -0.2718
     90  CB        -6.4590  -13.1520   -8.7800 C.3   106  ARG106      0.0321
     91  CG        -6.5180  -12.4310  -10.1410 C.3   106  ARG106      0.0489
     92  CD        -6.0650  -10.9690  -10.0190 C.3   106  ARG106      0.2205
     93  NE        -4.7030  -10.8540   -9.4750 N.pl3 106  ARG106     -0.0865
     94  CZ        -3.5730  -11.0800  -10.1600 C.cat 106  ARG106      0.5346
     95  NH1       -3.6100  -11.4590  -11.4310 N.pl3 106  ARG106      0.1354
     96  NH2       -2.3940  -10.9720   -9.5660 N.pl3 106  ARG106      0.1354
     97  N         -5.2690  -15.8350  -10.0120 N.am  107  GLU107     -0.1979
     98  CA        -4.6580  -16.4230  -11.1920 C.3   107  GLU107      0.1602
     99  C         -5.3650  -17.7120  -11.6070 C.2   107  GLU107      0.2287
    100  O         -5.3260  -18.0970  -12.7810 O.2   107  GLU107     -0.2864
    101  CB        -3.1530  -16.6110  -10.9620 C.3   107  GLU107      0.0415
    102  CG        -2.3900  -15.2870  -10.9760 C.3   107  GLU107      0.1163
    103  CD        -0.9910  -15.3720  -10.4130 C.2   107  GLU107      0.3649
    104  OE1       -0.6360  -16.3970   -9.7820 O.co2 107  GLU107     -0.2457
    105  OE2       -0.2410  -14.3900  -10.5940 O.co2 107  GLU107     -0.2457
@<TRIPOS>BOND
     1    65    64    1
     2    64    62   ar
     3    64    63   ar
     4    62    60   ar
     5    63    61   ar
     6    60    59   ar
     7    61    59   ar
     8    59    58    1
     9    58    55    1
    10    57    56    2
    11    55    56    1
    12    55    54    1
    13    49    48    2
    14    48    54   am
    15    48    47    1
    16    30    31    1
    17    30    27    1
    18    25    23   am
    19    26    27    1
    20    47    50    1
    21    47    46    1
    22    50    51    1
    23    52    51    2
    24    51    53   am
    25    27    28    1
    26    29    28    2
    27    23    24    2
    28    23    22    1
    29    46    38   am
    30    28    32   am
    31    39    38    2
    32    22    19    1
    33    38    37    1
    34    32    33    1
    35    16    15    2
    36    14    17    1
    37    14    15    1
    38    14    13    1
    39    15    18   am
    40    18    19    1
    41    19    20    1
    42    37    36    1
    43    37    40    1
    44    33    34    1
    45    13     3   am
    46    44    45   ar
    47    44    42   ar
    48    45    43   ar
    49    42    41   ar
    50    43    41   ar
    51    41    40    1
    52    21    20    2
    53    34    35    2
    54     3     4    2
    55     3     2    1
    56   100    99    2
    57     5     2    1
    58     5     6    1
    59     2     1    1
    60     6     7   ar
    61     6     8   ar
    62    99    98    1
    63     7     9   ar
    64    95    94    1
    65     8    10   ar
    66    98   101    1
    67    98    97    1
    68    89    88    2
    69     9    11   ar
    70   102   101    1
    71   102   103    1
    72    10    11   ar
    73    11    12    1
    74   105   103   ar
    75   103   104   ar
    76    94    96    1
    77    94    93    2
    78    91    92    1
    79    91    90    1
    80    88    97   am
    81    88    87    1
    82    92    93    1
    83    75    73   ar
    84    75    76   ar
    85    77    76    1
    86    73    71   ar
    87    76    74   ar
    88    87    90    1
    89    87    86    1
    90    71    70    1
    91    71    72   ar
    92    74    72   ar
    93    84    83    2
    94    70    67    1
    95    78    79    1
    96    78    68   am
    97    67    68    1
    98    67    66    1
    99    83    85   am
   100    83    82    1
   101    79    80    1
   102    79    82    1
   103    68    69    2
   104    80    81    2
