@<TRIPOS>MOLECULE
tmp/3qdxA00.pdb
 105 103 0 0 0
SMALL
GASTEIGER

@<TRIPOS>ATOM
      1  N        -13.0080  -15.2910   -5.0730 N.3    78  ASP78      -0.1225
      2  CA       -12.4130  -15.8360   -3.8640 C.3    78  ASP78       0.1805
      3  C        -13.2870  -15.4410   -2.6860 C.2    78  ASP78       0.2598
      4  O        -14.0880  -14.5000   -2.7750 O.2    78  ASP78      -0.2718
      5  CB       -10.9960  -15.2740   -3.6680 C.3    78  ASP78       0.1424
      6  CG       -10.2520  -15.9430   -2.5230 C.2    78  ASP78       0.3668
      7  OD1       -9.3940  -15.2650   -1.9040 O.co2  78  ASP78      -0.2456
      8  OD2      -10.5180  -17.1390   -2.2410 O.co2  78  ASP78      -0.2456
      9  N        -13.1580  -16.1900   -1.5960 N.am   79  VAL79      -0.1966
     10  CA       -13.8400  -15.8710   -0.3830 C.3    79  VAL79       0.1727
     11  C        -12.8530  -16.0570    0.7470 C.2    79  VAL79       0.2616
     12  O        -12.1700  -17.0840    0.7980 O.2    79  VAL79      -0.2715
     13  CB       -15.0130  -16.8430   -0.1300 C.3    79  VAL79       0.0290
     14  CG1      -15.7330  -16.5050    1.1880 C.3    79  VAL79       0.0023
     15  CG2      -16.0230  -16.7990   -1.2900 C.3    79  VAL79       0.0023
     16  N        -12.7790  -15.0680    1.6340 N.am   80  VAL80      -0.1963
     17  CA       -11.9030  -15.1610    2.8110 C.3    80  VAL80       0.1727
     18  C        -12.7470  -15.0960    4.0670 C.2    80  VAL80       0.2616
     19  O        -13.5640  -14.1800    4.2210 O.2    80  VAL80      -0.2715
     20  CB       -10.8430  -14.0350    2.8450 C.3    80  VAL80       0.0290
     21  CG1       -9.8800  -14.2530    4.0250 C.3    80  VAL80       0.0023
     22  CG2      -10.0710  -13.9780    1.5220 C.3    80  VAL80       0.0023
     23  N        -12.5800  -16.0800    4.9620 N.am   81  THR81      -0.1951
     24  CA       -13.3920  -16.1260    6.1850 C.3    81  THR81       0.1897
     25  C        -12.5390  -15.9350    7.4270 C.2    81  THR81       0.2313
     26  O        -11.3000  -15.8570    7.3470 O.2    81  THR81      -0.2863
     27  CB       -14.1910  -17.4650    6.3340 C.3    81  THR81       0.1794
     28  OG1      -13.2930  -18.5460    6.6080 O.3    81  THR81      -0.2208
     29  CG2      -14.9960  -17.7910    5.0790 C.3    81  THR81       0.0378
     30  N         -0.2540  -12.0610   -1.1410 N.3   101  PRO101     -0.2102
     31  CA        -0.4440  -13.4540   -0.6960 C.3   101  PRO101      0.1504
     32  C         -1.6940  -14.1350   -1.2450 C.2   101  PRO101      0.2575
     33  O         -1.8280  -15.3690   -1.1170 O.2   101  PRO101     -0.2718
     34  CB        -0.5470  -13.3160    0.8260 C.3   101  PRO101      0.0282
     35  CG        -1.0640  -11.9130    1.0260 C.3   101  PRO101      0.0208
     36  CD        -0.3460  -11.1130   -0.0200 C.3   101  PRO101      0.0893
     37  N         -2.6060  -13.3620   -1.8440 N.am  102  ARG102     -0.1980
     38  CA        -3.8010  -13.9570   -2.4280 C.3   102  ARG102      0.1597
     39  C         -3.7880  -13.9400   -3.9600 C.2   102  ARG102      0.2287
     40  O         -4.7480  -14.3820   -4.5620 O.2   102  ARG102     -0.2864
     41  CB        -5.0920  -13.2640   -1.9230 C.3   102  ARG102      0.0334
     42  CG        -5.1630  -13.1410   -0.4000 C.3   102  ARG102      0.0492
     43  CD        -6.4380  -12.4320    0.1020 C.3   102  ARG102      0.2205
     44  NE        -6.2380  -12.0980    1.5070 N.pl3 102  ARG102     -0.0865
     45  CZ        -6.3410  -12.9670    2.5140 C.cat 102  ARG102      0.5346
     46  NH1       -6.6800  -14.2390    2.2990 N.pl3 102  ARG102      0.1354
     47  NH2       -6.0780  -12.5650    3.7530 N.pl3 102  ARG102      0.1354
     48  N         -2.4190  -15.8160   -6.0570 N.3   104  TYR104     -0.1227
     49  CA        -2.5650  -17.1530   -6.6310 C.3   104  TYR104      0.1736
     50  C         -4.0430  -17.4990   -6.9010 C.2   104  TYR104      0.2596
     51  O         -4.3420  -18.1570   -7.8870 O.2   104  TYR104     -0.2718
     52  CB        -1.9130  -18.2150   -5.7420 C.3   104  TYR104      0.0548
     53  CG        -2.7240  -18.5610   -4.5140 C.ar  104  TYR104     -0.0200
     54  CD1       -2.6070  -17.8110   -3.3470 C.ar  104  TYR104     -0.0009
     55  CD2       -3.6190  -19.6270   -4.5250 C.ar  104  TYR104     -0.0009
     56  CE1       -3.3530  -18.1170   -2.2200 C.ar  104  TYR104      0.0417
     57  CE2       -4.3690  -19.9480   -3.4000 C.ar  104  TYR104      0.0417
     58  CZ        -4.2280  -19.1940   -2.2440 C.ar  104  TYR104      0.1957
     59  OH        -4.9860  -19.5010   -1.1120 O.3   104  TYR104     -0.2866
     60  N         -4.9640  -17.0470   -6.0360 N.am  105  THR105     -0.1953
     61  CA        -6.3980  -17.3190   -6.2060 C.3   105  THR105      0.1897
     62  C         -6.9640  -16.5710   -7.4200 C.2   105  THR105      0.2313
     63  O         -7.7280  -17.1320   -8.2040 O.2   105  THR105     -0.2863
     64  CB        -7.2510  -16.9580   -4.9420 C.3   105  THR105      0.1794
     65  OG1       -6.8760  -17.7930   -3.8380 O.3   105  THR105     -0.2208
     66  CG2       -8.6990  -17.1510   -5.2000 C.3   105  THR105      0.0378
     67  N        -16.2030  -21.2950   -6.3590 N.3   113  TYR113     -0.1241
     68  CA       -15.3460  -21.5660   -5.1860 C.3   113  TYR113      0.1605
     69  C        -16.2140  -21.7920   -3.9640 C.2   113  TYR113      0.2264
     70  O        -17.2570  -21.1390   -3.8240 O.2   113  TYR113     -0.2867
     71  CB       -14.3560  -20.4130   -4.9460 C.3   113  TYR113      0.0534
     72  CG       -13.4600  -20.6030   -3.7380 C.ar  113  TYR113     -0.0201
     73  CD1      -12.5480  -21.6500   -3.6940 C.ar  113  TYR113     -0.0009
     74  CD2      -13.5290  -19.7450   -2.6480 C.ar  113  TYR113     -0.0009
     75  CE1      -11.7230  -21.8260   -2.6180 C.ar  113  TYR113      0.0417
     76  CE2      -12.7130  -19.9240   -1.5330 C.ar  113  TYR113      0.0417
     77  CZ       -11.8100  -20.9800   -1.5350 C.ar  113  TYR113      0.1957
     78  OH       -10.9990  -21.2100   -0.4570 O.3   113  TYR113     -0.2866
     79  N        -16.0950  -22.5620    0.4290 N.3   115  VAL115     -0.1231
     80  CA       -15.2710  -22.5840    1.6500 C.3   115  VAL115      0.1692
     81  C        -16.1780  -22.6260    2.8700 C.2   115  VAL115      0.2593
     82  O        -17.2670  -22.0570    2.8340 O.2   115  VAL115     -0.2718
     83  CB       -14.3170  -21.3600    1.7390 C.3   115  VAL115      0.0266
     84  CG1      -15.0920  -20.0550    1.6020 C.3   115  VAL115      0.0020
     85  CG2      -13.5570  -21.3620    3.0700 C.3   115  VAL115      0.0020
     86  N        -15.7530  -23.3150    3.9340 N.am  116  THR116     -0.1939
     87  CA       -16.5260  -23.3170    5.2010 C.3   116  THR116      0.2028
     88  C        -15.6670  -22.6440    6.2350 C.2   116  THR116      0.2643
     89  O        -14.4850  -22.9620    6.3520 O.2   116  THR116     -0.2714
     90  CB       -16.9210  -24.7530    5.6560 C.3   116  THR116      0.1808
     91  OG1      -17.8270  -25.3260    4.7020 O.3   116  THR116     -0.2208
     92  CG2      -17.5950  -24.7320    7.0380 C.3   116  THR116      0.0379
     93  N        -16.2350  -21.6800    6.9560 N.am  117  SER117     -0.1935
     94  CA       -15.4820  -20.9370    7.9760 C.3   117  SER117      0.2055
     95  C        -15.3170  -21.7960    9.2260 C.2   117  SER117      0.2642
     96  O        -16.0150  -22.8000    9.3820 O.2   117  SER117     -0.2714
     97  CB       -16.2110  -19.6280    8.3240 C.3   117  SER117      0.2130
     98  OG       -17.3860  -19.8990    9.0770 O.3   117  SER117     -0.2179
     99  N        -14.4120  -21.3830   10.1160 N.am  118  VAL118     -0.1977
    100  CA       -14.1440  -22.1300   11.3520 C.3   118  VAL118      0.1596
    101  C        -15.3760  -22.2550   12.2330 C.2   118  VAL118      0.2287
    102  O        -15.4880  -23.1990   13.0230 O.2   118  VAL118     -0.2864
    103  CB       -12.9710  -21.5220   12.1900 C.3   118  VAL118      0.0276
    104  CG1      -11.6310  -21.6700   11.4580 C.3   118  VAL118      0.0022
    105  CG2      -13.2440  -20.0630   12.5750 C.3   118  VAL118      0.0022
@<TRIPOS>BOND
     1    63    62    2
     2    51    50    2
     3    62    61    1
     4    50    49    1
     5    50    60   am
     6    49    48    1
     7    49    52    1
     8    67    68    1
     9    61    60    1
    10    61    64    1
    11    52    53    1
    12    66    64    1
    13    68    71    1
    14    68    69    1
    15     1     2    1
    16    71    72    1
    17    64    65    1
    18    40    39    2
    19    55    53   ar
    20    55    57   ar
    21    53    54   ar
    22    69    70    2
    23    39    38    1
    24     2     5    1
    25     2     3    1
    26    72    73   ar
    27    72    74   ar
    28    73    75   ar
    29     5     6    1
    30    57    58   ar
    31    54    56   ar
    32     4     3    2
    33     3     9   am
    34    74    76   ar
    35    75    77   ar
    36     6     8   ar
    37     6     7   ar
    38    38    41    1
    39    38    37    1
    40    58    56   ar
    41    58    59    1
    42    41    42    1
    43    37    32   am
    44     9    10    1
    45    77    76   ar
    46    77    78    1
    47    15    13    1
    48    32    33    2
    49    32    31    1
    50    30    31    1
    51    30    36    1
    52    31    34    1
    53    42    43    1
    54    10    13    1
    55    10    11    1
    56    13    14    1
    57    36    35    1
    58    43    44    1
    59    79    80    1
    60    11    12    2
    61    11    16   am
    62    34    35    1
    63    44    45    2
    64    22    20    1
    65    84    83    1
    66    16    17    1
    67    80    83    1
    68    80    81    1
    69    83    85    1
    70    46    45    1
    71    45    47    1
    72    17    20    1
    73    17    18    1
    74    82    81    2
    75    20    21    1
    76    81    86   am
    77    86    87    1
    78    18    19    2
    79    18    23   am
    80    91    90    1
    81    23    24    1
    82    29    27    1
    83    87    90    1
    84    87    88    1
    85    90    92    1
    86    24    27    1
    87    24    25    1
    88    88    89    2
    89    88    93   am
    90    27    28    1
    91    93    94    1
    92    26    25    2
    93    94    97    1
    94    94    95    1
    95    97    98    1
    96    95    96    2
    97    95    99   am
    98    99   100    1
    99   100   103    1
   100   100   101    1
   101   104   103    1
   102   103   105    1
   103   101   102    2
