@<TRIPOS>MOLECULE
tmp/3qdzD00.pdb
 210 210 0 0 0
SMALL
GASTEIGER

@<TRIPOS>ATOM
      1  N        -15.0520  -13.9530   24.5760 N.3    27  LEU27      -0.1231
      2  CA       -14.3450  -13.0550   25.4800 C.3    27  LEU27       0.1693
      3  C        -14.5110  -13.2230   26.9860 C.2    27  LEU27       0.2592
      4  O        -13.5220  -13.2600   27.7220 O.2    27  LEU27      -0.2718
      5  CB       -14.6910  -11.6140   25.1150 C.3    27  LEU27       0.0284
      6  CG       -13.6200  -10.8250   24.3700 C.3    27  LEU27       0.0019
      7  CD1      -14.2750   -9.6920   23.6020 C.3    27  LEU27       0.0001
      8  CD2      -12.5790  -10.3040   25.3570 C.3    27  LEU27       0.0001
      9  N        -15.7550  -13.3010   27.4460 N.am   28  CYS28      -0.1970
     10  CA       -16.0360  -13.4150   28.8720 C.3    28  CYS28       0.1712
     11  C        -17.4190  -13.9470   29.1480 C.2    28  CYS28       0.2296
     12  O        -18.1460  -14.3250   28.2370 O.2    28  CYS28      -0.2864
     13  CB       -15.9530  -12.0510   29.5270 C.3    28  CYS28       0.0983
     14  SG       -14.2960  -11.4960   29.9660 S.3    28  CYS28      -0.0798
     15  N        -12.2770   -5.5650   33.0860 N.3    43  HIS43      -0.1241
     16  CA       -11.1770   -6.0830   32.2690 C.3    43  HIS43       0.1621
     17  C        -11.6620   -6.8490   31.0490 C.2    43  HIS43       0.2264
     18  O        -10.9140   -7.0530   30.1010 O.2    43  HIS43      -0.2867
     19  CB       -10.2430   -6.9710   33.1150 C.3    43  HIS43       0.0745
     20  CG       -10.7800   -8.3430   33.4240 C.ar   43  HIS43       0.0817
     21  ND1      -10.2310   -9.1470   34.4030 N.ar   43  HIS43      -0.2268
     22  CD2      -11.7870   -9.0670   32.8760 C.ar   43  HIS43       0.1154
     23  CE1      -10.8740  -10.2990   34.4440 C.ar   43  HIS43       0.1986
     24  NE2      -11.8240  -10.2770   33.5270 N.ar   43  HIS43      -0.2212
     25  N         -8.6230   -3.1880   29.2140 N.3    47  TYR47      -0.1241
     26  CA        -7.4110   -3.7180   29.8190 C.3    47  TYR47       0.1605
     27  C         -6.2270   -3.3720   28.9140 C.2    47  TYR47       0.2264
     28  O         -5.7550   -4.1980   28.1300 O.2    47  TYR47      -0.2867
     29  CB        -7.4930   -5.2320   30.0430 C.3    47  TYR47       0.0534
     30  CG        -6.5170   -5.6770   31.1130 C.ar   47  TYR47      -0.0201
     31  CD1       -6.5780   -5.1380   32.4000 C.ar   47  TYR47      -0.0009
     32  CD2       -5.4960   -6.5740   30.8310 C.ar   47  TYR47      -0.0009
     33  CE1       -5.6430   -5.4760   33.3700 C.ar   47  TYR47       0.0417
     34  CE2       -4.5550   -6.9180   31.7980 C.ar   47  TYR47       0.0417
     35  CZ        -4.6340   -6.3640   33.0600 C.ar   47  TYR47       0.1957
     36  OH        -3.6910   -6.6890   34.0050 O.3    47  TYR47      -0.2866
     37  N         -2.9560   -5.6260   28.0230 N.3    50  TRP50      -0.1241
     38  CA        -3.0900   -6.5940   26.9520 C.3    50  TRP50       0.1605
     39  C         -3.6140   -5.8440   25.7380 C.2    50  TRP50       0.2264
     40  O         -4.1050   -6.4450   24.7790 O.2    50  TRP50      -0.2867
     41  CB        -4.0480   -7.7250   27.3450 C.3    50  TRP50       0.0550
     42  CG        -3.4730   -8.6430   28.3770 C.ar   50  TRP50       0.0003
     43  CD1       -2.1540   -8.7810   28.7090 C.ar   50  TRP50       0.0946
     44  CD2       -4.1910   -9.5660   29.1970 C.ar   50  TRP50       0.0152
     45  NE1       -2.0050   -9.7320   29.6840 N.ar   50  TRP50      -0.2442
     46  CE2       -3.2400  -10.2340   30.0030 C.ar   50  TRP50       0.0810
     47  CE3       -5.5470   -9.8990   29.3300 C.ar   50  TRP50       0.0012
     48  CZ2       -3.6030  -11.2160   30.9380 C.ar   50  TRP50       0.0191
     49  CZ3       -5.9110  -10.8760   30.2610 C.ar   50  TRP50       0.0001
     50  CH2       -4.9380  -11.5230   31.0510 C.ar   50  TRP50       0.0015
     51  N         -3.2520   -1.3930   39.1510 N.3    94  GLU94      -0.1231
     52  CA        -2.6560   -2.1340   40.2550 C.3    94  GLU94       0.1699
     53  C         -3.4130   -3.3830   40.7200 C.2    94  GLU94       0.2592
     54  O         -2.7880   -4.3250   41.2170 O.2    94  GLU94      -0.2718
     55  CB        -2.4520   -1.1980   41.4530 C.3    94  GLU94       0.0402
     56  CG        -1.8620   -1.8790   42.6860 C.3    94  GLU94       0.1161
     57  CD        -2.1590   -1.1170   43.9660 C.2    94  GLU94       0.3649
     58  OE1       -3.3540   -0.8660   44.2400 O.co2  94  GLU94      -0.2457
     59  OE2       -1.2030   -0.7750   44.6980 O.co2  94  GLU94      -0.2457
     60  N         -4.7380   -3.4100   40.5680 N.am   95  ASN95      -0.1960
     61  CA        -5.4840   -4.5750   41.0360 C.3    95  ASN95       0.1819
     62  C         -6.9560   -4.6440   40.6700 C.2    95  ASN95       0.2621
     63  O         -7.7970   -4.8230   41.5490 O.2    95  ASN95      -0.2715
     64  CB        -5.3780   -4.6560   42.5500 C.3    95  ASN95       0.1195
     65  CG        -5.8820   -3.4010   43.2190 C.2    95  ASN95       0.2630
     66  OD1       -6.9850   -2.9310   42.9330 O.2    95  ASN95      -0.2716
     67  ND2       -5.0780   -2.8460   44.1120 N.am   95  ASN95      -0.0877
     68  N         -7.2690   -4.5230   39.3870 N.am   96  LEU96      -0.1977
     69  CA        -8.6580   -4.5930   38.9260 C.3    96  LEU96       0.1596
     70  C         -9.6590   -4.2050   40.0130 C.2    96  LEU96       0.2287
     71  O        -10.6810   -4.8620   40.2090 O.2    96  LEU96      -0.2864
     72  CB        -8.9670   -6.0010   38.4100 C.3    96  LEU96       0.0297
     73  CG        -8.0560   -6.4760   37.2720 C.3    96  LEU96       0.0022
     74  CD1       -6.6610   -6.8070   37.8080 C.3    96  LEU96       0.0001
     75  CD2       -8.6670   -7.6950   36.6160 C.3    96  LEU96       0.0001
     76  N         -1.4530   -9.0810   46.7780 N.3   179  ILE179     -0.1245
     77  CA        -2.1510   -7.9670   46.1480 C.3   179  ILE179      0.1561
     78  C         -3.0630   -7.1740   47.0860 C.2   179  ILE179      0.2260
     79  O         -3.8460   -7.7570   47.8380 O.2   179  ILE179     -0.2867
     80  CB        -2.9880   -8.4950   44.9540 C.3   179  ILE179      0.0252
     81  CG1       -2.0470   -8.9490   43.8320 C.3   179  ILE179      0.0019
     82  CG2       -3.9740   -7.4370   44.4760 C.3   179  ILE179      0.0019
     83  CD1       -2.7600   -9.3950   42.5610 C.3   179  ILE179      0.0001
     84  N        -12.7280  -23.9020   41.3980 N.3   199  ASP199     -0.1225
     85  CA       -12.4390  -22.4910   41.2990 C.3   199  ASP199      0.1805
     86  C        -12.7540  -22.1240   39.8860 C.2   199  ASP199      0.2598
     87  O        -13.0180  -23.0120   39.0830 O.2   199  ASP199     -0.2718
     88  CB       -10.9730  -22.2160   41.6040 C.3   199  ASP199      0.1424
     89  CG       -10.6410  -20.7440   41.5810 C.2   199  ASP199      0.3668
     90  OD1      -11.4120  -19.9330   42.1530 O.co2 199  ASP199     -0.2456
     91  OD2       -9.5940  -20.4020   40.9950 O.co2 199  ASP199     -0.2456
     92  N        -12.7410  -20.8250   39.5960 N.am  200  ALA200     -0.1966
     93  CA       -13.0340  -20.3110   38.2620 C.3   200  ALA200      0.1728
     94  C        -11.7540  -20.3000   37.4260 C.2   200  ALA200      0.2616
     95  O        -10.6760  -20.6210   37.9400 O.2   200  ALA200     -0.2715
     96  CB       -13.6010  -18.9210   38.3690 C.3   200  ALA200      0.0334
     97  N        -11.8650  -19.9340   36.1460 N.am  201  CYS201     -0.1954
     98  CA       -10.7010  -19.9100   35.2590 C.3   201  CYS201      0.1843
     99  C        -10.9070  -19.0170   34.0380 C.2   201  CYS201      0.2625
    100  O        -12.0340  -18.6670   33.6960 O.2   201  CYS201     -0.2714
    101  CB       -10.3860  -21.3350   34.8020 C.3   201  CYS201      0.0997
    102  SG        -8.6240  -21.6670   34.4950 S.3   201  CYS201     -0.0797
    103  N         -9.8090  -18.6640   33.3760 N.am  202  GLU202     -0.1963
    104  CA        -9.8510  -17.8070   32.1910 C.3   202  GLU202      0.1733
    105  C        -11.0100  -18.1520   31.2740 C.2   202  GLU202      0.2616
    106  O        -11.0240  -19.2130   30.6610 O.2   202  GLU202     -0.2715
    107  CB        -8.5160  -17.8950   31.4300 C.3   202  GLU202      0.0429
    108  CG        -7.3600  -17.0400   32.0360 C.3   202  GLU202      0.1163
    109  CD        -7.2610  -17.0630   33.6000 C.2   202  GLU202      0.3649
    110  OE1       -7.3670  -18.1510   34.2190 O.co2 202  GLU202     -0.2457
    111  OE2       -7.0530  -15.9790   34.2140 O.co2 202  GLU202     -0.2457
    112  N        -11.9830  -17.2460   31.2030 N.am  203  GLY203     -0.1955
    113  CA       -13.1490  -17.4590   30.3660 C.3   203  GLY203      0.1869
    114  C        -14.4210  -17.4090   31.1860 C.2   203  GLY203      0.2309
    115  O        -15.5390  -17.4370   30.6510 O.2   203  GLY203     -0.2863
    116  N        -14.5820  -15.1100   34.1780 N.3   205  SER205     -0.1217
    117  CA       -14.6410  -13.6970   34.5430 C.3   205  SER205      0.1889
    118  C        -15.7310  -12.8800   33.8520 C.2   205  SER205      0.2288
    119  O        -16.0530  -13.1000   32.6860 O.2   205  SER205     -0.2866
    120  CB       -13.3040  -13.0800   34.2400 C.3   205  SER205      0.2089
    121  OG       -12.8850  -13.6030   33.0070 O.3   205  SER205     -0.2183
    122  N        -16.9750  -12.7060   38.6940 N.3   225  VAL225     -0.1231
    123  CA       -15.5970  -13.1920   38.6390 C.3   225  VAL225      0.1692
    124  C        -14.5570  -12.1210   38.2640 C.2   225  VAL225      0.2593
    125  O        -14.2230  -11.9700   37.0940 O.2   225  VAL225     -0.2718
    126  CB       -15.4960  -14.3400   37.6290 C.3   225  VAL225      0.0266
    127  CG1      -14.1380  -15.0140   37.7330 C.3   225  VAL225      0.0020
    128  CG2      -16.6220  -15.3190   37.8620 C.3   225  VAL225      0.0020
    129  N        -14.0290  -11.3930   39.2460 N.am  226  SER226     -0.1938
    130  CA       -13.0400  -10.3440   38.9720 C.3   226  SER226      0.2055
    131  C        -11.6800  -10.8810   38.5060 C.2   226  SER226      0.2643
    132  O        -11.3260  -10.7190   37.3380 O.2   226  SER226     -0.2714
    133  CB       -12.8460   -9.4620   40.2100 C.3   226  SER226      0.2130
    134  OG       -11.8830   -8.4460   39.9800 O.3   226  SER226     -0.2179
    135  N        -10.9260  -11.5100   39.4170 N.am  227  TRP227     -0.1959
    136  CA        -9.5980  -12.0810   39.1220 C.3   227  TRP227      0.1771
    137  C         -9.2330  -13.2740   40.0040 C.2   227  TRP227      0.2620
    138  O        -10.0690  -13.8010   40.7400 O.2   227  TRP227     -0.2715
    139  CB        -8.5070  -11.0360   39.3100 C.3   227  TRP227      0.0590
    140  CG        -8.4700  -10.4570   40.6970 C.ar  227  TRP227      0.0006
    141  CD1       -9.3950   -9.6220   41.2580 C.ar  227  TRP227      0.0946
    142  CD2       -7.4510  -10.6560   41.6940 C.ar  227  TRP227      0.0152
    143  NE1       -9.0160   -9.2890   42.5370 N.ar  227  TRP227     -0.2442
    144  CE2       -7.8280   -9.9070   42.8300 C.ar  227  TRP227      0.0810
    145  CE3       -6.2590  -11.3920   41.7360 C.ar  227  TRP227      0.0012
    146  CZ2       -7.0530   -9.8710   43.9990 C.ar  227  TRP227      0.0191
    147  CZ3       -5.4870  -11.3540   42.9070 C.ar  227  TRP227      0.0001
    148  CH2       -5.8910  -10.5980   44.0160 C.ar  227  TRP227      0.0015
    149  N         -7.9590  -13.6650   39.9320 N.am  228  GLY228     -0.1940
    150  CA        -7.4330  -14.7930   40.6940 C.3   228  GLY228      0.2014
    151  C         -6.0650  -15.1730   40.1470 C.2   228  GLY228      0.2639
    152  O         -5.8550  -15.1230   38.9450 O.2   228  GLY228     -0.2714
    153  N         -5.1290  -15.5610   41.0040 N.am  229  GLU229     -0.1963
    154  CA        -3.7800  -15.9080   40.5350 C.3   229  GLU229      0.1733
    155  C         -3.5410  -17.3770   40.2480 C.2   229  GLU229      0.2617
    156  O         -2.8240  -18.0560   40.9850 O.2   229  GLU229     -0.2715
    157  CB        -2.7460  -15.4590   41.5420 C.3   229  GLU229      0.0429
    158  CG        -2.6580  -13.9790   41.7080 C.3   229  GLU229      0.1163
    159  CD        -1.9590  -13.6520   42.9900 C.2   229  GLU229      0.3649
    160  OE1       -2.5760  -13.8510   44.0650 O.co2 229  GLU229     -0.2457
    161  OE2       -0.7880  -13.2250   42.9190 O.co2 229  GLU229     -0.2457
    162  N         -4.1080  -17.8320   39.1390 N.am  230  GLY230     -0.1940
    163  CA        -4.0010  -19.2130   38.7490 C.3   230  GLY230      0.2014
    164  C         -5.3530  -19.7820   39.0860 C.2   230  GLY230      0.2639
    165  O         -6.0450  -19.2640   39.9540 O.2   230  GLY230     -0.2714
    166  N         -5.7550  -20.8270   38.3880 N.am  231  CYS231     -0.1967
    167  CA        -7.0350  -21.4440   38.6680 C.3   231  CYS231      0.1712
    168  C         -6.7800  -22.5740   39.6460 C.2   231  CYS231      0.2296
    169  O         -5.7880  -23.2950   39.5300 O.2   231  CYS231     -0.2864
    170  CB        -7.6460  -21.9860   37.3810 C.3   231  CYS231      0.0983
    171  SG        -7.6890  -20.7440   36.0530 S.3   231  CYS231     -0.0798
    172  N         -7.1790  -18.1560   46.6040 N.3   237  TYR237     -0.1227
    173  CA        -8.6060  -18.1510   46.3330 C.3   237  TYR237      0.1736
    174  C         -8.9860  -17.2830   45.1470 C.2   237  TYR237      0.2596
    175  O         -8.2290  -16.4050   44.7410 O.2   237  TYR237     -0.2718
    176  CB        -9.3490  -17.6890   47.5750 C.3   237  TYR237      0.0548
    177  CG        -9.0560  -18.5480   48.7810 C.ar  237  TYR237     -0.0200
    178  CD1       -9.7090  -19.7640   48.9740 C.ar  237  TYR237     -0.0009
    179  CD2       -8.0810  -18.1700   49.7000 C.ar  237  TYR237     -0.0009
    180  CE1       -9.3900  -20.5830   50.0570 C.ar  237  TYR237      0.0417
    181  CE2       -7.7540  -18.9800   50.7800 C.ar  237  TYR237      0.0417
    182  CZ        -8.4040  -20.1840   50.9550 C.ar  237  TYR237      0.1957
    183  OH        -8.0400  -20.9920   52.0110 O.3   237  TYR237     -0.2866
    184  N        -10.1620  -17.5450   44.5880 N.am  238  GLY238     -0.1942
    185  CA       -10.6220  -16.7760   43.4530 C.3   238  GLY238      0.2014
    186  C        -11.3560  -15.5610   43.9730 C.2   238  GLY238      0.2639
    187  O        -12.0030  -15.6440   45.0180 O.2   238  GLY238     -0.2714
    188  N        -11.2500  -14.4350   43.2670 N.am  239  PHE239     -0.1959
    189  CA       -11.9300  -13.2160   43.6840 C.3   239  PHE239      0.1771
    190  C        -13.0960  -12.8440   42.8080 C.2   239  PHE239      0.2619
    191  O        -13.1800  -13.2540   41.6550 O.2   239  PHE239     -0.2715
    192  CB       -10.9650  -12.0470   43.7560 C.3   239  PHE239      0.0574
    193  CG       -10.0280  -12.1390   44.9000 C.ar  239  PHE239     -0.0200
    194  CD1       -8.9220  -12.9750   44.8370 C.ar  239  PHE239     -0.0042
    195  CD2      -10.2790  -11.4420   46.0700 C.ar  239  PHE239     -0.0042
    196  CE1       -8.0720  -13.1190   45.9280 C.ar  239  PHE239     -0.0003
    197  CE2       -9.4380  -11.5780   47.1680 C.ar  239  PHE239     -0.0003
    198  CZ        -8.3290  -12.4220   47.0960 C.ar  239  PHE239     -0.0000
    199  N        -14.0070  -12.0690   43.3830 N.am  240  TYR240     -0.1974
    200  CA       -15.2110  -11.6290   42.6980 C.3   240  TYR240      0.1639
    201  C        -15.5140  -10.2310   43.2090 C.2   240  TYR240      0.2290
    202  O        -15.0980   -9.8690   44.3100 O.2   240  TYR240     -0.2864
    203  CB       -16.3670  -12.5750   43.0410 C.3   240  TYR240      0.0560
    204  CG       -15.9540  -14.0210   43.0100 C.ar  240  TYR240     -0.0198
    205  CD1      -15.0480  -14.5170   43.9380 C.ar  240  TYR240     -0.0009
    206  CD2      -16.3770  -14.8630   41.9930 C.ar  240  TYR240     -0.0009
    207  CE1      -14.5590  -15.7970   43.8470 C.ar  240  TYR240      0.0417
    208  CE2      -15.8940  -16.1620   41.8940 C.ar  240  TYR240      0.0417
    209  CZ       -14.9780  -16.6200   42.8230 C.ar  240  TYR240      0.1957
    210  OH       -14.4440  -17.8880   42.7230 O.3   240  TYR240     -0.2866
@<TRIPOS>BOND
     1     7     6    1
     2     6     5    1
     3     6     8    1
     4     1     2    1
     5    40    39    2
     6     5     2    1
     7     2     3    1
     8    39    38    1
     9    38    41    1
    10    38    37    1
    11     3     9   am
    12     3     4    2
    13    41    42    1
    14     9    10    1
    15    28    27    2
    16    12    11    2
    17    42    43   ar
    18    42    44   ar
    19    43    45   ar
    20    10    11    1
    21    10    13    1
    22    27    26    1
    23    44    47   ar
    24    44    46   ar
    25    25    26    1
    26    47    49   ar
    27    13    14    1
    28    45    46   ar
    29    26    29    1
    30    46    48   ar
    31    29    30    1
    32    18    17    2
    33    49    50   ar
    34   113   114    1
    35   113   112    1
    36   115   114    2
    37   106   105    2
    38    32    30   ar
    39    32    34   ar
    40    48    50   ar
    41    17    16    1
    42    30    31   ar
    43   112   105   am
    44   105   104    1
    45   107   108    1
    46   107   104    1
    47    34    35   ar
    48   108   109    1
    49   104   103    1
    50    16    15    1
    51    16    19    1
    52    31    33   ar
    53   119   118    2
    54    22    20   ar
    55    22    24   ar
    56   121   120    1
    57    35    33   ar
    58    35    36    1
    59    19    20    1
    60   103    99   am
    61    20    21   ar
    62    24    23   ar
    63   109   111   ar
    64   109   110   ar
    65   100    99    2
    66   118   117    1
    67    99    98    1
    68   116   117    1
    69   120   117    1
    70    21    23   ar
    71   102   101    1
    72   102   171    1
    73   101    98    1
    74    98    97    1
    75   171   170    1
    76    97    94   am
    77    75    73    1
    78   125   124    2
    79    73    74    1
    80    73    72    1
    81   132   131    2
    82   170   167    1
    83    94    95    2
    84    94    93    1
    85   126   127    1
    86   126   128    1
    87   126   123    1
    88    93    96    1
    89    93    92    1
    90   124   123    1
    91   124   129   am
    92   166   167    1
    93   166   164   am
    94    72    69    1
    95   131   130    1
    96   131   135   am
    97   123   122    1
    98   167   168    1
    99   163   164    1
   100   163   162    1
   101    69    68    1
   102    69    70    1
   103   152   151    2
   104   130   129    1
   105   130   133    1
   106    87    86    2
   107   164   165    2
   108   136   139    1
   109   136   135    1
   110   136   137    1
   111   162   155   am
   112    51    52    1
   113   139   140    1
   114    68    62   am
   115   169   168    2
   116    92    86   am
   117    86    85    1
   118   149   137   am
   119   149   150    1
   120   134   133    1
   121   137   138    2
   122    70    71    2
   123   151   150    1
   124   151   153   am
   125   155   154    1
   126   155   156    2
   127    52    53    1
   128    52    55    1
   129   154   153    1
   130   154   157    1
   131    60    53   am
   132    60    61    1
   133    62    61    1
   134    62    63    2
   135   140   141   ar
   136   140   142   ar
   137    53    54    2
   138    91    89   ar
   139    61    64    1
   140   141   143   ar
   141    85    84    1
   142    85    88    1
   143    55    56    1
   144   157   158    1
   145    89    88    1
   146    89    90   ar
   147   191   190    2
   148   142   145   ar
   149   142   144   ar
   150   158   159    1
   151   145   147   ar
   152   208   206   ar
   153   208   209   ar
   154   206   204   ar
   155   143   144   ar
   156    64    65    1
   157    83    81    1
   158    56    57    1
   159   200   203    1
   160   200   201    1
   161   200   199    1
   162   210   209    1
   163   190   199   am
   164   190   189    1
   165   209   207   ar
   166   144   146   ar
   167   147   148   ar
   168   161   159   ar
   169    66    65    2
   170   159   160   ar
   171   204   203    1
   172   204   205   ar
   173   201   202    2
   174    65    67   am
   175   188   189    1
   176   188   186   am
   177   185   186    1
   178   185   184    1
   179   189   192    1
   180   192   193    1
   181    81    80    1
   182   207   205   ar
   183    57    58   ar
   184    57    59   ar
   185   186   187    2
   186   146   148   ar
   187    82    80    1
   188   184   174   am
   189   175   174    2
   190   194   193   ar
   191   194   196   ar
   192   193   195   ar
   193    80    77    1
   194   174   173    1
   195   196   198   ar
   196   195   197   ar
   197    77    76    1
   198    77    78    1
   199   173   172    1
   200   173   176    1
   201    78    79    2
   202   198   197   ar
   203   176   177    1
   204   177   178   ar
   205   177   179   ar
   206   178   180   ar
   207   179   181   ar
   208   180   182   ar
   209   181   182   ar
   210   182   183    1
