@<TRIPOS>MOLECULE
tmp/3qdzB00.pdb
 221 220 0 0 0
SMALL
GASTEIGER

@<TRIPOS>ATOM
      1  N         -3.5080  -31.0100  -10.3350 N.3    27  LEU27      -0.1231
      2  CA        -2.3210  -30.2670   -9.9120 C.3    27  LEU27       0.1693
      3  C         -1.8710  -30.4120   -8.4650 C.2    27  LEU27       0.2592
      4  O         -0.7110  -30.7100   -8.1730 O.2    27  LEU27      -0.2718
      5  CB        -2.5590  -28.7850  -10.1750 C.3    27  LEU27       0.0284
      6  CG        -3.1740  -28.4410  -11.5280 C.3    27  LEU27       0.0019
      7  CD1       -4.0660  -27.2200  -11.3900 C.3    27  LEU27       0.0001
      8  CD2       -2.0630  -28.2280  -12.5410 C.3    27  LEU27       0.0001
      9  N         -2.7940  -30.1700   -7.5520 N.am   28  CYS28      -0.1970
     10  CA        -2.4580  -30.2330   -6.1520 C.3    28  CYS28       0.1712
     11  C         -3.6450  -30.5670   -5.3060 C.2    28  CYS28       0.2296
     12  O         -4.7130  -30.8770   -5.8220 O.2    28  CYS28      -0.2864
     13  CB        -1.9300  -28.8950   -5.7030 C.3    28  CYS28       0.0983
     14  SG        -0.2210  -28.5170   -6.1550 S.3    28  CYS28      -0.0798
     15  N          3.1160  -22.7500   -3.5290 N.3    43  HIS43      -0.1241
     16  CA         3.8090  -23.1920   -4.7470 C.3    43  HIS43       0.1621
     17  C          2.9540  -23.8160   -5.8740 C.2    43  HIS43       0.2264
     18  O          3.3750  -23.8550   -7.0360 O.2    43  HIS43      -0.2867
     19  CB         4.9530  -24.1460   -4.3650 C.3    43  HIS43       0.0745
     20  CG         4.5150  -25.5410   -4.0220 C.ar   43  HIS43       0.0817
     21  ND1        5.1900  -26.3220   -3.1200 N.ar   43  HIS43      -0.2268
     22  CD2        3.5040  -26.3040   -4.5010 C.ar   43  HIS43       0.1154
     23  CE1        4.6160  -27.5120   -3.0500 C.ar   43  HIS43       0.1986
     24  NE2        3.5930  -27.5250   -3.8780 N.ar   43  HIS43      -0.2212
     25  N          4.8960  -21.1010   -8.9940 N.3    47  TYR47      -0.1241
     26  CA         6.2350  -21.6450   -8.9100 C.3    47  TYR47       0.1605
     27  C          7.0350  -21.3920  -10.1800 C.2    47  TYR47       0.2264
     28  O          7.1780  -22.2720  -11.0370 O.2    47  TYR47      -0.2867
     29  CB         6.2320  -23.1380   -8.5930 C.3    47  TYR47       0.0534
     30  CG         7.5970  -23.5950   -8.1240 C.ar   47  TYR47      -0.0201
     31  CD1        8.2470  -22.9320   -7.0790 C.ar   47  TYR47      -0.0009
     32  CD2        8.2540  -24.6570   -8.7340 C.ar   47  TYR47      -0.0009
     33  CE1        9.5210  -23.3120   -6.6580 C.ar   47  TYR47       0.0417
     34  CE2        9.5310  -25.0500   -8.3160 C.ar   47  TYR47       0.0417
     35  CZ        10.1580  -24.3720   -7.2800 C.ar   47  TYR47       0.1957
     36  OH        11.4180  -24.7450   -6.8700 O.3    47  TYR47      -0.2866
     37  N          9.1600  -24.0020  -12.4080 N.3    50  TRP50      -0.1241
     38  CA         8.5260  -24.9810  -13.2920 C.3    50  TRP50       0.1605
     39  C          7.5110  -24.1460  -14.0520 C.2    50  TRP50       0.2264
     40  O          6.4120  -24.6150  -14.3740 O.2    50  TRP50      -0.2867
     41  CB         7.7700  -26.0770  -12.5350 C.3    50  TRP50       0.0550
     42  CG         8.5600  -26.8590  -11.5560 C.ar   50  TRP50       0.0003
     43  CD1        9.9080  -27.0390  -11.5400 C.ar   50  TRP50       0.0946
     44  CD2        8.0380  -27.5910  -10.4420 C.ar   50  TRP50       0.0152
     45  NE1       10.2620  -27.8390  -10.4810 N.ar   50  TRP50      -0.2442
     46  CE2        9.1320  -28.1930   -9.7900 C.ar   50  TRP50       0.0810
     47  CE3        6.7470  -27.7960   -9.9310 C.ar   50  TRP50       0.0012
     48  CZ2        8.9760  -28.9930   -8.6440 C.ar   50  TRP50       0.0191
     49  CZ3        6.5910  -28.5930   -8.7920 C.ar   50  TRP50       0.0001
     50  CH2        7.7010  -29.1800   -8.1650 C.ar   50  TRP50       0.0015
     51  N         10.6920  -21.8920   -0.1000 N.3    96  LEU96      -0.1245
     52  CA         9.2530  -22.1230   -0.0930 C.3    96  LEU96       0.1561
     53  C          8.7270  -21.8460    1.3130 C.2    96  LEU96       0.2260
     54  O          8.0280  -22.6670    1.9210 O.2    96  LEU96      -0.2867
     55  CB         8.9460  -23.5720   -0.5090 C.3    96  LEU96       0.0270
     56  CG         8.3590  -23.8460   -1.9020 C.3    96  LEU96       0.0019
     57  CD1        9.0010  -22.9840   -2.9760 C.3    96  LEU96       0.0001
     58  CD2        8.5420  -25.3140   -2.2120 C.3    96  LEU96       0.0001
     59  N         18.1210  -27.3500    3.9480 N.3   173  ILE173     -0.1245
     60  CA        17.2990  -26.2070    3.6240 C.3   173  ILE173      0.1561
     61  C         17.0370  -25.5650    4.9690 C.2   173  ILE173      0.2260
     62  O         16.8670  -26.2600    5.9700 O.2   173  ILE173     -0.2867
     63  CB        15.9620  -26.6320    2.9390 C.3   173  ILE173      0.0252
     64  CG1       16.1050  -26.5820    1.4110 C.3   173  ILE173      0.0019
     65  CG2       14.8370  -25.7030    3.3420 C.3   173  ILE173      0.0019
     66  CD1       17.0890  -27.5740    0.8140 C.3   173  ILE173      0.0001
     67  N          4.3570  -41.2710    4.0220 N.3   193  ASP193     -0.1225
     68  CA         4.7590  -39.9160    3.6400 C.3   193  ASP193      0.1805
     69  C          3.9090  -39.3800    2.5080 C.2   193  ASP193      0.2598
     70  O          3.2630  -40.1390    1.8000 O.2   193  ASP193     -0.2718
     71  CB         6.2270  -39.8830    3.2170 C.3   193  ASP193      0.1424
     72  CG         6.7050  -38.4800    2.9020 C.2   193  ASP193      0.3668
     73  OD1        6.4500  -37.5710    3.7170 O.co2 193  ASP193     -0.2456
     74  OD2        7.3420  -38.2800    1.8500 O.co2 193  ASP193     -0.2456
     75  N          3.8780  -38.0700    2.3450 N.am  194  ALA194     -0.1966
     76  CA         3.1070  -37.5200    1.2520 C.3   194  ALA194      0.1728
     77  C          4.0920  -37.5940    0.1070 C.2   194  ALA194      0.2616
     78  O          5.2260  -38.0090    0.3170 O.2   194  ALA194     -0.2715
     79  CB         2.7290  -36.0850    1.5400 C.3   194  ALA194      0.0334
     80  N          3.6740  -37.2090   -1.0950 N.am  195  CYS195     -0.1954
     81  CA         4.5690  -37.2370   -2.2440 C.3   195  CYS195      0.1843
     82  C          4.0170  -36.3180   -3.3360 C.2   195  CYS195      0.2628
     83  O          2.9190  -35.7830   -3.1850 O.2   195  CYS195     -0.2714
     84  CB         4.7310  -38.6750   -2.7300 C.3   195  CYS195      0.0997
     85  SG         6.2800  -38.9320   -3.6410 S.3   195  CYS195     -0.0797
     86  N          4.7610  -36.1190   -4.4220 N.am  196  GLU196     -0.1917
     87  CA         4.3070  -35.2100   -5.4810 C.3   196  GLU196      0.1949
     88  C          2.8160  -35.3620   -5.7120 C.2   196  GLU196      0.2659
     89  O          2.3150  -36.4780   -5.8010 O.2   196  GLU196     -0.2711
     90  CB         5.0700  -35.4430   -6.7970 C.2   196  GLU196      0.0111
     91  CG         6.5680  -35.0010   -6.8350 C.2   196  GLU196      0.0838
     92  CD         7.1440  -34.3730   -5.5230 C.2   196  GLU196      0.3877
     93  OE1        6.9010  -34.9010   -4.4090 O.co2 196  GLU196     -0.2406
     94  OE2        7.8800  -33.3540   -5.6110 O.co2 196  GLU196     -0.2406
     95  N          2.1120  -34.2310   -5.7710 N.am  197  GLY197     -0.1952
     96  CA         0.6760  -34.2380   -5.9930 C.3   197  GLY197      0.1869
     97  C         -0.1160  -34.1470   -4.7060 C.2   197  GLY197      0.2309
     98  O         -1.3360  -33.9460   -4.7230 O.2   197  GLY197     -0.2863
     99  N          1.0980  -32.1230   -2.1310 N.3   199  SER199     -0.1217
    100  CA         1.2970  -30.7420   -1.7320 C.3   199  SER199      0.1889
    101  C         -0.0170  -29.9890   -1.6640 C.2   199  SER199      0.2288
    102  O         -0.9590  -30.3050   -2.3810 O.2   199  SER199     -0.2866
    103  CB         2.1880  -30.0450   -2.7350 C.3   199  SER199      0.2089
    104  OG         1.5510  -30.0570   -3.9980 O.3   199  SER199     -0.2183
    105  N          0.7960  -29.6360    3.2760 N.3   219  VAL219     -0.1231
    106  CA         1.9290  -30.3240    2.6540 C.3   219  VAL219      0.1692
    107  C          2.7180  -29.3140    1.8300 C.2   219  VAL219      0.2593
    108  O          2.1700  -28.7120    0.9080 O.2   219  VAL219     -0.2718
    109  CB         1.4660  -31.4500    1.7280 C.3   219  VAL219      0.0266
    110  CG1        2.6570  -32.2840    1.3120 C.3   219  VAL219      0.0020
    111  CG2        0.4250  -32.2900    2.4210 C.3   219  VAL219      0.0020
    112  N          3.9960  -29.1260    2.1470 N.am  220  SER220     -0.1938
    113  CA         4.7870  -28.1440    1.4240 C.3   220  SER220      0.2055
    114  C          5.8010  -28.7750    0.5070 C.2   220  SER220      0.2643
    115  O          5.7850  -28.5160   -0.6890 O.2   220  SER220     -0.2714
    116  CB         5.4920  -27.1940    2.4020 C.3   220  SER220      0.2130
    117  OG         5.9930  -26.0350    1.7520 O.3   220  SER220     -0.2179
    118  N          6.6770  -29.6120    1.0490 N.am  221  TRP221     -0.1959
    119  CA         7.7070  -30.2320    0.2210 C.3   221  TRP221      0.1771
    120  C          8.4990  -31.2910    0.9600 C.2   221  TRP221      0.2620
    121  O          8.2700  -31.5570    2.1410 O.2   221  TRP221     -0.2715
    122  CB         8.6990  -29.1750   -0.2800 C.3   221  TRP221      0.0590
    123  CG         9.3850  -28.4290    0.8470 C.ar  221  TRP221      0.0006
    124  CD1        8.8700  -27.3940    1.5730 C.ar  221  TRP221      0.0946
    125  CD2       10.6650  -28.7270    1.4310 C.ar  221  TRP221      0.0152
    126  NE1        9.7380  -27.0380    2.5720 N.ar  221  TRP221     -0.2442
    127  CE2       10.8470  -27.8400    2.5110 C.ar  221  TRP221      0.0810
    128  CE3       11.6700  -29.6640    1.1490 C.ar  221  TRP221      0.0012
    129  CZ2       11.9980  -27.8550    3.3120 C.ar  221  TRP221      0.0191
    130  CZ3       12.8190  -29.6790    1.9480 C.ar  221  TRP221      0.0001
    131  CH2       12.9680  -28.7800    3.0170 C.ar  221  TRP221      0.0015
    132  N          9.4550  -31.8690    0.2400 N.am  222  GLY222     -0.1940
    133  CA        10.3110  -32.8910    0.7980 C.3   222  GLY222      0.2014
    134  C         11.3630  -33.3300   -0.2030 C.2   222  GLY222      0.2639
    135  O         11.2510  -33.0850   -1.4060 O.2   222  GLY222     -0.2714
    136  N         12.4110  -33.9620    0.3080 N.am  223  GLU223     -0.1963
    137  CA        13.4910  -34.4830   -0.5210 C.3   223  GLU223      0.1733
    138  C         13.1390  -35.9470   -0.7650 C.2   223  GLU223      0.2617
    139  O         13.1850  -36.7650    0.1650 O.2   223  GLU223     -0.2715
    140  CB        14.8170  -34.3850    0.2320 C.3   223  GLU223      0.0429
    141  CG        15.3890  -32.9860    0.2820 C.3   223  GLU223      0.1163
    142  CD        16.1950  -32.7270    1.5330 C.2   223  GLU223      0.3649
    143  OE1       15.5740  -32.6300    2.6150 O.co2 223  GLU223     -0.2457
    144  OE2       17.4400  -32.6240    1.4310 O.co2 223  GLU223     -0.2457
    145  N         12.7810  -36.2770   -2.0040 N.am  224  GLY224     -0.1940
    146  CA        12.3910  -37.6440   -2.2990 C.3   224  GLY224      0.2014
    147  C         11.1080  -37.9310   -1.5320 C.2   224  GLY224      0.2639
    148  O         10.3890  -36.9990   -1.1590 O.2   224  GLY224     -0.2714
    149  N         10.7990  -39.2020   -1.3000 N.am  225  CYS225     -0.1967
    150  CA         9.5960  -39.5590   -0.5540 C.3   225  CYS225      0.1712
    151  C          9.8940  -40.7820    0.3060 C.2   225  CYS225      0.2296
    152  O         10.5620  -41.7150   -0.1340 O.2   225  CYS225     -0.2864
    153  CB         8.4010  -39.8330   -1.5010 C.3   225  CYS225      0.0983
    154  SG         7.7790  -38.3470   -2.3800 S.3   225  CYS225     -0.0798
    155  N         11.9850  -41.7940    2.0870 N.3   227  ARG227     -0.1231
    156  CA        13.3740  -42.1810    2.2980 C.3   227  ARG227      0.1694
    157  C         13.7560  -42.0640    3.7680 C.2   227  ARG227      0.2592
    158  O         13.5800  -41.0110    4.3660 O.2   227  ARG227     -0.2718
    159  CB        14.2970  -41.2920    1.4710 C.3   227  ARG227      0.0321
    160  CG        13.9940  -41.2680   -0.0150 C.3   227  ARG227      0.0489
    161  CD        15.2250  -40.8210   -0.7710 C.3   227  ARG227      0.2205
    162  NE        15.0870  -40.9620   -2.2140 N.pl3 227  ARG227     -0.0865
    163  CZ        16.1080  -41.2070   -3.0330 C.cat 227  ARG227      0.5346
    164  NH1       17.3370  -41.3380   -2.5430 N.pl3 227  ARG227      0.1354
    165  NH2       15.9060  -41.3310   -4.3420 N.pl3 227  ARG227      0.1354
    166  N         14.2740  -43.1400    4.3530 N.am  228  ASP228     -0.1974
    167  CA        14.6780  -43.0960    5.7560 C.3   228  ASP228      0.1709
    168  C         15.7400  -42.0270    5.9680 C.2   228  ASP228      0.2293
    169  O         16.6670  -41.8720    5.1700 O.2   228  ASP228     -0.2864
    170  CB        15.2130  -44.4520    6.2300 C.3   228  ASP228      0.1436
    171  CG        14.1050  -45.4160    6.6060 C.2   228  ASP228      0.3671
    172  OD1       13.1320  -44.9720    7.2640 O.co2 228  ASP228     -0.2456
    173  OD2       14.2190  -46.6140    6.2570 O.co2 228  ASP228     -0.2456
    174  N         14.8450  -38.9810    6.1280 N.3   230  LYS230     -0.1231
    175  CA        14.2250  -37.7790    5.5780 C.3   230  LYS230      0.1693
    176  C         12.7380  -37.6130    5.9650 C.2   230  LYS230      0.2592
    177  O         11.9340  -38.5570    5.9200 O.2   230  LYS230     -0.2718
    178  CB        14.4070  -37.7580    4.0530 C.3   230  LYS230      0.0285
    179  CG        15.8440  -38.0870    3.5970 C.3   230  LYS230      0.0035
    180  CD        16.8960  -37.0680    4.0540 C.3   230  LYS230      0.0206
    181  CE        17.1620  -36.0050    2.9950 C.3   230  LYS230      0.1093
    182  NZ        18.3250  -35.1480    3.3600 N.3   230  LYS230     -0.1314
    183  N         12.3980  -36.3810    6.3360 N.am  231  TYR231     -0.1962
    184  CA        11.0650  -36.0270    6.7900 C.3   231  TYR231      0.1771
    185  C         10.3950  -34.9580    5.9420 C.2   231  TYR231      0.2620
    186  O         11.0380  -33.9980    5.5290 O.2   231  TYR231     -0.2715
    187  CB        11.1710  -35.5350    8.2200 C.3   231  TYR231      0.0574
    188  CG        12.0250  -36.4280    9.0790 C.ar  231  TYR231     -0.0198
    189  CD1       11.4800  -37.5230    9.7440 C.ar  231  TYR231     -0.0009
    190  CD2       13.3890  -36.1870    9.2100 C.ar  231  TYR231     -0.0009
    191  CE1       12.2770  -38.3550   10.5240 C.ar  231  TYR231      0.0417
    192  CE2       14.2010  -37.0120    9.9810 C.ar  231  TYR231      0.0417
    193  CZ        13.6420  -38.0900   10.6390 C.ar  231  TYR231      0.1957
    194  OH        14.4540  -38.8770   11.4260 O.3   231  TYR231     -0.2866
    195  N          9.0960  -35.1290    5.7020 N.am  232  GLY232     -0.1940
    196  CA         8.3540  -34.1650    4.9160 C.3   232  GLY232      0.2014
    197  C          8.0730  -32.9400    5.7640 C.2   232  GLY232      0.2639
    198  O          7.8890  -33.0710    6.9800 O.2   232  GLY232     -0.2714
    199  N          8.0600  -31.7580    5.1370 N.am  233  PHE233     -0.1959
    200  CA         7.7910  -30.4990    5.8440 C.3   233  PHE233      0.1771
    201  C          6.3970  -29.9920    5.5410 C.2   233  PHE233      0.2619
    202  O          5.8510  -30.2590    4.4750 O.2   233  PHE233     -0.2715
    203  CB         8.8030  -29.4150    5.4610 C.3   233  PHE233      0.0574
    204  CG        10.2070  -29.7590    5.8140 C.ar  233  PHE233     -0.0200
    205  CD1       10.9490  -30.6100    5.0060 C.ar  233  PHE233     -0.0042
    206  CD2       10.7780  -29.2740    6.9830 C.ar  233  PHE233     -0.0042
    207  CE1       12.2470  -30.9790    5.3590 C.ar  233  PHE233     -0.0003
    208  CE2       12.0790  -29.6350    7.3510 C.ar  233  PHE233     -0.0003
    209  CZ        12.8140  -30.4890    6.5380 C.ar  233  PHE233     -0.0000
    210  N          5.8250  -29.2640    6.4930 N.am  234  TYR234     -0.1974
    211  CA         4.4910  -28.7100    6.3360 C.3   234  TYR234      0.1639
    212  C          4.4740  -27.2620    6.7540 C.2   234  TYR234      0.2290
    213  O          5.3000  -26.8270    7.5450 O.2   234  TYR234     -0.2864
    214  CB         3.4980  -29.4720    7.1910 C.3   234  TYR234      0.0560
    215  CG         3.5150  -30.9280    6.9190 C.ar  234  TYR234     -0.0198
    216  CD1        4.6630  -31.6610    7.1050 C.ar  234  TYR234     -0.0009
    217  CD2        2.3930  -31.5730    6.4510 C.ar  234  TYR234     -0.0009
    218  CE1        4.7020  -32.9980    6.8310 C.ar  234  TYR234      0.0417
    219  CE2        2.4170  -32.9150    6.1750 C.ar  234  TYR234      0.0417
    220  CZ         3.5800  -33.6210    6.3660 C.ar  234  TYR234      0.1957
    221  OH         3.6360  -34.9540    6.0820 O.3   234  TYR234     -0.2866
@<TRIPOS>BOND
     1    40    39    2
     2    39    38    1
     3    38    41    1
     4    38    37    1
     5     8     6    1
     6    41    42    1
     7    42    43   ar
     8    42    44   ar
     9    43    45   ar
    10     6     7    1
    11     6     5    1
    12    28    27    2
    13    45    46   ar
    14    44    47   ar
    15    44    46   ar
    16     1     2    1
    17    27    26    1
    18     5     2    1
    19    47    49   ar
    20     2     3    1
    21    46    48   ar
    22    25    26    1
    23    26    29    1
    24    49    50   ar
    25    32    34   ar
    26    32    30   ar
    27    48    50   ar
    28    29    30    1
    29     3     4    2
    30     3     9   am
    31    34    35   ar
    32    30    31   ar
    33     9    10    1
    34    35    36    1
    35    35    33   ar
    36    31    33   ar
    37    18    17    2
    38    91    90    2
    39    91    92    1
    40    90    87    1
    41    14    13    1
    42    10    13    1
    43    10    11    1
    44    96    95    1
    45    96    97    1
    46    17    16    1
    47    12    11    2
    48    89    88    2
    49    95    88   am
    50    88    87    1
    51    94    92   ar
    52    92    93   ar
    53    87    86    1
    54    16    19    1
    55    16    15    1
    56    98    97    2
    57    22    20   ar
    58    22    24   ar
    59    86    82   am
    60    19    20    1
    61   165   163    1
    62    20    21   ar
    63   104   103    1
    64    24    23   ar
    65    85    84    1
    66    85   154    1
    67    82    83    2
    68    82    81    1
    69    21    23   ar
    70   163   164    1
    71   163   162    2
    72    57    56    1
    73   103   100    1
    74    84    81    1
    75   102   101    2
    76   154   153    1
    77   146   145    1
    78   146   147    1
    79    81    80    1
    80   162   161    1
    81    58    56    1
    82    99   100    1
    83   145   138   am
    84    56    55    1
    85   100   101    1
    86   147   149   am
    87   147   148    2
    88   153   150    1
    89   135   134    2
    90   149   150    1
    91    80    77   am
    92   161   160    1
    93   138   137    1
    94   138   139    2
    95   115   114    2
    96   150   151    1
    97   137   140    1
    98   137   136    1
    99    55    52    1
   100   122   119    1
   101   122   123    1
   102   134   136   am
   103   134   133    1
   104   152   151    2
   105    51    52    1
   106    52    53    1
   107   160   159    1
   108    77    78    2
   109    77    76    1
   110   119   120    1
   111   119   118    1
   112   140   141    1
   113   132   133    1
   114   132   120   am
   115   141   142    1
   116   114   118   am
   117   114   113    1
   118    66    64    1
   119   123   125   ar
   120   123   124   ar
   121   108   107    2
   122   120   121    2
   123   128   125   ar
   124   128   130   ar
   125    76    79    1
   126    76    75    1
   127   110   109    1
   128    53    54    2
   129    64    63    1
   130   113   112    1
   131   113   116    1
   132   144   142   ar
   133   125   127   ar
   134   159   156    1
   135   142   143   ar
   136   124   126   ar
   137   109   111    1
   138   109   106    1
   139   117   116    1
   140    70    69    2
   141   107   112   am
   142   107   106    1
   143    74    72   ar
   144   130   131   ar
   145   155   156    1
   146   156   157    1
   147    75    69   am
   148    69    68    1
   149   127   126   ar
   150   127   129   ar
   151   106   105    1
   152    72    71    1
   153    72    73   ar
   154    63    65    1
   155    63    60    1
   156   181   182    1
   157   181   180    1
   158   131   129   ar
   159    71    68    1
   160   179   178    1
   161   179   180    1
   162    60    59    1
   163    60    61    1
   164    68    67    1
   165   157   166   am
   166   157   158    2
   167   178   175    1
   168   166   167    1
   169   202   201    2
   170   196   195    1
   171   196   197    1
   172    61    62    2
   173   205   207   ar
   174   205   204   ar
   175   199   197   am
   176   199   200    1
   177   169   168    2
   178   207   209   ar
   179   203   204    1
   180   203   200    1
   181   186   185    2
   182   201   200    1
   183   201   210   am
   184   175   176    1
   185   175   174    1
   186   195   185   am
   187   167   168    1
   188   167   170    1
   189   197   198    2
   190   204   206   ar
   191   177   176    2
   192   185   184    1
   193   176   183   am
   194   221   220    1
   195   219   220   ar
   196   219   217   ar
   197   170   171    1
   198   173   171   ar
   199   211   210    1
   200   211   212    1
   201   211   214    1
   202   183   184    1
   203   220   218   ar
   204   217   215   ar
   205   209   208   ar
   206   171   172   ar
   207   212   213    2
   208   184   187    1
   209   218   216   ar
   210   215   216   ar
   211   215   214    1
   212   206   208   ar
   213   187   188    1
   214   188   190   ar
   215   188   189   ar
   216   190   192   ar
   217   189   191   ar
   218   192   193   ar
   219   191   193   ar
   220   193   194    1
