@<TRIPOS>MOLECULE
tmp/3qe0A00.pdb
 166 162 0 0 0
SMALL
GASTEIGER

@<TRIPOS>ATOM
      1  N         39.6260  -20.1590  -12.7070 N.3     8  LEU8       -0.1231
      2  CA        38.9300  -19.6140  -13.8670 C.3     8  LEU8        0.1693
      3  C         39.0800  -18.0980  -13.9150 C.2     8  LEU8        0.2592
      4  O         39.4010  -17.4700  -12.9090 O.2     8  LEU8       -0.2718
      5  CB        37.4490  -19.9860  -13.8250 C.3     8  LEU8        0.0284
      6  CG        37.1240  -21.4780  -13.8190 C.3     8  LEU8        0.0019
      7  CD1       35.6780  -21.6980  -13.4220 C.3     8  LEU8        0.0001
      8  CD2       37.4160  -22.0970  -15.1750 C.3     8  LEU8        0.0001
      9  N         38.8450  -17.5200  -15.0880 N.am    9  GLY9       -0.1957
     10  CA        38.9370  -16.0840  -15.2720 C.3     9  GLY9        0.1869
     11  C         39.3770  -15.7160  -16.6750 C.2     9  GLY9        0.2309
     12  O         39.8490  -16.5650  -17.4290 O.2     9  GLY9       -0.2863
     13  N         42.7680  -23.3640  -15.9140 N.3   166  VAL166     -0.1231
     14  CA        41.9840  -23.3610  -17.1410 C.3   166  VAL166      0.1692
     15  C         42.2280  -22.0900  -17.9440 C.2   166  VAL166      0.2592
     16  O         41.6370  -21.0460  -17.6670 O.2   166  VAL166     -0.2718
     17  CB        40.4820  -23.4820  -16.8420 C.3   166  VAL166      0.0266
     18  CG1       39.6830  -23.4790  -18.1340 C.3   166  VAL166      0.0020
     19  CG2       40.2070  -24.7420  -16.0420 C.3   166  VAL166      0.0020
     20  N         43.1040  -22.1880  -18.9390 N.am  167  GLY167     -0.1957
     21  CA        43.4130  -21.0630  -19.8000 C.3   167  GLY167      0.1869
     22  C         43.7200  -21.4950  -21.2200 C.2   167  GLY167      0.2309
     23  O         42.8610  -22.0420  -21.9130 O.2   167  GLY167     -0.2863
     24  N         38.4870  -24.8900  -26.7520 N.3   168  SER168     -0.1202
     25  CA        39.1610  -25.7720  -27.6980 C.3   168  SER168      0.2020
     26  C         38.8560  -27.2380  -27.4060 C.2   168  SER168      0.2619
     27  O         38.7400  -28.0510  -28.3230 O.2   168  SER168     -0.2717
     28  CB        40.6720  -25.5340  -27.6720 C.3   168  SER168      0.2103
     29  OG        41.2050  -25.7960  -26.3860 O.3   168  SER168     -0.2182
     30  N         38.7290  -27.5720  -26.1260 N.am  169  GLU169     -0.1965
     31  CA        38.3880  -28.9320  -25.7250 C.3   169  GLU169      0.1733
     32  C         36.9230  -29.2330  -26.0200 C.2   169  GLU169      0.2616
     33  O         36.1960  -28.3780  -26.5260 O.2   169  GLU169     -0.2715
     34  CB        38.6920  -29.1570  -24.2420 C.3   169  GLU169      0.0429
     35  CG        40.1660  -29.3710  -23.9320 C.3   169  GLU169      0.1163
     36  CD        41.0120  -28.1430  -24.1980 C.2   169  GLU169      0.3649
     37  OE1       40.4900  -27.0170  -24.0610 O.co2 169  GLU169     -0.2457
     38  OE2       42.2030  -28.3050  -24.5370 O.co2 169  GLU169     -0.2457
     39  N         36.4940  -30.4490  -25.7000 N.am  170  ARG170     -0.1977
     40  CA        35.1310  -30.8790  -25.9960 C.3   170  ARG170      0.1597
     41  C         34.5350  -31.6620  -24.8320 C.2   170  ARG170      0.2287
     42  O         33.6750  -31.1610  -24.1060 O.2   170  ARG170     -0.2864
     43  CB        35.1070  -31.7280  -27.2690 C.3   170  ARG170      0.0334
     44  CG        35.6710  -31.0230  -28.4930 C.3   170  ARG170      0.0492
     45  CD        35.8350  -31.9800  -29.6610 C.3   170  ARG170      0.2205
     46  NE        36.4300  -31.3240  -30.8210 N.pl3 170  ARG170     -0.0865
     47  CZ        36.7480  -31.9470  -31.9500 C.cat 170  ARG170      0.5346
     48  NH1       36.5320  -33.2500  -32.0750 N.pl3 170  ARG170      0.1354
     49  NH2       37.2850  -31.2700  -32.9560 N.pl3 170  ARG170      0.1354
     50  N         36.1500  -30.7380  -21.0110 N.3   173  TRP173     -0.1227
     51  CA        35.4910  -29.8360  -20.0780 C.3   173  TRP173      0.1737
     52  C         34.7310  -30.6500  -19.0420 C.2   173  TRP173      0.2595
     53  O         34.8260  -30.3940  -17.8430 O.2   173  TRP173     -0.2718
     54  CB        34.5230  -28.8960  -20.8000 C.3   173  TRP173      0.0564
     55  CG        35.1720  -27.9430  -21.7570 C.ar  173  TRP173      0.0003
     56  CD1       34.7600  -27.6480  -23.0230 C.ar  173  TRP173      0.0946
     57  CD2       36.3490  -27.1600  -21.5250 C.ar  173  TRP173      0.0152
     58  NE1       35.6050  -26.7290  -23.5950 N.ar  173  TRP173     -0.2442
     59  CE2       36.5910  -26.4140  -22.6960 C.ar  173  TRP173      0.0810
     60  CE3       37.2230  -27.0180  -20.4430 C.ar  173  TRP173      0.0012
     61  CZ2       37.6680  -25.5390  -22.8140 C.ar  173  TRP173      0.0191
     62  CZ3       38.2920  -26.1500  -20.5630 C.ar  173  TRP173      0.0001
     63  CH2       38.5050  -25.4210  -21.7400 C.ar  173  TRP173      0.0015
     64  N         33.9760  -31.6340  -19.5170 N.am  174  ILE174     -0.1980
     65  CA        33.1870  -32.4890  -18.6400 C.3   174  ILE174      0.1595
     66  C         34.0470  -33.1290  -17.5520 C.2   174  ILE174      0.2287
     67  O         33.6970  -33.0890  -16.3730 O.2   174  ILE174     -0.2864
     68  CB        32.4560  -33.5870  -19.4340 C.3   174  ILE174      0.0276
     69  CG1       31.5760  -32.9610  -20.5180 C.3   174  ILE174      0.0022
     70  CG2       31.6280  -34.4570  -18.5020 C.3   174  ILE174      0.0022
     71  CD1       30.8120  -33.9700  -21.3470 C.3   174  ILE174      0.0001
     72  N         35.0720  -30.2210  -14.6990 N.3   177  PHE177     -0.1241
     73  CA        34.1660  -29.6300  -13.7210 C.3   177  PHE177      0.1605
     74  C         33.5780  -30.6740  -12.7730 C.2   177  PHE177      0.2264
     75  O         32.7440  -30.3540  -11.9260 O.2   177  PHE177     -0.2867
     76  CB        33.0410  -28.8630  -14.4210 C.3   177  PHE177      0.0534
     77  CG        33.5260  -27.7630  -15.3220 C.ar  177  PHE177     -0.0203
     78  CD1       34.0140  -26.5790  -14.7950 C.ar  177  PHE177     -0.0042
     79  CD2       33.4850  -27.9080  -16.6980 C.ar  177  PHE177     -0.0042
     80  CE1       34.4590  -25.5640  -15.6230 C.ar  177  PHE177     -0.0003
     81  CE2       33.9290  -26.8960  -17.5320 C.ar  177  PHE177     -0.0003
     82  CZ        34.4160  -25.7230  -16.9930 C.ar  177  PHE177     -0.0000
     83  N         37.8960  -17.5390   -8.9600 N.3   185  PHE185     -0.1241
     84  CA        37.7040  -16.7350  -10.1580 C.3   185  PHE185      0.1605
     85  C         38.5100  -15.4470  -10.0600 C.2   185  PHE185      0.2264
     86  O         38.3460  -14.6720   -9.1190 O.2   185  PHE185     -0.2867
     87  CB        36.2200  -16.4220  -10.3650 C.3   185  PHE185      0.0534
     88  CG        35.9090  -15.8310  -11.7100 C.ar  185  PHE185     -0.0203
     89  CD1       35.7960  -14.4630  -11.8700 C.ar  185  PHE185     -0.0042
     90  CD2       35.7340  -16.6450  -12.8150 C.ar  185  PHE185     -0.0042
     91  CE1       35.5130  -13.9160  -13.1040 C.ar  185  PHE185     -0.0003
     92  CE2       35.4520  -16.1050  -14.0500 C.ar  185  PHE185     -0.0003
     93  CZ        35.3410  -14.7380  -14.1940 C.ar  185  PHE185     -0.0000
     94  N         33.0120   -8.2480  -19.7260 N.3   205  GLU205     -0.1245
     95  CA        33.2340   -9.6020  -20.2070 C.3   205  GLU205      0.1567
     96  C         33.4960  -10.5250  -19.0240 C.2   205  GLU205      0.2260
     97  O         33.0500  -11.6720  -19.0060 O.2   205  GLU205     -0.2867
     98  CB        34.4230   -9.6370  -21.1700 C.3   205  GLU205      0.0388
     99  CG        34.5990  -10.9580  -21.9010 C.3   205  GLU205      0.1160
    100  CD        33.5740  -11.1540  -22.9990 C.2   205  GLU205      0.3649
    101  OE1       32.9310  -10.1590  -23.3950 O.co2 205  GLU205     -0.2457
    102  OE2       33.4150  -12.3000  -23.4710 O.co2 205  GLU205     -0.2457
    103  N         30.3840  -11.3060  -17.2120 N.3   208  LYS208     -0.1231
    104  CA        29.6800  -12.3100  -18.0000 C.3   208  LYS208      0.1693
    105  C         30.0990  -13.7090  -17.5680 C.2   208  LYS208      0.2591
    106  O         29.2560  -14.5550  -17.2640 O.2   208  LYS208     -0.2718
    107  CB        29.9700  -12.1140  -19.4900 C.3   208  LYS208      0.0285
    108  CG        29.2040  -13.0500  -20.4100 C.3   208  LYS208      0.0035
    109  CD        29.7080  -12.9820  -21.8470 C.3   208  LYS208      0.0206
    110  CE        29.5130  -11.6010  -22.4550 C.3   208  LYS208      0.1093
    111  NZ        30.5200  -10.6190  -21.9690 N.3   208  LYS208     -0.1314
    112  N         31.4070  -13.9450  -17.5370 N.am  209  LEU209     -0.1980
    113  CA        31.9440  -15.2390  -17.1400 C.3   209  LEU209      0.1596
    114  C         31.5230  -15.6150  -15.7250 C.2   209  LEU209      0.2287
    115  O         30.9710  -16.6910  -15.4990 O.2   209  LEU209     -0.2864
    116  CB        33.4700  -15.2450  -17.2480 C.3   209  LEU209      0.0297
    117  CG        34.0710  -15.2190  -18.6520 C.3   209  LEU209      0.0022
    118  CD1       35.5880  -15.1830  -18.5810 C.3   209  LEU209      0.0001
    119  CD2       33.6020  -16.4220  -19.4500 C.3   209  LEU209      0.0001
    120  N         27.8960  -16.8990  -15.2150 N.3   212  SER212     -0.1202
    121  CA        27.6480  -18.2850  -15.5970 C.3   212  SER212      0.2020
    122  C         28.2560  -19.2710  -14.6050 C.2   212  SER212      0.2618
    123  O         27.7790  -20.3960  -14.4680 O.2   212  SER212     -0.2717
    124  CB        28.1900  -18.5600  -17.0000 C.3   212  SER212      0.2103
    125  OG        29.6050  -18.5370  -17.0110 O.3   212  SER212     -0.2182
    126  N         29.3090  -18.8460  -13.9150 N.am  213  ILE213     -0.1979
    127  CA        30.0110  -19.7220  -12.9850 C.3   213  ILE213      0.1595
    128  C         29.2190  -19.9950  -11.7080 C.2   213  ILE213      0.2287
    129  O         28.8470  -21.1340  -11.4360 O.2   213  ILE213     -0.2864
    130  CB        31.3910  -19.1570  -12.6040 C.3   213  ILE213      0.0276
    131  CG1       32.2770  -19.0270  -13.8430 C.3   213  ILE213      0.0022
    132  CG2       32.0620  -20.0510  -11.5780 C.3   213  ILE213      0.0022
    133  CD1       32.5920  -20.3440  -14.5030 C.3   213  ILE213      0.0001
    134  N         25.6140  -21.4450  -12.2790 N.3   216  ASN216     -0.1240
    135  CA        25.5040  -22.7560  -12.9070 C.3   216  ASN216      0.1653
    136  C         25.2150  -23.8590  -11.8930 C.2   216  ASN216      0.2266
    137  O         25.6480  -23.7900  -10.7410 O.2   216  ASN216     -0.2867
    138  CB        26.7760  -23.0820  -13.6940 C.3   216  ASN216      0.1155
    139  CG        26.5760  -24.2090  -14.6840 C.2   216  ASN216      0.2627
    140  OD1       26.3190  -25.3490  -14.3010 O.2   216  ASN216     -0.2716
    141  ND2       26.6960  -23.8950  -15.9680 N.am  216  ASN216     -0.0877
    142  N         26.3500  -26.7760  -11.9970 N.3   218  TRP218     -0.1227
    143  CA        27.5690  -27.5540  -11.8130 C.3   218  TRP218      0.1737
    144  C         28.1660  -27.3590  -10.4250 C.2   218  TRP218      0.2595
    145  O         28.6840  -28.3000   -9.8260 O.2   218  TRP218     -0.2718
    146  CB        28.6150  -27.1700  -12.8640 C.3   218  TRP218      0.0564
    147  CG        28.5280  -27.9420  -14.1460 C.ar  218  TRP218      0.0003
    148  CD1       27.9280  -27.5450  -15.3050 C.ar  218  TRP218      0.0946
    149  CD2       29.0740  -29.2410  -14.4020 C.ar  218  TRP218      0.0152
    150  NE1       28.0630  -28.5170  -16.2660 N.ar  218  TRP218     -0.2442
    151  CE2       28.7620  -29.5690  -15.7370 C.ar  218  TRP218      0.0810
    152  CE3       29.7940  -30.1600  -13.6320 C.ar  218  TRP218      0.0012
    153  CZ2       29.1450  -30.7760  -16.3180 C.ar  218  TRP218      0.0191
    154  CZ3       30.1730  -31.3590  -14.2110 C.ar  218  TRP218      0.0001
    155  CH2       29.8470  -31.6550  -15.5410 C.ar  218  TRP218      0.0015
    156  N         28.0920  -26.1340   -9.9170 N.am  219  PHE219     -0.1976
    157  CA        28.7800  -25.7870   -8.6810 C.3   219  PHE219      0.1639
    158  C         27.8230  -25.3850   -7.5660 C.2   219  PHE219      0.2290
    159  O         27.9900  -24.3370   -6.9410 O.2   219  PHE219     -0.2864
    160  CB        29.7770  -24.6600   -8.9400 C.3   219  PHE219      0.0560
    161  CG        30.5140  -24.7950  -10.2390 C.ar  219  PHE219     -0.0200
    162  CD1       31.4350  -25.8120  -10.4250 C.ar  219  PHE219     -0.0042
    163  CD2       30.2870  -23.9040  -11.2730 C.ar  219  PHE219     -0.0042
    164  CE1       32.1140  -25.9380  -11.6210 C.ar  219  PHE219     -0.0003
    165  CE2       30.9650  -24.0230  -12.4710 C.ar  219  PHE219     -0.0003
    166  CZ        31.8800  -25.0400  -12.6450 C.ar  219  PHE219     -0.0000
@<TRIPOS>BOND
     1    49    47    1
     2    48    47    1
     3    47    46    2
     4    46    45    1
     5    45    44    1
     6    44    43    1
     7    27    26    2
     8    25    28    1
     9    25    26    1
    10    25    24    1
    11    28    29    1
    12    26    30   am
    13    43    40    1
    14    33    32    2
    15    30    31    1
    16    32    31    1
    17    32    39   am
    18    40    39    1
    19    40    41    1
    20    31    34    1
    21    41    42    2
    22    38    36   ar
    23    34    35    1
    24    36    37   ar
    25    36    35    1
    26    58    56   ar
    27    58    59   ar
    28   102   100   ar
    29   101   100   ar
    30    56    55   ar
    31   100    99    1
    32    61    59   ar
    33    61    63   ar
    34    59    57   ar
    35   110   111    1
    36   110   109    1
    37    23    22    2
    38    99    98    1
    39   109   108    1
    40    55    57   ar
    41    55    54    1
    42    63    62   ar
    43    57    60   ar
    44    71    69    1
    45    22    21    1
    46    98    95    1
    47    50    51    1
    48    54    51    1
    49    62    60   ar
    50    69    68    1
    51   108   107    1
    52    95    94    1
    53    95    96    1
    54    51    52    1
    55    21    20    1
    56    64    52   am
    57    64    65    1
    58   107   104    1
    59   119   117    1
    60    68    65    1
    61    68    70    1
    62    52    53    2
    63    96    97    2
    64    20    15   am
    65   117   118    1
    66   117   116    1
    67    65    66    1
    68    18    17    1
    69   104   105    1
    70   104   103    1
    71    15    16    2
    72    15    14    1
    73   105   112   am
    74   105   106    2
    75    66    67    2
    76   112   113    1
    77    81    82   ar
    78    81    79   ar
    79    12    11    2
    80   116   113    1
    81    14    17    1
    82    14    13    1
    83   113   114    1
    84   125   124    1
    85   124   121    1
    86    82    80   ar
    87    17    19    1
    88    79    77   ar
    89    11    10    1
    90   153   151   ar
    91   153   155   ar
    92   150   151   ar
    93   150   148   ar
    94   141   139   am
    95   151   149   ar
    96   114   115    2
    97    80    78   ar
    98   121   120    1
    99   121   122    1
   100   155   154   ar
   101    77    78   ar
   102    77    76    1
   103   148   147   ar
   104    10     9    1
   105     8     6    1
   106     9     3   am
   107    72    73    1
   108   139   140    2
   109   139   138    1
   110   122   123    2
   111   122   126   am
   112   133   131    1
   113    76    73    1
   114   149   147   ar
   115   149   152   ar
   116   154   152   ar
   117    93    92   ar
   118    93    91   ar
   119   147   146    1
   120    92    90   ar
   121   126   127    1
   122     3     2    1
   123     3     4    2
   124     2     5    1
   125     2     1    1
   126   131   130    1
   127     5     6    1
   128     6     7    1
   129    73    74    1
   130   138   135    1
   131    91    89   ar
   132   127   130    1
   133   127   128    1
   134   135   134    1
   135   135   136    1
   136   146   143    1
   137    90    88   ar
   138    74    75    2
   139   166   165   ar
   140   166   164   ar
   141   130   132    1
   142   165   163   ar
   143   142   143    1
   144   136   137    2
   145    89    88   ar
   146   143   144    1
   147    88    87    1
   148   128   129    2
   149   164   162   ar
   150   163   161   ar
   151   162   161   ar
   152   144   156   am
   153   144   145    2
   154    87    84    1
   155   161   160    1
   156    84    85    1
   157    84    83    1
   158    85    86    2
   159   156   157    1
   160   160   157    1
   161   157   158    1
   162   158   159    2
