@<TRIPOS>MOLECULE
tmp/3qe4A00.pdb
 133 127 0 0 0
SMALL
GASTEIGER

@<TRIPOS>ATOM
      1  N         15.8380   -7.6180   20.5000 N.3    32  LEU32      -0.1245
      2  CA        15.0960   -7.4920   21.7300 C.3    32  LEU32       0.1561
      3  C         14.4070   -6.1530   21.8180 C.2    32  LEU32       0.2260
      4  O         14.7880   -5.1590   21.1980 O.2    32  LEU32      -0.2867
      5  CB        15.9520   -7.7420   23.0060 C.3    32  LEU32       0.0270
      6  CG        17.0340   -6.6790   23.4490 C.3    32  LEU32       0.0019
      7  CD1       16.4310   -5.3820   23.9750 C.3    32  LEU32       0.0001
      8  CD2       17.8810   -7.2130   24.5550 C.3    32  LEU32       0.0001
      9  N         12.3830   -4.4810   25.4590 N.3    34  GLY34      -0.1210
     10  CA        12.0090   -4.7000   26.8400 C.3    34  GLY34       0.1956
     11  C         10.9700   -3.6890   27.2410 C.2    34  GLY34       0.2612
     12  O         10.9240   -2.6000   26.6670 O.2    34  GLY34      -0.2717
     13  N         10.1100   -4.0630   28.1940 N.am   35  PHE35      -0.1962
     14  CA         9.0590   -3.1990   28.7370 C.3    35  PHE35       0.1771
     15  C          8.9770   -3.3500   30.2290 C.2    35  PHE35       0.2619
     16  O          8.9480   -4.4720   30.7330 O.2    35  PHE35      -0.2715
     17  CB         7.6730   -3.5550   28.1830 C.3    35  PHE35       0.0574
     18  CG         7.4520   -3.5680   26.6850 C.ar   35  PHE35      -0.0200
     19  CD1        7.1740   -2.3910   25.9960 C.ar   35  PHE35      -0.0042
     20  CD2        7.4050   -4.7680   25.9830 C.ar   35  PHE35      -0.0042
     21  CE1        6.8680   -2.4130   24.6320 C.ar   35  PHE35      -0.0003
     22  CE2        7.0810   -4.7860   24.6220 C.ar   35  PHE35      -0.0003
     23  CZ         6.8150   -3.6080   23.9570 C.ar   35  PHE35      -0.0000
     24  N          8.8800   -2.2270   30.9390 N.am   36  GLU36      -0.1977
     25  CA         8.6860   -2.2480   32.3770 C.3    36  GLU36       0.1602
     26  C          7.2340   -2.7620   32.5310 C.2    36  GLU36       0.2287
     27  O          6.3710   -2.1990   31.8880 O.2    36  GLU36      -0.2864
     28  CB         8.7620   -0.8180   32.9380 C.3    36  GLU36       0.0415
     29  CG        10.1370   -0.3000   33.3420 C.3    36  GLU36       0.1163
     30  CD        10.0730    1.0830   33.9830 C.2    36  GLU36       0.3649
     31  OE1        9.2420    1.2910   34.9010 O.co2  36  GLU36      -0.2457
     32  OE2       10.8430    1.9690   33.5500 O.co2  36  GLU36      -0.2457
     33  N         11.8250   -8.7040   26.8180 N.3    65  VAL65      -0.1245
     34  CA        12.2280   -8.6440   28.2100 C.3    65  VAL65       0.1561
     35  C         11.1080   -8.0070   29.0300 C.2    65  VAL65       0.2260
     36  O         10.7300   -6.8380   28.8080 O.2    65  VAL65      -0.2867
     37  CB        13.5910   -7.9300   28.4260 C.3    65  VAL65       0.0252
     38  CG1       14.0850   -8.1170   29.8610 C.3    65  VAL65       0.0019
     39  CG2       14.6470   -8.4060   27.4280 C.3    65  VAL65       0.0019
     40  N         10.7250   -6.4150   32.0160 N.3    67  ALA67      -0.1245
     41  CA        11.6920   -5.7630   32.9040 C.3    67  ALA67       0.1562
     42  C         11.1530   -5.4130   34.2760 C.2    67  ALA67       0.2260
     43  O         11.0230   -4.2240   34.6350 O.2    67  ALA67      -0.2867
     44  CB        12.3120   -4.5460   32.2120 C.3    67  ALA67       0.0290
     45  N         13.6690   -3.4040   36.4980 N.3    70  HIS70      -0.1241
     46  CA        13.7590   -2.0080   36.0750 C.3    70  HIS70       0.1621
     47  C         12.6050   -1.1790   36.5980 C.2    70  HIS70       0.2264
     48  O         12.8160   -0.0490   37.0620 O.2    70  HIS70      -0.2867
     49  CB        13.8250   -1.9320   34.5680 C.3    70  HIS70       0.0745
     50  CG        15.1910   -2.1940   34.0630 C.ar   70  HIS70       0.0817
     51  ND1       16.1180   -1.1640   33.9230 N.ar   70  HIS70      -0.2268
     52  CD2       15.7560   -3.3630   33.6900 C.ar   70  HIS70       0.1154
     53  CE1       17.2220   -1.7510   33.4940 C.ar   70  HIS70       0.1986
     54  NE2       17.0450   -3.0770   33.3270 N.ar   70  HIS70      -0.2212
     55  N         17.6460  -13.5710   34.9650 N.3   108  TRP108     -0.1227
     56  CA        19.0560  -13.3700   34.6070 C.3   108  TRP108      0.1737
     57  C         19.7290  -12.0470   35.0180 C.2   108  TRP108      0.2595
     58  O         20.9590  -11.9780   34.9760 O.2   108  TRP108     -0.2718
     59  CB        19.2620  -13.6360   33.1090 C.3   108  TRP108      0.0564
     60  CG        18.3090  -12.8630   32.2480 C.ar  108  TRP108      0.0003
     61  CD1       17.0000  -13.1630   32.0010 C.ar  108  TRP108      0.0946
     62  CD2       18.5820  -11.6460   31.5470 C.ar  108  TRP108      0.0152
     63  NE1       16.4340  -12.1920   31.2060 N.ar  108  TRP108     -0.2442
     64  CE2       17.3920  -11.2690   30.8800 C.ar  108  TRP108      0.0810
     65  CE3       19.7300  -10.8580   31.3740 C.ar  108  TRP108      0.0012
     66  CZ2       17.3130  -10.1280   30.0700 C.ar  108  TRP108      0.0191
     67  CZ3       19.6540   -9.7310   30.5690 C.ar  108  TRP108      0.0001
     68  CH2       18.4550   -9.3690   29.9360 C.ar  108  TRP108      0.0015
     69  N         18.9720  -11.0150   35.4290 N.am  109  MET109     -0.1979
     70  CA        19.6490   -9.7700   35.8080 C.3   109  MET109      0.1605
     71  C         20.2770   -9.7960   37.2170 C.2   109  MET109      0.2287
     72  O         20.8450   -8.7870   37.6490 O.2   109  MET109     -0.2864
     73  CB        18.7790   -8.5270   35.5800 C.3   109  MET109      0.0413
     74  CG        18.3950   -8.3390   34.1420 C.3   109  MET109      0.0598
     75  SD        17.3700   -6.8830   33.9030 S.3   109  MET109     -0.1393
     76  CE        16.9190   -7.1120   32.1970 C.3   109  MET109      0.0692
     77  N         12.6190    8.8870   31.3550 N.3   137  ILE137     -0.1245
     78  CA        12.2060    7.5880   31.8380 C.3   137  ILE137      0.1561
     79  C         11.8150    7.5750   33.2870 C.2   137  ILE137      0.2260
     80  O         10.8080    6.9540   33.6530 O.2   137  ILE137     -0.2867
     81  CB        13.2090    6.4750   31.4180 C.3   137  ILE137      0.0252
     82  CG1       13.3000    6.4350   29.8480 C.3   137  ILE137      0.0019
     83  CG2       12.8570    5.0580   32.0360 C.3   137  ILE137      0.0019
     84  CD1       14.2660    5.4840   29.1710 C.3   137  ILE137      0.0001
     85  N         19.5800    1.6830   36.8730 N.3   151  TYR151     -0.1241
     86  CA        18.6070    1.4310   35.7990 C.3   151  TYR151      0.1605
     87  C         19.2370    1.5230   34.3850 C.2   151  TYR151      0.2264
     88  O         19.2030    0.5030   33.7120 O.2   151  TYR151     -0.2867
     89  CB        17.3820    2.3570   35.9520 C.3   151  TYR151      0.0534
     90  CG        16.2500    2.1380   34.9580 C.ar  151  TYR151     -0.0201
     91  CD1       14.9560    1.8650   35.3940 C.ar  151  TYR151     -0.0009
     92  CD2       16.4600    2.2640   33.5860 C.ar  151  TYR151     -0.0009
     93  CE1       13.9030    1.6980   34.4910 C.ar  151  TYR151      0.0417
     94  CE2       15.4170    2.0780   32.6680 C.ar  151  TYR151      0.0417
     95  CZ        14.1420    1.7730   33.1280 C.ar  151  TYR151      0.1957
     96  OH        13.0850    1.6100   32.2490 O.3   151  TYR151     -0.2866
     97  N         20.0510   -1.8700   31.8010 N.3   155  GLN155     -0.1245
     98  CA        19.3570   -1.9510   30.5230 C.3   155  GLN155      0.1566
     99  C         20.4090   -2.2070   29.4400 C.2   155  GLN155      0.2260
    100  O         20.2860   -3.1770   28.7030 O.2   155  GLN155     -0.2867
    101  CB        18.5570   -0.6670   30.2510 C.3   155  GLN155      0.0367
    102  CG        17.7950   -0.7420   28.9160 C.3   155  GLN155      0.0905
    103  CD        16.7800    0.3490   28.7660 C.2   155  GLN155      0.2608
    104  OE1       16.1700    0.8020   29.7410 O.2   155  GLN155     -0.2717
    105  NE2       16.5250    0.7450   27.5260 N.am  155  GLN155     -0.0878
    106  N         21.7270   -5.7820   29.3010 N.3   158  GLY158     -0.1210
    107  CA        20.7700   -6.7680   28.8320 C.3   158  GLY158      0.1956
    108  C         21.0050   -7.1040   27.3720 C.2   158  GLY158      0.2611
    109  O         20.9520   -8.2720   26.9940 O.2   158  GLY158     -0.2717
    110  N         21.3280   -6.0630   26.5570 N.am  159  ALA159     -0.1979
    111  CA        21.6300   -6.1660   25.1270 C.3   159  ALA159      0.1597
    112  C         22.8900   -6.9800   24.9270 C.2   159  ALA159      0.2287
    113  O         22.9850   -7.7280   23.9530 O.2   159  ALA159     -0.2864
    114  CB        21.8040   -4.7770   24.5340 C.3   159  ALA159      0.0319
    115  N         13.9360    6.0550   24.7020 N.3   173  GLN173     -0.1245
    116  CA        15.0250    5.1170   25.0190 C.3   173  GLN173      0.1566
    117  C         16.3460    5.4970   24.3220 C.2   173  GLN173      0.2260
    118  O         17.3900    4.8390   24.5490 O.2   173  GLN173     -0.2867
    119  CB        14.6700    3.6940   24.5610 C.3   173  GLN173      0.0367
    120  CG        13.3160    3.1680   25.0100 C.3   173  GLN173      0.0905
    121  CD        13.2030    2.9440   26.4940 C.2   173  GLN173      0.2608
    122  OE1       14.1830    2.6970   27.1970 O.2   173  GLN173     -0.2717
    123  NE2       11.9770    2.9790   26.9810 N.am  173  GLN173     -0.0878
    124  N         20.1440    3.8510   24.7070 N.3   177  HIS177     -0.1241
    125  CA        20.6110    3.1450   23.5130 C.3   177  HIS177      0.1621
    126  C         21.9480    3.7160   22.9850 C.2   177  HIS177      0.2264
    127  O         22.8020    2.9530   22.5250 O.2   177  HIS177     -0.2867
    128  CB        19.4840    3.0870   22.4590 C.3   177  HIS177      0.0745
    129  CG        18.4460    2.0320   22.7600 C.ar  177  HIS177      0.0817
    130  ND1       17.2700    1.9290   22.0220 N.ar  177  HIS177     -0.2268
    131  CD2       18.4420    1.0620   23.7100 C.ar  177  HIS177      0.1154
    132  CE1       16.6070    0.9070   22.5350 C.ar  177  HIS177      0.1986
    133  NE2       17.2740    0.3610   23.5590 N.ar  177  HIS177     -0.2212
@<TRIPOS>BOND
     1     1     2    1
     2     4     3    2
     3     2     3    1
     4     2     5    1
     5   130   132   ar
     6   130   129   ar
     7   128   129    1
     8   128   125    1
     9   127   126    2
    10   132   133   ar
    11   129   131   ar
    12   126   125    1
    13     5     6    1
    14     6     7    1
    15     6     8    1
    16   125   124    1
    17   133   131   ar
    18   113   112    2
    19    23    22   ar
    20    23    21   ar
    21   117   118    2
    22   117   116    1
    23   114   111    1
    24   119   120    1
    25   119   116    1
    26    22    20   ar
    27    21    19   ar
    28   115   116    1
    29   112   111    1
    30   120   121    1
    31   111   110    1
    32     9    10    1
    33    20    18   ar
    34    19    18   ar
    35   121   123   am
    36   121   122    2
    37   110   108   am
    38    12    11    2
    39    18    17    1
    40    33    34    1
    41    10    11    1
    42   109   108    2
    43    11    13   am
    44   108   107    1
    45    39    37    1
    46   105   103   am
    47    17    14    1
    48    13    14    1
    49    34    37    1
    50    34    35    1
    51    37    38    1
    52   100    99    2
    53    14    15    1
    54   103   102    1
    55   103   104    2
    56    36    35    2
    57   107   106    1
    58   102   101    1
    59    84    82    1
    60    99    98    1
    61    82    81    1
    62    68    66   ar
    63    68    67   ar
    64    66    64   ar
    65    15    16    2
    66    15    24   am
    67   101    98    1
    68    98    97    1
    69    67    65   ar
    70    64    63   ar
    71    64    62   ar
    72    24    25    1
    73    63    61   ar
    74    77    78    1
    75    65    62   ar
    76    81    78    1
    77    81    83    1
    78    62    60   ar
    79    78    79    1
    80    27    26    2
    81    61    60   ar
    82    40    41    1
    83    76    75    1
    84    44    41    1
    85    60    59    1
    86    96    95    1
    87    25    26    1
    88    25    28    1
    89    94    95   ar
    90    94    92   ar
    91    41    42    1
    92    28    29    1
    93    59    56    1
    94    95    93   ar
    95    79    80    2
    96    54    53   ar
    97    54    52   ar
    98    29    30    1
    99    53    51   ar
   100    32    30   ar
   101    92    90   ar
   102    52    50   ar
   103    88    87    2
   104    75    74    1
   105    51    50   ar
   106    30    31   ar
   107    50    49    1
   108    74    73    1
   109    42    43    2
   110    87    86    1
   111    93    91   ar
   112    49    46    1
   113    56    55    1
   114    56    57    1
   115    90    91   ar
   116    90    89    1
   117    58    57    2
   118    57    69   am
   119    69    70    1
   120    73    70    1
   121    86    89    1
   122    86    85    1
   123    70    71    1
   124    46    45    1
   125    46    47    1
   126    47    48    2
   127    71    72    2
