@<TRIPOS>MOLECULE
tmp/3qedC00.pdb
 84 79 0 0 0
SMALL
GASTEIGER

@<TRIPOS>ATOM
      1  N          9.8140  109.8130   26.6930 N.3     5  GLU5       -0.1231
      2  CA        10.1820  108.3830   26.7340 C.3     5  GLU5        0.1699
      3  C         11.0190  107.9020   25.5590 C.2     5  GLU5        0.2592
      4  O         10.8380  108.3530   24.4400 O.2     5  GLU5       -0.2718
      5  CB         8.9360  107.5060   26.7730 C.3     5  GLU5        0.0402
      6  CG         8.3850  107.2670   28.1420 C.3     5  GLU5        0.1161
      7  CD         8.1890  105.7800   28.4360 C.2     5  GLU5        0.3649
      8  OE1        9.1230  104.9860   28.1470 O.co2   5  GLU5       -0.2457
      9  OE2        7.1110  105.4080   28.9640 O.co2   5  GLU5       -0.2457
     10  N         11.9380  106.9900   25.8390 N.am    6  ASN6       -0.1961
     11  CA        12.6190  106.2240   24.8260 C.3     6  ASN6        0.1804
     12  C         11.9100  104.8760   24.7530 C.2     6  ASN6        0.2463
     13  O         11.5590  104.3000   25.7900 O.2     6  ASN6       -0.2730
     14  CB        14.0680  106.0100   25.2180 C.3     6  ASN6        0.1195
     15  CG        14.9300  107.2330   24.9990 C.2     6  ASN6        0.2630
     16  OD1       14.7150  108.0180   24.0790 O.2     6  ASN6       -0.2716
     17  ND2       15.9470  107.3790   25.8320 N.am    6  ASN6       -0.0877
     18  N         11.6430  104.3740   23.5420 N.am    7  PRO7       -0.2727
     19  CA        11.9140  104.9600   22.2420 C.3     7  PRO7        0.1402
     20  C         10.9320  106.0890   21.9560 C.2     7  PRO7        0.2269
     21  O          9.7990  106.0660   22.4550 O.2     7  PRO7       -0.2865
     22  CB        11.6600  103.7990   21.2800 C.3     7  PRO7        0.0296
     23  CG        11.2470  102.6080   22.1440 C.3     7  PRO7        0.0237
     24  CD        10.8190  103.1590   23.4300 C.3     7  PRO7        0.0939
     25  N         26.5920   98.2260   24.5670 N.3   228  VAL228     -0.1231
     26  CA        25.7380   97.6550   23.5140 C.3   228  VAL228      0.1692
     27  C         24.2840   97.9900   23.8430 C.2   228  VAL228      0.2592
     28  O         23.8680   97.9100   25.0000 O.2   228  VAL228     -0.2718
     29  CB        25.9830   96.1290   23.2190 C.3   228  VAL228      0.0266
     30  CG1       27.4540   95.7890   23.3590 C.3   228  VAL228      0.0020
     31  CG2       25.1550   95.2240   24.0900 C.3   228  VAL228      0.0020
     32  N         23.5310   98.4190   22.8390 N.am  229  ALA229     -0.1966
     33  CA        22.1710   98.8790   23.0730 C.3   229  ALA229      0.1728
     34  C         21.2820   97.7050   23.4630 C.2   229  ALA229      0.2616
     35  O         21.6090   96.5520   23.1790 O.2   229  ALA229     -0.2715
     36  CB        21.6410   99.5710   21.8450 C.3   229  ALA229      0.0334
     37  N         20.1640   97.9960   24.1190 N.am  230  GLY230     -0.1955
     38  CA        19.2330   96.9570   24.5210 C.3   230  GLY230      0.1869
     39  C         18.5850   96.2660   23.3380 C.2   230  GLY230      0.2309
     40  O         17.9690   96.9150   22.4980 O.2   230  GLY230     -0.2863
     41  N         20.3020  107.5470   18.8050 N.3   250  TYR250     -0.1241
     42  CA        20.6660  106.1750   18.4890 C.3   250  TYR250      0.1605
     43  C         19.4410  105.3060   18.3630 C.2   250  TYR250      0.2264
     44  O         18.3190  105.7910   18.4390 O.2   250  TYR250     -0.2867
     45  CB        21.5740  105.6170   19.5800 C.3   250  TYR250      0.0534
     46  CG        20.9470  105.5860   20.9530 C.ar  250  TYR250     -0.0201
     47  CD1       20.4420  104.3900   21.4940 C.ar  250  TYR250     -0.0009
     48  CD2       20.8540  106.7560   21.7270 C.ar  250  TYR250     -0.0009
     49  CE1       19.8620  104.3700   22.7770 C.ar  250  TYR250      0.0417
     50  CE2       20.2730  106.7460   23.0060 C.ar  250  TYR250      0.0417
     51  CZ        19.7830  105.5570   23.5200 C.ar  250  TYR250      0.1957
     52  OH        19.2160  105.5690   24.7700 O.3   250  TYR250     -0.2866
     53  N         17.5870  101.2240   19.4070 N.3   252  THR252     -0.1218
     54  CA        17.6000  100.0130   20.2330 C.3   252  THR252      0.1862
     55  C         16.5990   98.9880   19.7460 C.2   252  THR252      0.2287
     56  O         15.7490   99.2940   18.9080 O.2   252  THR252     -0.2866
     57  CB        17.1840  100.2780   21.6960 C.3   252  THR252      0.1770
     58  OG1       15.7510  100.4440   21.7770 O.3   252  THR252     -0.2211
     59  CG2       17.9190  101.4790   22.2830 C.3   252  THR252      0.0375
     60  N         14.3040   97.7820   21.7470 N.3   254  ALA254     -0.1245
     61  CA        13.3280   97.7580   22.8460 C.3   254  ALA254      0.1562
     62  C         11.8690   98.0950   22.4980 C.2   254  ALA254      0.2260
     63  O         11.0220   98.1170   23.3830 O.2   254  ALA254     -0.2867
     64  CB        13.7950   98.6300   23.9670 C.3   254  ALA254      0.0290
     65  N         16.1110  106.1480   19.8050 N.3   267  SER267     -0.1217
     66  CA        16.0600  106.6900   21.1660 C.3   267  SER267      0.1889
     67  C         17.0110  107.8920   21.2830 C.2   267  SER267      0.2288
     68  O         18.0110  107.9760   20.5450 O.2   267  SER267     -0.2866
     69  CB        16.4590  105.6120   22.1750 C.3   267  SER267      0.2089
     70  OG        15.4870  104.5730   22.2300 O.3   267  SER267     -0.2183
     71  N         18.5840  105.5620   28.7700 N.3   284  THR284     -0.1203
     72  CA        17.4970  105.6250   29.7430 C.3   284  THR284      0.1994
     73  C         16.1400  105.3490   29.1310 C.2   284  THR284      0.2618
     74  O         15.8840  105.6610   27.9830 O.2   284  THR284     -0.2717
     75  CB        17.4510  107.0000   30.4600 C.3   284  THR284      0.1784
     76  OG1       17.0950  108.0360   29.5340 O.3   284  THR284     -0.2211
     77  CG2       18.7950  107.3250   31.0750 C.3   284  THR284      0.0376
     78  N         15.2690  104.7450   29.9110 N.am  285  THR285     -0.1952
     79  CA        13.8800  104.6880   29.5450 C.3   285  THR285      0.1897
     80  C         13.2910  106.0770   29.4940 C.2   285  THR285      0.2313
     81  O         12.6420  106.4140   28.5130 O.2   285  THR285     -0.2863
     82  CB        13.1040  103.8700   30.5280 C.3   285  THR285      0.1794
     83  OG1       13.5760  102.5290   30.4460 O.3   285  THR285     -0.2208
     84  CG2       11.6250  103.9230   30.2190 C.3   285  THR285      0.0378
@<TRIPOS>BOND
     1    43    44    2
     2    43    42    1
     3    42    41    1
     4    42    45    1
     5    56    55    2
     6    53    54    1
     7    45    46    1
     8    55    54    1
     9    65    66    1
    10    54    57    1
    11    68    67    2
    12    46    47   ar
    13    46    48   ar
    14    66    67    1
    15    66    69    1
    16    22    23    1
    17    22    19    1
    18    47    49   ar
    19    57    58    1
    20    57    59    1
    21    48    50   ar
    22    60    61    1
    23    36    33    1
    24    20    19    1
    25    20    21    2
    26    23    24    1
    27    69    70    1
    28    19    18    1
    29    62    61    1
    30    62    63    2
    31    40    39    2
    32    49    51   ar
    33    32    33    1
    34    32    27   am
    35    61    64    1
    36    50    51   ar
    37    33    34    1
    38    35    34    2
    39    29    30    1
    40    29    26    1
    41    29    31    1
    42    39    38    1
    43    24    18    1
    44    34    37   am
    45    26    27    1
    46    26    25    1
    47    51    52    1
    48    18    12   am
    49    27    28    2
    50    16    15    2
    51    37    38    1
    52     4     3    2
    53    12    11    1
    54    12    13    2
    55    11    14    1
    56    11    10    1
    57    15    14    1
    58    15    17   am
    59     3    10   am
    60     3     2    1
    61     1     2    1
    62     2     5    1
    63     5     6    1
    64    74    73    2
    65     6     7    1
    66     8     7   ar
    67     7     9   ar
    68    81    80    2
    69    71    72    1
    70    73    72    1
    71    73    78   am
    72    80    79    1
    73    76    75    1
    74    79    78    1
    75    79    82    1
    76    72    75    1
    77    84    82    1
    78    83    82    1
    79    75    77    1
