@<TRIPOS>MOLECULE
tmp/3qefA00.pdb
 146 143 0 0 0
SMALL
GASTEIGER

@<TRIPOS>ATOM
      1  N        -19.7120   18.5400  -32.9510 N.3    37  PHE37      -0.1227
      2  CA       -18.3830   19.0230  -33.3310 C.3    37  PHE37       0.1736
      3  C        -17.6180   19.5670  -32.1290 C.2    37  PHE37       0.2595
      4  O        -18.1860   19.7510  -31.0560 O.2    37  PHE37      -0.2718
      5  CB       -18.5110   20.1080  -34.3950 C.3    37  PHE37       0.0547
      6  CG       -17.2620   20.3180  -35.2060 C.ar   37  PHE37      -0.0202
      7  CD1      -16.6890   19.2650  -35.9070 C.ar   37  PHE37      -0.0042
      8  CD2      -16.6740   21.5710  -35.2830 C.ar   37  PHE37      -0.0042
      9  CE1      -15.5500   19.4530  -36.6640 C.ar   37  PHE37      -0.0003
     10  CE2      -15.5280   21.7670  -36.0450 C.ar   37  PHE37      -0.0003
     11  CZ       -14.9700   20.7060  -36.7370 C.ar   37  PHE37      -0.0000
     12  N        -16.3280   19.8190  -32.3220 N.am   38  PHE38      -0.1976
     13  CA       -15.5000   20.4010  -31.2730 C.3    38  PHE38       0.1639
     14  C        -16.0820   21.7240  -30.8270 C.2    38  PHE38       0.2290
     15  O        -16.5050   22.5300  -31.6560 O.2    38  PHE38      -0.2864
     16  CB       -14.0890   20.6730  -31.8000 C.3    38  PHE38       0.0560
     17  CG       -13.4150   19.4700  -32.3750 C.ar   38  PHE38      -0.0200
     18  CD1      -12.8610   18.5100  -31.5440 C.ar   38  PHE38      -0.0042
     19  CD2      -13.3340   19.2970  -33.7490 C.ar   38  PHE38      -0.0042
     20  CE1      -12.2400   17.3880  -32.0790 C.ar   38  PHE38      -0.0003
     21  CE2      -12.7060   18.1820  -34.2840 C.ar   38  PHE38      -0.0003
     22  CZ       -12.1640   17.2300  -33.4400 C.ar   38  PHE38      -0.0000
     23  N         -7.9690   25.9610  -31.0560 N.3    74  TRP74      -0.1241
     24  CA        -7.4350   24.6790  -31.5080 C.3    74  TRP74       0.1605
     25  C         -5.9540   24.5140  -31.1690 C.2    74  TRP74       0.2264
     26  O         -5.4310   25.2300  -30.3150 O.2    74  TRP74      -0.2867
     27  CB        -7.7460   24.4550  -32.9830 C.3    74  TRP74       0.0550
     28  CG        -9.2080   24.1020  -33.2130 C.ar   74  TRP74       0.0003
     29  CD1      -10.2410   24.2420  -32.3270 C.ar   74  TRP74       0.0946
     30  CD2       -9.7730   23.5340  -34.4010 C.ar   74  TRP74       0.0152
     31  NE1      -11.4190   23.7920  -32.8990 N.ar   74  TRP74      -0.2442
     32  CE2      -11.1550   23.3650  -34.1730 C.ar   74  TRP74       0.0810
     33  CE3       -9.2420   23.1640  -35.6410 C.ar   74  TRP74       0.0012
     34  CZ2      -12.0110   22.8340  -35.1400 C.ar   74  TRP74       0.0191
     35  CZ3      -10.0930   22.6380  -36.6000 C.ar   74  TRP74       0.0001
     36  CH2      -11.4620   22.4810  -36.3420 C.ar   74  TRP74       0.0015
     37  N         -9.9170   30.0780  -35.6290 N.3    92  ARG92      -0.1245
     38  CA       -10.6710   30.4020  -36.8300 C.3    92  ARG92       0.1563
     39  C        -10.6230   31.9170  -37.0170 C.2    92  ARG92       0.2260
     40  O        -11.0040   32.6720  -36.1200 O.2    92  ARG92      -0.2867
     41  CB       -12.1170   29.9130  -36.7120 C.3    92  ARG92       0.0307
     42  CG       -12.8960   29.9430  -38.0200 C.3    92  ARG92       0.0489
     43  CD       -14.3510   29.5300  -37.8160 C.3    92  ARG92       0.2205
     44  NE       -14.4870   28.1640  -37.3130 N.pl3  92  ARG92      -0.0865
     45  CZ       -14.7340   27.1020  -38.0740 C.cat  92  ARG92       0.5346
     46  NH1      -14.8430   25.8990  -37.5250 N.pl3  92  ARG92       0.1354
     47  NH2      -14.8790   27.2400  -39.3840 N.pl3  92  ARG92       0.1354
     48  N         -9.0600   28.8200  -41.1320 N.3   100  PHE100     -0.1241
     49  CA        -8.2090   28.7790  -39.9580 C.3   100  PHE100      0.1605
     50  C         -6.9040   29.5320  -40.1800 C.2   100  PHE100      0.2264
     51  O         -6.4490   29.7190  -41.3160 O.2   100  PHE100     -0.2867
     52  CB        -7.9620   27.3370  -39.5050 C.3   100  PHE100      0.0534
     53  CG        -9.1130   26.7700  -38.7320 C.ar  100  PHE100     -0.0203
     54  CD1       -9.1890   26.9460  -37.3660 C.ar  100  PHE100     -0.0042
     55  CD2      -10.1480   26.1250  -39.3770 C.ar  100  PHE100     -0.0042
     56  CE1      -10.2620   26.4600  -36.6480 C.ar  100  PHE100     -0.0003
     57  CE2      -11.2240   25.6250  -38.6600 C.ar  100  PHE100     -0.0003
     58  CZ       -11.2810   25.7980  -37.2970 C.ar  100  PHE100     -0.0000
     59  N        -10.0140   24.8350  -46.0440 N.3   134  ASP134     -0.1225
     60  CA        -9.7570   26.0310  -45.2500 C.3   134  ASP134      0.1805
     61  C         -9.4110   25.7010  -43.8040 C.2   134  ASP134      0.2597
     62  O         -9.6050   26.5230  -42.9130 O.2   134  ASP134     -0.2718
     63  CB       -10.9170   27.0350  -45.3400 C.3   134  ASP134      0.1424
     64  CG       -12.1970   26.5210  -44.7040 C.2   134  ASP134      0.3668
     65  OD1      -12.2720   25.3240  -44.3480 O.co2 134  ASP134     -0.2456
     66  OD2      -13.1400   27.3290  -44.5650 O.co2 134  ASP134     -0.2456
     67  N         -8.8850   24.4990  -43.5780 N.am  135  TRP135     -0.1976
     68  CA        -8.3700   24.1370  -42.2590 C.3   135  TRP135      0.1640
     69  C         -6.9580   23.5390  -42.3530 C.2   135  TRP135      0.2290
     70  O         -6.5360   22.7890  -41.4780 O.2   135  TRP135     -0.2864
     71  CB        -9.3170   23.1690  -41.5400 C.3   135  TRP135      0.0576
     72  CG        -9.4950   21.8540  -42.2420 C.ar  135  TRP135      0.0006
     73  CD1       -8.7900   20.7010  -42.0310 C.ar  135  TRP135      0.0946
     74  CD2      -10.4570   21.5570  -43.2620 C.ar  135  TRP135      0.0152
     75  NE1       -9.2540   19.7000  -42.8680 N.ar  135  TRP135     -0.2442
     76  CE2      -10.2770   20.2040  -43.6290 C.ar  135  TRP135      0.0810
     77  CE3      -11.4520   22.3050  -43.9010 C.ar  135  TRP135      0.0012
     78  CZ2      -11.0520   19.5890  -44.6120 C.ar  135  TRP135      0.0191
     79  CZ3      -12.2190   21.6910  -44.8810 C.ar  135  TRP135      0.0001
     80  CH2      -12.0180   20.3460  -45.2210 C.ar  135  TRP135      0.0015
     81  N         -3.3670   24.9290  -39.4910 N.3   138  ILE138     -0.1245
     82  CA        -3.6130   24.6600  -38.0910 C.3   138  ILE138      0.1561
     83  C         -2.4180   23.9150  -37.5320 C.2   138  ILE138      0.2260
     84  O         -1.5730   23.4260  -38.2900 O.2   138  ILE138     -0.2867
     85  CB        -4.8940   23.8020  -37.8810 C.3   138  ILE138      0.0252
     86  CG1       -4.7330   22.3990  -38.4720 C.3   138  ILE138      0.0019
     87  CG2       -6.1200   24.4970  -38.4720 C.3   138  ILE138      0.0019
     88  CD1       -5.9330   21.4680  -38.1460 C.3   138  ILE138      0.0001
     89  N         -2.3470   20.8170  -41.5750 N.3   156  ASN156     -0.1225
     90  CA        -3.2200   19.6630  -41.7170 C.3   156  ASN156      0.1785
     91  C         -3.2650   19.3660  -43.2250 C.2   156  ASN156      0.2597
     92  O         -3.5010   20.2640  -44.0300 O.2   156  ASN156     -0.2718
     93  CB        -4.6130   19.9880  -41.1940 C.3   156  ASN156      0.1169
     94  CG        -5.6060   18.8530  -41.4210 C.2   156  ASN156      0.2627
     95  OD1       -5.9570   18.5460  -42.5640 O.2   156  ASN156     -0.2716
     96  ND2       -6.0750   18.2460  -40.3420 N.am  156  ASN156     -0.0877
     97  N         -3.0290   18.1070  -43.5770 N.am  157  THR157     -0.1953
     98  CA        -2.9500   17.5980  -44.9510 C.3   157  THR157      0.1897
     99  C         -1.6920   18.0030  -45.7030 C.2   157  THR157      0.2313
    100  O         -1.1690   17.2210  -46.4860 O.2   157  THR157     -0.2863
    101  CB        -4.2230   17.8430  -45.8360 C.3   157  THR157      0.1794
    102  OG1       -4.2620   19.1900  -46.3090 O.3   157  THR157     -0.2208
    103  CG2       -5.4850   17.5270  -45.0820 C.3   157  THR157      0.0378
    104  N         -1.2950   13.6010  -41.6530 N.3   185  THR185     -0.1203
    105  CA        -2.5750   14.2530  -41.4160 C.3   185  THR185      0.1994
    106  C         -2.4470   15.6090  -40.7200 C.2   185  THR185      0.2617
    107  O         -2.9060   16.6210  -41.2540 O.2   185  THR185     -0.2717
    108  CB        -3.5230   13.3420  -40.6130 C.3   185  THR185      0.1784
    109  OG1       -3.6290   12.0910  -41.2920 O.3   185  THR185     -0.2211
    110  CG2       -4.9120   13.9600  -40.5280 C.3   185  THR185      0.0376
    111  N         -1.8350   15.6220  -39.5330 N.am  186  GLU186     -0.1979
    112  CA        -1.7060   16.8540  -38.7460 C.3   186  GLU186      0.1602
    113  C         -0.7780   16.6360  -37.5430 C.2   186  GLU186      0.2287
    114  O         -0.0360   15.6580  -37.4910 O.2   186  GLU186     -0.2864
    115  CB        -3.0940   17.3600  -38.2800 C.3   186  GLU186      0.0415
    116  CG        -3.8580   16.3660  -37.3910 C.3   186  GLU186      0.1163
    117  CD        -5.3120   16.7800  -37.1030 C.2   186  GLU186      0.3649
    118  OE1       -6.1030   15.9190  -36.6560 O.co2 186  GLU186     -0.2457
    119  OE2       -5.6680   17.9560  -37.3200 O.co2 186  GLU186     -0.2457
    120  N         -6.1460    8.2820  -40.9310 N.3   205  PHE205     -0.1241
    121  CA        -7.3410    8.6380  -40.1840 C.3   205  PHE205      0.1605
    122  C         -8.3120    7.4700  -40.1920 C.2   205  PHE205      0.2264
    123  O         -8.6330    6.9640  -41.2540 O.2   205  PHE205     -0.2867
    124  CB        -8.0410    9.8620  -40.7830 C.3   205  PHE205      0.0534
    125  CG        -9.0570   10.4690  -39.8600 C.ar  205  PHE205     -0.0203
    126  CD1       -8.7120   11.5360  -39.0470 C.ar  205  PHE205     -0.0042
    127  CD2      -10.3430    9.9510  -39.7690 C.ar  205  PHE205     -0.0042
    128  CE1       -9.6310   12.0990  -38.1710 C.ar  205  PHE205     -0.0003
    129  CE2      -11.2730   10.5070  -38.8830 C.ar  205  PHE205     -0.0003
    130  CZ       -10.9110   11.5810  -38.0840 C.ar  205  PHE205     -0.0000
    131  N         -6.4860    8.4510  -36.5910 N.3   207  GLU207     -0.1245
    132  CA        -5.0660    8.7910  -36.5610 C.3   207  GLU207      0.1567
    133  C         -4.1920    7.9140  -35.6770 C.2   207  GLU207      0.2260
    134  O         -4.5290    7.6300  -34.5220 O.2   207  GLU207     -0.2867
    135  CB        -4.8990   10.2540  -36.1340 C.3   207  GLU207      0.0388
    136  CG        -5.6390   11.2020  -37.0570 C.3   207  GLU207      0.1160
    137  CD        -5.5880   12.6420  -36.6070 C.2   207  GLU207      0.3649
    138  OE1       -5.8850   13.5270  -37.4430 O.co2 207  GLU207     -0.2457
    139  OE2       -5.2660   12.8960  -35.4220 O.co2 207  GLU207     -0.2457
    140  N         -8.7300   11.3580  -33.2460 N.3   236  THR236     -0.1218
    141  CA        -7.5710   12.2500  -33.2890 C.3   236  THR236      0.1862
    142  C         -6.5350   11.8270  -32.2540 C.2   236  THR236      0.2287
    143  O         -6.8680   11.4340  -31.1320 O.2   236  THR236     -0.2866
    144  CB        -7.9250   13.7330  -33.0830 C.3   236  THR236      0.1770
    145  OG1       -8.6140   13.8860  -31.8410 O.3   236  THR236     -0.2211
    146  CG2       -8.7980   14.2420  -34.2370 C.3   236  THR236      0.0375
@<TRIPOS>BOND
     1   100    99    2
     2   102   101    1
     3    59    60    1
     4   101   103    1
     5   101    98    1
     6    99    98    1
     7    63    60    1
     8    63    64    1
     9    60    61    1
    10    80    79   ar
    11    80    78   ar
    12    98    97    1
    13    79    77   ar
    14    64    66   ar
    15    64    65   ar
    16    78    76   ar
    17    92    91    2
    18    77    74   ar
    19    61    67   am
    20    61    62    2
    21    76    74   ar
    22    76    75   ar
    23    67    68    1
    24    97    91   am
    25    74    72   ar
    26    91    90    1
    27    75    73   ar
    28    95    94    2
    29    69    68    1
    30    69    70    2
    31    68    71    1
    32    72    73   ar
    33    72    71    1
    34    90    89    1
    35    90    93    1
    36   104   105    1
    37    94    93    1
    38    94    96   am
    39   105   106    1
    40   105   108    1
    41    51    50    2
    42   109   108    1
    43   107   106    2
    44   123   122    2
    45    48    49    1
    46   120   121    1
    47   124   121    1
    48   124   125    1
    49   106   111   am
    50   108   110    1
    51   122   121    1
    52    50    49    1
    53    49    52    1
    54   125   127   ar
    55   125   126   ar
    56   127   129   ar
    57   111   112    1
    58    52    53    1
    59    81    82    1
    60    47    45    1
    61    55    53   ar
    62    55    57   ar
    63   126   128   ar
    64   129   130   ar
    65   112   115    1
    66   112   113    1
    67    53    54   ar
    68    57    58   ar
    69    86    88    1
    70    86    85    1
    71    87    85    1
    72    84    83    2
    73   115   116    1
    74   128   130   ar
    75    82    85    1
    76    82    83    1
    77    45    46    1
    78    45    44    2
    79    42    43    1
    80    42    41    1
    81    43    44    1
    82   113   114    2
    83   138   137   ar
    84   116   117    1
    85    54    56   ar
    86   119   117   ar
    87    58    56   ar
    88   117   118   ar
    89   136   137    1
    90   136   135    1
    91    39    38    1
    92    39    40    2
    93    38    41    1
    94    38    37    1
    95    11     9   ar
    96    11    10   ar
    97     9     7   ar
    98   137   139   ar
    99    35    36   ar
   100    35    33   ar
   101   131   132    1
   102   132   135    1
   103   132   133    1
   104    36    34   ar
   105    10     8   ar
   106     7     6   ar
   107   133   134    2
   108    33    30   ar
   109     8     6   ar
   110     6     5    1
   111    34    32   ar
   112    30    32   ar
   113    30    28   ar
   114     5     2    1
   115    21    19   ar
   116    21    22   ar
   117   146   144    1
   118    32    31   ar
   119    19    17   ar
   120    22    20   ar
   121     2     1    1
   122     2     3    1
   123   141   140    1
   124   141   144    1
   125   141   142    1
   126    28    27    1
   127    28    29   ar
   128   144   145    1
   129    27    24    1
   130    31    29   ar
   131    17    16    1
   132    17    18   ar
   133    12     3   am
   134    12    13    1
   135   142   143    2
   136     3     4    2
   137    20    18   ar
   138    16    13    1
   139    15    14    2
   140    24    25    1
   141    24    23    1
   142    13    14    1
   143    25    26    2
