@<TRIPOS>MOLECULE
tmp/3qefB00.pdb
 185 181 0 0 0
SMALL
GASTEIGER

@<TRIPOS>ATOM
      1  N        -26.5080    5.6680  -34.4830 N.3    38  PHE38      -0.1227
      2  CA       -26.5670    4.4720  -33.6450 C.3    38  PHE38       0.1736
      3  C        -26.1730    3.2510  -34.4550 C.2    38  PHE38       0.2595
      4  O        -26.0600    3.3270  -35.6710 O.2    38  PHE38      -0.2718
      5  CB       -27.9740    4.2740  -33.0900 C.3    38  PHE38       0.0547
      6  CG       -28.0320    3.4000  -31.8620 C.ar   38  PHE38      -0.0202
      7  CD1      -27.3440    3.7500  -30.7070 C.ar   38  PHE38      -0.0042
      8  CD2      -28.7980    2.2430  -31.8550 C.ar   38  PHE38      -0.0042
      9  CE1      -27.4050    2.9540  -29.5740 C.ar   38  PHE38      -0.0003
     10  CE2      -28.8690    1.4450  -30.7230 C.ar   38  PHE38      -0.0003
     11  CZ       -28.1720    1.7930  -29.5850 C.ar   38  PHE38      -0.0000
     12  N        -25.9740    2.1260  -33.7760 N.am   39  PHE39      -0.1976
     13  CA       -25.6500    0.8800  -34.4660 C.3    39  PHE39       0.1639
     14  C        -26.7560    0.5070  -35.4240 C.2    39  PHE39       0.2290
     15  O        -27.9380    0.6090  -35.0910 O.2    39  PHE39      -0.2864
     16  CB       -25.5110   -0.2670  -33.4700 C.3    39  PHE39       0.0560
     17  CG       -24.5970    0.0280  -32.3360 C.ar   39  PHE39      -0.0200
     18  CD1      -23.2290   -0.0500  -32.5070 C.ar   39  PHE39      -0.0042
     19  CD2      -25.1030    0.3740  -31.0920 C.ar   39  PHE39      -0.0042
     20  CE1      -22.3700    0.2140  -31.4560 C.ar   39  PHE39      -0.0003
     21  CE2      -24.2420    0.6440  -30.0330 C.ar   39  PHE39      -0.0003
     22  CZ       -22.8750    0.5560  -30.2230 C.ar   39  PHE39      -0.0000
     23  N        -27.1810   -8.2230  -32.7630 N.3    75  TRP75      -0.1241
     24  CA       -26.1490   -7.8340  -31.7950 C.3    75  TRP75       0.1605
     25  C        -25.3080   -9.0260  -31.3070 C.2    75  TRP75       0.2264
     26  O        -25.2640  -10.0500  -31.9730 O.2    75  TRP75      -0.2867
     27  CB       -26.7660   -7.0520  -30.6390 C.3    75  TRP75       0.0550
     28  CG       -27.1820   -5.6480  -31.0280 C.ar   75  TRP75       0.0003
     29  CD1      -27.2890   -5.1270  -32.2940 C.ar   75  TRP75       0.0946
     30  CD2      -27.5140   -4.5880  -30.1300 C.ar   75  TRP75       0.0152
     31  NE1      -27.6800   -3.8030  -32.2290 N.ar   75  TRP75      -0.2442
     32  CE2      -27.8270   -3.4540  -30.9110 C.ar   75  TRP75       0.0810
     33  CE3      -27.5880   -4.4920  -28.7340 C.ar   75  TRP75       0.0012
     34  CZ2      -28.2150   -2.2360  -30.3400 C.ar   75  TRP75       0.0191
     35  CZ3      -27.9600   -3.2840  -28.1710 C.ar   75  TRP75       0.0001
     36  CH2      -28.2650   -2.1690  -28.9750 C.ar   75  TRP75       0.0015
     37  N        -33.3270   -7.7430  -31.0180 N.3    93  ARG93      -0.1245
     38  CA       -34.4570   -7.0130  -30.4610 C.3    93  ARG93       0.1563
     39  C        -35.7180   -7.8420  -30.6950 C.2    93  ARG93       0.2260
     40  O        -36.0210   -8.2120  -31.8260 O.2    93  ARG93      -0.2867
     41  CB       -34.5990   -5.6370  -31.1140 C.3    93  ARG93       0.0307
     42  CG       -35.5840   -4.7180  -30.3910 C.3    93  ARG93       0.0489
     43  CD       -35.8600   -3.4320  -31.1630 C.3    93  ARG93       0.2205
     44  NE       -34.6770   -2.5910  -31.3320 N.pl3  93  ARG93      -0.0865
     45  CZ       -34.2120   -1.7480  -30.4140 C.cat  93  ARG93       0.5346
     46  NH1      -34.8210   -1.6320  -29.2430 N.pl3  93  ARG93       0.1354
     47  NH2      -33.1290   -1.0250  -30.6650 N.pl3  93  ARG93       0.1354
     48  N        -34.6840   -6.3180  -25.5330 N.3   101  PHE101     -0.1241
     49  CA       -33.7380   -7.2510  -26.1450 C.3   101  PHE101      0.1605
     50  C        -33.9140   -8.6480  -25.5920 C.2   101  PHE101      0.2264
     51  O        -34.4330   -8.8260  -24.4890 O.2   101  PHE101     -0.2867
     52  CB       -32.3000   -6.7570  -25.9940 C.3   101  PHE101      0.0534
     53  CG       -31.9380   -5.7300  -27.0080 C.ar  101  PHE101     -0.0203
     54  CD1      -31.4840   -6.1170  -28.2480 C.ar  101  PHE101     -0.0042
     55  CD2      -32.1210   -4.3780  -26.7480 C.ar  101  PHE101     -0.0042
     56  CE1      -31.1730   -5.1740  -29.2200 C.ar  101  PHE101     -0.0003
     57  CE2      -31.8230   -3.4290  -27.7080 C.ar  101  PHE101     -0.0003
     58  CZ       -31.3450   -3.8300  -28.9530 C.ar  101  PHE101     -0.0000
     59  N        -34.2460   -1.4390  -17.2040 N.3   134  ILE134     -0.1245
     60  CA       -33.7810   -1.2560  -18.5780 C.3   134  ILE134      0.1561
     61  C        -34.2440   -2.4190  -19.4460 C.2   134  ILE134      0.2260
     62  O        -34.5520   -3.5000  -18.9420 O.2   134  ILE134     -0.2867
     63  CB       -32.2440   -1.0870  -18.6910 C.3   134  ILE134      0.0252
     64  CG1      -31.5200   -2.3810  -18.3000 C.3   134  ILE134      0.0019
     65  CG2      -31.7630    0.0870  -17.8330 C.3   134  ILE134      0.0019
     66  CD1      -29.9940   -2.3000  -18.4570 C.3   134  ILE134      0.0001
     67  N        -32.4360   -3.4890  -22.1670 N.3   136  TRP136     -0.1241
     68  CA       -31.3060   -3.9990  -22.9330 C.3   136  TRP136      0.1605
     69  C        -30.3660   -4.8000  -22.0350 C.2   136  TRP136      0.2264
     70  O        -29.2080   -5.0150  -22.3770 O.2   136  TRP136     -0.2867
     71  CB       -30.5560   -2.8660  -23.6490 C.3   136  TRP136      0.0550
     72  CG       -29.9240   -1.8400  -22.7420 C.ar  136  TRP136      0.0003
     73  CD1      -28.6480   -1.8510  -22.2470 C.ar  136  TRP136      0.0946
     74  CD2      -30.5350   -0.6380  -22.2490 C.ar  136  TRP136      0.0152
     75  NE1      -28.4330   -0.7340  -21.4600 N.ar  136  TRP136     -0.2442
     76  CE2      -29.5770    0.0230  -21.4490 C.ar  136  TRP136      0.0810
     77  CE3      -31.8020   -0.0590  -22.4060 C.ar  136  TRP136      0.0012
     78  CZ2      -29.8490    1.2350  -20.8060 C.ar  136  TRP136      0.0191
     79  CZ3      -32.0700    1.1400  -21.7670 C.ar  136  TRP136      0.0001
     80  CH2      -31.0960    1.7770  -20.9780 C.ar  136  TRP136      0.0015
     81  N        -28.6200   -9.1150  -23.1290 N.3   139  ILE139     -0.1245
     82  CA       -27.8310   -9.1510  -24.3410 C.3   139  ILE139      0.1561
     83  C        -26.5240   -9.8680  -24.0600 C.2   139  ILE139      0.2260
     84  O        -26.1600  -10.0940  -22.9010 O.2   139  ILE139     -0.2867
     85  CB       -27.5320   -7.7270  -24.8900 C.3   139  ILE139      0.0252
     86  CG1      -26.5810   -6.9530  -23.9640 C.3   139  ILE139      0.0019
     87  CG2      -28.8320   -6.9520  -25.1510 C.3   139  ILE139      0.0019
     88  CD1      -26.2410   -5.5550  -24.5040 C.3   139  ILE139      0.0001
     89  N        -26.0510   -7.1190  -19.8210 N.3   157  ASN157     -0.1225
     90  CA       -25.5070   -5.7820  -19.7660 C.3   157  ASN157      0.1785
     91  C        -25.9880   -5.2100  -18.4300 C.2   157  ASN157      0.2597
     92  O        -27.1650   -5.3600  -18.0710 O.2   157  ASN157     -0.2718
     93  CB       -26.0160   -4.9620  -20.9550 C.3   157  ASN157      0.1169
     94  CG       -25.6300   -3.5030  -20.8740 C.2   157  ASN157      0.2627
     95  OD1      -26.0650   -2.7940  -19.9690 O.2   157  ASN157     -0.2716
     96  ND2      -24.8570   -3.0290  -21.8480 N.am  157  ASN157     -0.0877
     97  N        -25.0680   -4.6010  -17.6900 N.am  158  THR158     -0.1953
     98  CA       -25.3410   -4.0030  -16.3820 C.3   158  THR158      0.1897
     99  C        -25.5000   -5.0290  -15.2550 C.2   158  THR158      0.2313
    100  O        -24.9540   -4.8590  -14.1630 O.2   158  THR158     -0.2863
    101  CB       -26.5720   -3.0730  -16.4390 C.3   158  THR158      0.1794
    102  OG1      -26.3480   -2.0480  -17.4180 O.3   158  THR158     -0.2208
    103  CG2      -26.8240   -2.4420  -15.0860 C.3   158  THR158      0.0378
    104  N        -20.0680   -3.9620  -17.2530 N.3   186  THR186     -0.1203
    105  CA       -20.9210   -3.3510  -18.2700 C.3   186  THR186      0.1994
    106  C        -21.5940   -4.3760  -19.1810 C.2   186  THR186      0.2617
    107  O        -22.8220   -4.4000  -19.2910 O.2   186  THR186     -0.2717
    108  CB       -20.1400   -2.3420  -19.1330 C.3   186  THR186      0.1784
    109  OG1      -19.4870   -1.3880  -18.2770 O.3   186  THR186     -0.2211
    110  CG2      -21.0820   -1.6290  -20.0900 C.3   186  THR186      0.0376
    111  N        -20.7990   -5.2180  -19.8410 N.am  187  GLU187     -0.1979
    112  CA       -21.3420   -6.1940  -20.7850 C.3   187  GLU187      0.1602
    113  C        -20.2370   -7.1440  -21.2770 C.2   187  GLU187      0.2287
    114  O        -19.1730   -7.2220  -20.6740 O.2   187  GLU187     -0.2864
    115  CB       -22.0220   -5.4900  -21.9750 C.3   187  GLU187      0.0415
    116  CG       -21.0950   -4.5140  -22.7320 C.3   187  GLU187      0.1163
    117  CD       -21.7980   -3.6790  -23.8120 C.2   187  GLU187      0.3649
    118  OE1      -21.1650   -2.7380  -24.3600 O.co2 187  GLU187     -0.2457
    119  OE2      -22.9690   -3.9550  -24.1330 O.co2 187  GLU187     -0.2457
    120  N        -17.1560    2.5630  -18.6600 N.3   206  PHE206     -0.1241
    121  CA       -17.5210    3.1740  -19.9420 C.3   206  PHE206      0.1605
    122  C        -16.9370    4.5760  -20.0250 C.2   206  PHE206      0.2264
    123  O        -17.1470    5.3830  -19.1170 O.2   206  PHE206     -0.2867
    124  CB       -19.0420    3.2280  -20.1410 C.3   206  PHE206      0.0534
    125  CG       -19.4500    3.4860  -21.5690 C.ar  206  PHE206     -0.0203
    126  CD1      -19.7330    2.4310  -22.4250 C.ar  206  PHE206     -0.0042
    127  CD2      -19.5130    4.7870  -22.0630 C.ar  206  PHE206     -0.0042
    128  CE1      -20.0890    2.6730  -23.7450 C.ar  206  PHE206     -0.0003
    129  CE2      -19.8710    5.0350  -23.3820 C.ar  206  PHE206     -0.0003
    130  CZ       -20.1610    3.9770  -24.2200 C.ar  206  PHE206     -0.0000
    131  N        -15.3810    1.6390  -22.4830 N.3   208  GLU208     -0.1245
    132  CA       -15.1100    0.3090  -21.9720 C.3   208  GLU208      0.1567
    133  C        -13.6780   -0.1450  -22.0540 C.2   208  GLU208      0.2260
    134  O        -13.0460   -0.0740  -23.1080 O.2   208  GLU208     -0.2867
    135  CB       -15.9900   -0.7120  -22.7120 C.3   208  GLU208      0.0388
    136  CG       -17.4720   -0.4110  -22.5400 C.3   208  GLU208      0.1160
    137  CD       -18.3710   -1.3670  -23.3000 C.2   208  GLU208      0.3649
    138  OE1      -17.8890   -2.1040  -24.1830 O.co2 208  GLU208     -0.2457
    139  OE2      -19.5830   -1.3610  -23.0210 O.co2 208  GLU208     -0.2457
    140  N        -15.7470    3.2510  -28.0410 N.3   236  PRO236     -0.2102
    141  CA       -16.0820    3.1940  -26.6200 C.3   236  PRO236      0.1504
    142  C        -16.6080    1.8160  -26.2220 C.2   236  PRO236      0.2576
    143  O        -16.7580    1.5650  -25.0260 O.2   236  PRO236     -0.2718
    144  CB       -17.1800    4.2500  -26.4880 C.3   236  PRO236      0.0282
    145  CG       -17.9010    4.1910  -27.8200 C.3   236  PRO236      0.0208
    146  CD       -16.8040    3.8910  -28.8460 C.3   236  PRO236      0.0893
    147  N        -16.8890    0.9490  -27.1930 N.am  237  THR237     -0.1953
    148  CA       -17.2190   -0.4320  -26.8680 C.3   237  THR237      0.1897
    149  C        -16.0000   -1.3120  -27.1240 C.2   237  THR237      0.2313
    150  O        -15.2870   -1.1420  -28.1210 O.2   237  THR237     -0.2863
    151  CB       -18.4580   -0.9870  -27.6320 C.3   237  THR237      0.1794
    152  OG1      -18.2560   -0.8810  -29.0450 O.3   237  THR237     -0.2208
    153  CG2      -19.7160   -0.2050  -27.2460 C.3   237  THR237      0.0378
    154  N        -17.3610    4.5490  -33.4730 N.3   264  GLN264     -0.1231
    155  CA       -18.1730    3.7970  -32.5190 C.3   264  GLN264      0.1698
    156  C        -19.2740    2.9470  -33.1530 C.2   264  GLN264      0.2592
    157  O        -19.6590    1.9420  -32.5720 O.2   264  GLN264     -0.2718
    158  CB       -18.7530    4.7220  -31.4340 C.3   264  GLN264      0.0381
    159  CG       -19.7240    5.7560  -31.9480 C.3   264  GLN264      0.0905
    160  CD       -20.3940    6.5180  -30.8120 C.2   264  GLN264      0.2608
    161  OE1      -20.5090    6.0130  -29.6890 O.2   264  GLN264     -0.2717
    162  NE2      -20.8470    7.7330  -31.1030 N.am  264  GLN264     -0.0878
    163  N        -19.7810    3.3440  -34.3220 N.am  265  TYR265     -0.1976
    164  CA       -20.8400    2.5630  -34.9810 C.3   265  TYR265      0.1639
    165  C        -20.3680    1.8940  -36.2530 C.2   265  TYR265      0.2290
    166  O        -21.1740    1.3180  -36.9830 O.2   265  TYR265     -0.2864
    167  CB       -22.0760    3.4270  -35.2820 C.3   265  TYR265      0.0560
    168  CG       -22.6190    4.1020  -34.0470 C.ar  265  TYR265     -0.0198
    169  CD1      -22.8230    3.3840  -32.8750 C.ar  265  TYR265     -0.0009
    170  CD2      -22.9040    5.4610  -34.0440 C.ar  265  TYR265     -0.0009
    171  CE1      -23.2970    4.0090  -31.7200 C.ar  265  TYR265      0.0417
    172  CE2      -23.3770    6.0920  -32.9000 C.ar  265  TYR265      0.0417
    173  CZ       -23.5750    5.3640  -31.7450 C.ar  265  TYR265      0.1957
    174  OH       -24.0450    5.9870  -30.6030 O.3   265  TYR265     -0.2866
    175  N        -17.2300   -0.3710  -36.7420 N.3   267  ARG267     -0.1245
    176  CA       -16.1140   -1.0300  -36.0810 C.3   267  ARG267      0.1563
    177  C        -15.4430   -2.0780  -36.9650 C.2   267  ARG267      0.2260
    178  O        -15.9450   -2.4190  -38.0340 O.2   267  ARG267     -0.2867
    179  CB       -16.6210   -1.6490  -34.7710 C.3   267  ARG267      0.0307
    180  CG       -17.1570   -0.5660  -33.8030 C.3   267  ARG267      0.0489
    181  CD       -18.0760   -1.1220  -32.7280 C.3   267  ARG267      0.2205
    182  NE       -19.3240   -1.6280  -33.3140 N.pl3 267  ARG267     -0.0865
    183  CZ       -20.2850   -2.2360  -32.6230 C.cat 267  ARG267      0.5346
    184  NH1      -20.1610   -2.4030  -31.3120 N.pl3 267  ARG267      0.1354
    185  NH2      -21.3720   -2.6730  -33.2440 N.pl3 267  ARG267      0.1354
@<TRIPOS>BOND
     1   178   177    2
     2   166   165    2
     3   177   176    1
     4   175   176    1
     5   165   164    1
     6   176   179    1
     7     4     3    2
     8    14    15    2
     9    14    13    1
    10   167   164    1
    11   167   168    1
    12   164   163    1
    13   179   180    1
    14     1     2    1
    15    13    12    1
    16    13    16    1
    17     3    12   am
    18     3     2    1
    19   163   156   am
    20   168   170   ar
    21   168   169   ar
    22   170   172   ar
    23   180   181    1
    24     2     5    1
    25   154   155    1
    26    16    17    1
    27   182   181    1
    28   182   183    2
    29   185   183    1
    30   156   157    2
    31   156   155    1
    32     5     6    1
    33   172   173   ar
    34   169   171   ar
    35    23    24    1
    36   183   184    1
    37   155   158    1
    38    18    17   ar
    39    18    20   ar
    40    17    19   ar
    41    29    31   ar
    42    29    28   ar
    43    31    32   ar
    44    26    25    2
    45   159   158    1
    46   159   160    1
    47     6     8   ar
    48     6     7   ar
    49     8    10   ar
    50    40    39    2
    51    24    25    1
    52    24    27    1
    53   173   171   ar
    54   173   174    1
    55    20    22   ar
    56    44    43    1
    57    44    45    2
    58    43    42    1
    59    41    38    1
    60    41    42    1
    61   162   160   am
    62    19    21   ar
    63    28    27    1
    64    28    30   ar
    65    37    38    1
    66    32    34   ar
    67    32    30   ar
    68   160   161    2
    69    10    11   ar
    70     7     9   ar
    71    39    38    1
    72    47    45    1
    73    45    46    1
    74    34    36   ar
    75    22    21   ar
    76    30    33   ar
    77    11     9   ar
    78    56    58   ar
    79    56    54   ar
    80   152   151    1
    81    36    35   ar
    82    58    57   ar
    83   146   140    1
    84   146   145    1
    85    33    35   ar
    86    54    53   ar
    87   150   149    2
    88   140   141    1
    89   145   144    1
    90    57    55   ar
    91   151   153    1
    92   151   148    1
    93   147   148    1
    94   147   142   am
    95   149   148    1
    96    53    55   ar
    97    53    52    1
    98   141   144    1
    99   141   142    1
   100   142   143    2
   101    49    52    1
   102    49    50    1
   103    49    48    1
   104    50    51    2
   105    87    85    1
   106    85    82    1
   107    85    86    1
   108    88    86    1
   109   118   117   ar
   110    82    83    1
   111    82    81    1
   112   130   128   ar
   113   130   129   ar
   114   138   137   ar
   115   119   117   ar
   116    83    84    2
   117   117   116    1
   118   128   126   ar
   119    71    68    1
   120    71    72    1
   121   129   127   ar
   122   137   139   ar
   123   137   136    1
   124   134   133    2
   125    68    67    1
   126    68    69    1
   127    72    74   ar
   128    72    73   ar
   129   116   115    1
   130   135   136    1
   131   135   132    1
   132   131   132    1
   133   126   125   ar
   134    77    74   ar
   135    77    79   ar
   136    70    69    2
   137    74    76   ar
   138    73    75   ar
   139   127   125   ar
   140   133   132    1
   141   115   112    1
   142    96    94   am
   143    79    80   ar
   144   125   124    1
   145    75    76   ar
   146    76    78   ar
   147   113   112    1
   148   113   114    2
   149    80    78   ar
   150    93    94    1
   151    93    90    1
   152    94    95    2
   153   112   111    1
   154   124   121    1
   155   110   108    1
   156   122   121    1
   157   122   123    2
   158   121   120    1
   159   111   106   am
   160    89    90    1
   161    90    91    1
   162    61    62    2
   163    61    60    1
   164   107   106    2
   165   106   105    1
   166   108   109    1
   167   108   105    1
   168    63    60    1
   169    63    64    1
   170    63    65    1
   171    60    59    1
   172    66    64    1
   173    91    92    2
   174    91    97   am
   175   105   104    1
   176    97    98    1
   177   102   101    1
   178   101    98    1
   179   101   103    1
   180    98    99    1
   181    99   100    2
