@<TRIPOS>MOLECULE
tmp/3qelA02.pdb
 88 84 0 0 0
SMALL
GASTEIGER

@<TRIPOS>ATOM
      1  N         78.5020   -4.6570  -36.1320 N.3    53  ALA53      -0.1245
      2  CA        79.5190   -4.3590  -35.1460 C.3    53  ALA53       0.1562
      3  C         79.8880   -5.6230  -34.3890 C.2    53  ALA53       0.2260
      4  O         81.0690   -5.9080  -34.1770 O.2    53  ALA53      -0.2867
      5  CB        79.0400   -3.2900  -34.1820 C.3    53  ALA53       0.0290
      6  N         79.4970    1.0520  -38.9250 N.3    79  PRO79      -0.2116
      7  CA        79.7100    0.1910  -37.7600 C.3    79  PRO79       0.1372
      8  C         81.0520   -0.5240  -37.8370 C.2    79  PRO79       0.2244
      9  O         81.6180   -0.8680  -36.8190 O.2    79  PRO79      -0.2868
     10  CB        78.5910   -0.8450  -37.8820 C.3    79  PRO79       0.0268
     11  CG        77.5530   -0.1880  -38.6870 C.3    79  PRO79       0.0207
     12  CD        78.2920    0.6720  -39.6730 C.3    79  PRO79       0.0892
     13  N         83.7280    2.3840  -36.8640 N.3    82  TYR82      -0.1227
     14  CA        83.6810    2.6310  -35.4290 C.3    82  TYR82       0.1736
     15  C         84.3350    1.5000  -34.5890 C.2    82  TYR82       0.2596
     16  O         85.1750    1.7570  -33.7180 O.2    82  TYR82      -0.2718
     17  CB        82.2410    2.8250  -34.9500 C.3    82  TYR82       0.0548
     18  CG        81.5760    4.1110  -35.3800 C.ar   82  TYR82      -0.0200
     19  CD1       82.2890    5.1090  -36.0390 C.ar   82  TYR82      -0.0009
     20  CD2       80.2150    4.3230  -35.1310 C.ar   82  TYR82      -0.0009
     21  CE1       81.6670    6.2880  -36.4360 C.ar   82  TYR82       0.0417
     22  CE2       79.5840    5.4860  -35.5240 C.ar   82  TYR82       0.0417
     23  CZ        80.3110    6.4680  -36.1690 C.ar   82  TYR82       0.1957
     24  OH        79.6690    7.6200  -36.5540 O.3    82  TYR82      -0.2866
     25  N         83.9390    0.2580  -34.8480 N.am   83  THR83      -0.1953
     26  CA        84.4040   -0.8560  -34.0680 C.3    83  THR83       0.1897
     27  C         85.8890   -1.0080  -34.2890 C.2    83  THR83       0.2313
     28  O         86.6380   -1.1750  -33.3530 O.2    83  THR83      -0.2863
     29  CB        83.7220   -2.1440  -34.4970 C.3    83  THR83       0.1794
     30  OG1       82.3060   -2.0090  -34.3080 O.3    83  THR83      -0.2208
     31  CG2       84.2230   -3.3010  -33.6730 C.3    83  THR83       0.0378
     32  N         87.9630    1.2390  -35.3960 N.3    85  GLY85      -0.1210
     33  CA        88.6330    2.4410  -34.9490 C.3    85  GLY85       0.1956
     34  C         88.7530    2.5160  -33.4390 C.2    85  GLY85       0.2611
     35  O         89.5890    3.2310  -32.9120 O.2    85  GLY85      -0.2717
     36  N         87.9020    1.7930  -32.7290 N.am   86  PHE86      -0.1976
     37  CA        88.0010    1.7520  -31.2840 C.3    86  PHE86       0.1639
     38  C         89.4150    1.2680  -30.9340 C.2    86  PHE86       0.2290
     39  O         90.0240    1.7650  -29.9950 O.2    86  PHE86      -0.2864
     40  CB        86.9260    0.8220  -30.7290 C.3    86  PHE86       0.0560
     41  CG        86.9710    0.6330  -29.2410 C.ar   86  PHE86      -0.0200
     42  CD1       86.1100    1.3380  -28.4140 C.ar   86  PHE86      -0.0042
     43  CD2       87.8540   -0.2850  -28.6640 C.ar   86  PHE86      -0.0042
     44  CE1       86.1320    1.1430  -27.0290 C.ar   86  PHE86      -0.0003
     45  CE2       87.8860   -0.4830  -27.2970 C.ar   86  PHE86      -0.0003
     46  CZ        87.0190    0.2350  -26.4740 C.ar   86  PHE86      -0.0000
     47  N         92.0420    1.1860  -33.3180 N.3    88  ARG88      -0.1245
     48  CA        92.9860    1.7360  -34.3130 C.3    88  ARG88       0.1563
     49  C         93.4830    0.6860  -35.2990 C.2    88  ARG88       0.2260
     50  O         94.6000    0.7620  -35.8060 O.2    88  ARG88      -0.2867
     51  CB        94.1750    2.4330  -33.6490 C.3    88  ARG88       0.0307
     52  CG        93.7800    3.3750  -32.5320 C.3    88  ARG88       0.0489
     53  CD        93.0740    4.6020  -33.0360 C.3    88  ARG88       0.2205
     54  NE        93.0660    5.6450  -32.0210 N.pl3  88  ARG88      -0.0865
     55  CZ        92.1140    5.8180  -31.0980 C.cat  88  ARG88       0.5346
     56  NH1       91.0490    5.0160  -31.0300 N.pl3  88  ARG88       0.1354
     57  NH2       92.2380    6.8120  -30.2240 N.pl3  88  ARG88       0.1354
     58  N         88.6440   12.5910  -40.3180 N.3   104  LYS104     -0.1231
     59  CA        89.4130   11.9440  -39.2280 C.3   104  LYS104      0.1693
     60  C         88.7740   11.9080  -37.8200 C.2   104  LYS104      0.2593
     61  O         89.0110   10.9580  -37.0830 O.2   104  LYS104     -0.2718
     62  CB        90.8320   12.5100  -39.1300 C.3   104  LYS104      0.0285
     63  CG        91.8100   11.9130  -40.1210 C.3   104  LYS104      0.0035
     64  CD        93.2370   12.3190  -39.7920 C.3   104  LYS104      0.0206
     65  CE        93.5740   13.6980  -40.3210 C.3   104  LYS104      0.1093
     66  NZ        93.7000   13.6550  -41.8110 N.3   104  LYS104     -0.1314
     67  N         87.9750   12.9080  -37.4400 N.am  105  SER105     -0.1938
     68  CA        87.2890   12.8600  -36.1360 C.3   105  SER105      0.2055
     69  C         86.3840   11.6430  -35.9720 C.2   105  SER105      0.2642
     70  O         86.2460   11.1040  -34.8700 O.2   105  SER105     -0.2714
     71  CB        86.4120   14.0880  -35.9000 C.3   105  SER105      0.2130
     72  OG        87.0980   15.2810  -36.1410 O.3   105  SER105     -0.2179
     73  N         85.7120   11.2490  -37.0470 N.am  106  ILE106     -0.1977
     74  CA        84.7400   10.1650  -36.9760 C.3   106  ILE106      0.1596
     75  C         85.3580    8.8670  -37.4720 C.2   106  ILE106      0.2287
     76  O         85.1750    7.8040  -36.8860 O.2   106  ILE106     -0.2864
     77  CB        83.5320   10.4750  -37.8580 C.3   106  ILE106      0.0276
     78  CG1       82.9390   11.8350  -37.5000 C.3   106  ILE106      0.0022
     79  CG2       82.4920    9.3840  -37.7460 C.3   106  ILE106      0.0022
     80  CD1       81.9930   12.3520  -38.5910 C.3   106  ILE106      0.0001
     81  N         88.7210    7.3330  -37.8720 N.3   108  LEU108     -0.1245
     82  CA        90.0810    7.5760  -37.4260 C.3   108  LEU108      0.1561
     83  C         91.1230    6.8480  -38.2410 C.2   108  LEU108      0.2260
     84  O         92.2000    7.3820  -38.4760 O.2   108  LEU108     -0.2867
     85  CB        90.2370    7.1980  -35.9530 C.3   108  LEU108      0.0270
     86  CG        90.5590    8.3590  -35.0140 C.3   108  LEU108      0.0019
     87  CD1       90.7670    7.8240  -33.6280 C.3   108  LEU108      0.0001
     88  CD2       91.7800    9.1630  -35.4660 C.3   108  LEU108      0.0001
@<TRIPOS>BOND
     1    66    65    1
     2    65    64    1
     3    58    59    1
     4    63    64    1
     5    63    62    1
     6    12     6    1
     7    12    11    1
     8    59    62    1
     9    59    60    1
    10     6     7    1
    11    11    10    1
    12    80    78    1
    13    84    83    2
    14    83    82    1
    15    10     7    1
    16    81    82    1
    17    77    79    1
    18    77    78    1
    19    77    74    1
    20     8     7    1
    21     8     9    2
    22    60    67   am
    23    60    61    2
    24    75    74    1
    25    75    76    2
    26    67    68    1
    27    82    85    1
    28    73    74    1
    29    73    69   am
    30    13    14    1
    31    24    23    1
    32    21    23   ar
    33    21    19   ar
    34    23    22   ar
    35    72    71    1
    36    68    69    1
    37    68    71    1
    38     1     2    1
    39    19    18   ar
    40    69    70    2
    41    85    86    1
    42    50    49    2
    43    22    20   ar
    44    88    86    1
    45    14    17    1
    46    14    15    1
    47    32    33    1
    48    18    20   ar
    49    18    17    1
    50    49    48    1
    51     2     3    1
    52     2     5    1
    53    86    87    1
    54    33    34    1
    55    25    15   am
    56    25    26    1
    57    15    16    2
    58    29    30    1
    59    29    26    1
    60    29    31    1
    61     3     4    2
    62    48    51    1
    63    48    47    1
    64    27    26    1
    65    27    28    2
    66    51    52    1
    67    34    35    2
    68    34    36   am
    69    53    52    1
    70    53    54    1
    71    36    37    1
    72    54    55    2
    73    37    38    1
    74    37    40    1
    75    55    56    1
    76    55    57    1
    77    38    39    2
    78    40    41    1
    79    41    43   ar
    80    41    42   ar
    81    43    45   ar
    82    42    44   ar
    83    45    46   ar
    84    44    46   ar
