@<TRIPOS>MOLECULE
tmp/3qemD00.pdb
 124 120 0 0 0
SMALL
GASTEIGER

@<TRIPOS>ATOM
      1  N         29.0360  -13.1800  -35.7810 N.3    39  PRO39      -0.2116
      2  CA        30.1160  -12.5820  -34.9900 C.3    39  PRO39       0.1372
      3  C         31.3830  -13.4370  -34.9260 C.2    39  PRO39       0.2244
      4  O         32.4870  -12.9190  -35.1080 O.2    39  PRO39      -0.2868
      5  CB        29.4950  -12.4570  -33.6010 C.3    39  PRO39       0.0268
      6  CG        28.0410  -12.2950  -33.8720 C.3    39  PRO39       0.0207
      7  CD        27.7460  -13.1460  -35.0720 C.3    39  PRO39       0.0892
      8  N         34.9240  -12.1610  -36.4850 N.3    43  ILE43      -0.1245
      9  CA        35.9800  -11.8860  -35.5170 C.3    43  ILE43       0.1561
     10  C         37.1700  -12.8110  -35.7830 C.2    43  ILE43       0.2260
     11  O         38.3240  -12.3860  -35.7720 O.2    43  ILE43      -0.2867
     12  CB        35.4830  -12.0500  -34.0690 C.3    43  ILE43       0.0252
     13  CG1       34.2850  -11.1380  -33.8190 C.3    43  ILE43       0.0019
     14  CG2       36.6040  -11.7600  -33.0840 C.3    43  ILE43       0.0019
     15  CD1       33.7060  -11.2560  -32.4380 C.3    43  ILE43       0.0001
     16  N         22.8910   -5.0110  -41.0060 N.3    67  GLU67      -0.1231
     17  CA        23.4610   -3.7980  -40.4420 C.3    67  GLU67       0.1699
     18  C         24.2520   -4.0810  -39.1600 C.2    67  GLU67       0.2592
     19  O         24.8010   -3.1660  -38.5350 O.2    67  GLU67      -0.2718
     20  CB        22.3470   -2.7570  -40.2180 C.3    67  GLU67       0.0402
     21  CG        21.4730   -2.9670  -38.9930 C.3    67  GLU67       0.1161
     22  CD        20.6780   -4.2700  -39.0020 C.2    67  GLU67       0.3649
     23  OE1       20.8880   -5.0990  -39.9030 O.co2  67  GLU67      -0.2457
     24  OE2       19.8310   -4.4710  -38.0970 O.co2  67  GLU67      -0.2457
     25  N         24.3030   -5.3560  -38.7840 N.am   68  ALA68      -0.1980
     26  CA        25.0410   -5.7830  -37.6010 C.3    68  ALA68       0.1597
     27  C         26.5170   -5.8860  -37.9200 C.2    68  ALA68       0.2287
     28  O         27.3670   -5.6470  -37.0590 O.2    68  ALA68      -0.2864
     29  CB        24.5240   -7.1140  -37.0790 C.3    68  ALA68       0.0319
     30  N         28.3110   -3.0490  -36.8590 N.3    71  GLN71      -0.1231
     31  CA        28.5940   -3.0220  -35.4340 C.3    71  GLN71       0.1698
     32  C         29.7480   -3.9560  -35.1220 C.2    71  GLN71       0.2592
     33  O         30.7970   -3.5230  -34.6400 O.2    71  GLN71      -0.2718
     34  CB        27.3540   -3.3950  -34.6480 C.3    71  GLN71       0.0381
     35  CG        26.2260   -2.4160  -34.8790 C.3    71  GLN71       0.0905
     36  CD        24.9280   -2.8270  -34.2130 C.2    71  GLN71       0.2608
     37  OE1       24.7840   -2.7320  -32.9920 O.2    71  GLN71      -0.2717
     38  NE2       23.9680   -3.2770  -35.0150 N.am   71  GLN71      -0.0878
     39  N         29.5750   -5.2330  -35.4320 N.am   72  ILE72      -0.1980
     40  CA        30.6580   -6.1880  -35.2700 C.3    72  ILE72       0.1595
     41  C         31.9980   -5.5940  -35.6590 C.2    72  ILE72       0.2287
     42  O         33.0030   -5.8900  -35.0420 O.2    72  ILE72      -0.2864
     43  CB        30.4610   -7.4250  -36.1340 C.3    72  ILE72       0.0276
     44  CG1       29.1430   -8.1120  -35.7950 C.3    72  ILE72       0.0022
     45  CG2       31.6140   -8.3780  -35.9190 C.3    72  ILE72       0.0022
     46  CD1       29.0330   -9.5110  -36.3430 C.3    72  ILE72       0.0001
     47  N         33.2610   -2.6830  -33.0510 N.3    75  PHE75      -0.1241
     48  CA        33.7810   -3.4190  -31.9140 C.3    75  PHE75       0.1605
     49  C         35.1510   -3.9540  -32.2560 C.2    75  PHE75       0.2264
     50  O         36.1310   -3.5670  -31.6490 O.2    75  PHE75      -0.2867
     51  CB        32.8480   -4.5660  -31.5850 C.3    75  PHE75       0.0534
     52  CG        33.3670   -5.4910  -30.5400 C.ar   75  PHE75      -0.0203
     53  CD1       33.5020   -5.0690  -29.2270 C.ar   75  PHE75      -0.0042
     54  CD2       33.6930   -6.8010  -30.8580 C.ar   75  PHE75      -0.0042
     55  CE1       33.9640   -5.9330  -28.2540 C.ar   75  PHE75      -0.0003
     56  CE2       34.1500   -7.6730  -29.8910 C.ar   75  PHE75      -0.0003
     57  CZ        34.2920   -7.2380  -28.5900 C.ar   75  PHE75      -0.0000
     58  N         11.8290    2.7330  -34.8910 N.3   135  THR135     -0.1203
     59  CA        11.9720    1.7300  -33.8570 C.3   135  THR135      0.1994
     60  C         12.9970    2.2530  -32.8720 C.2   135  THR135      0.2618
     61  O         13.3060    3.4460  -32.8810 O.2   135  THR135     -0.2717
     62  CB        12.3930    0.3650  -34.4080 C.3   135  THR135      0.1784
     63  OG1       13.5090    0.5150  -35.2910 O.3   135  THR135     -0.2211
     64  CG2       11.2460   -0.2590  -35.1570 C.3   135  THR135      0.0376
     65  N         13.5140    1.3740  -32.0210 N.am  136  TYR136     -0.1961
     66  CA        14.4710    1.8020  -31.0110 C.3   136  TYR136      0.1771
     67  C         15.8990    1.7870  -31.5220 C.2   136  TYR136      0.2620
     68  O         16.7900    2.3090  -30.8800 O.2   136  TYR136     -0.2715
     69  CB        14.3520    0.9590  -29.7430 C.3   136  TYR136      0.0574
     70  CG        13.3930    1.5380  -28.7360 C.ar  136  TYR136     -0.0198
     71  CD1       13.8010    2.5260  -27.8580 C.ar  136  TYR136     -0.0009
     72  CD2       12.0710    1.1090  -28.6730 C.ar  136  TYR136     -0.0009
     73  CE1       12.9280    3.0660  -26.9330 C.ar  136  TYR136      0.0417
     74  CE2       11.1850    1.6440  -27.7490 C.ar  136  TYR136      0.0417
     75  CZ        11.6230    2.6230  -26.8810 C.ar  136  TYR136      0.1957
     76  OH        10.7590    3.1670  -25.9550 O.3   136  TYR136     -0.2866
     77  N         16.0950    1.1870  -32.6830 N.am  137  PHE137     -0.1960
     78  CA        17.4040    1.0440  -33.3110 C.3   137  PHE137      0.1756
     79  C         18.2450    2.3190  -33.2650 C.2   137  PHE137      0.2461
     80  O         17.7390    3.4120  -33.5070 O.2   137  PHE137     -0.2730
     81  CB        17.1810    0.6410  -34.7540 C.3   137  PHE137      0.0574
     82  CG        18.4220    0.2900  -35.4930 C.ar  137  PHE137     -0.0200
     83  CD1       18.9010   -1.0030  -35.4840 C.ar  137  PHE137     -0.0042
     84  CD2       19.0780    1.2390  -36.2470 C.ar  137  PHE137     -0.0042
     85  CE1       20.0200   -1.3340  -36.1980 C.ar  137  PHE137     -0.0003
     86  CE2       20.2060    0.9110  -36.9610 C.ar  137  PHE137     -0.0003
     87  CZ        20.6750   -0.3730  -36.9380 C.ar  137  PHE137     -0.0000
     88  N         19.5380    2.1740  -32.9540 N.am  138  PRO138     -0.2727
     89  CA        20.5070    3.2560  -32.8350 C.3   138  PRO138      0.1402
     90  C         20.3020    4.2700  -33.9230 C.2   138  PRO138      0.2269
     91  O         20.1390    3.8930  -35.0750 O.2   138  PRO138     -0.2865
     92  CB        21.8190    2.5410  -33.0930 C.3   138  PRO138      0.0296
     93  CG        21.6050    1.2230  -32.4800 C.3   138  PRO138      0.0237
     94  CD        20.1700    0.8690  -32.7340 C.3   138  PRO138      0.0939
     95  N         10.6940   -2.9140  -30.8220 N.3   168  MET168     -0.1230
     96  CA        10.8730   -4.1680  -31.5230 C.3   168  MET168      0.1702
     97  C         11.6900   -5.0990  -30.6610 C.2   168  MET168      0.2593
     98  O         12.1620   -6.1360  -31.1200 O.2   168  MET168     -0.2718
     99  CB        11.5480   -3.9220  -32.8670 C.3   168  MET168      0.0401
    100  CG        10.6860   -3.0780  -33.8200 C.3   168  MET168      0.0596
    101  SD         9.5810   -4.0230  -34.8910 S.3   168  MET168     -0.1393
    102  CE         8.4430   -4.7690  -33.7170 C.3   168  MET168      0.0692
    103  N         11.8460   -4.7100  -29.3980 N.am  169  SER169     -0.1952
    104  CA        12.5620   -5.5120  -28.4140 C.3   169  SER169      0.1924
    105  C         11.6700   -6.6370  -27.9120 C.2   169  SER169      0.2314
    106  O         12.1390   -7.7450  -27.6490 O.2   169  SER169     -0.2863
    107  CB        13.0160   -4.6420  -27.2410 C.3   169  SER169      0.2116
    108  OG        13.7700   -5.3700  -26.2960 O.3   169  SER169     -0.2180
    109  N         15.2040   -0.7190  -39.2220 N.3   194  THR194     -0.1218
    110  CA        16.0940   -1.5770  -40.0090 C.3   194  THR194      0.1862
    111  C         15.2560   -2.2450  -41.0590 C.2   194  THR194      0.2287
    112  O         14.0330   -2.2140  -40.9710 O.2   194  THR194     -0.2866
    113  CB        16.7940   -2.6990  -39.1820 C.3   194  THR194      0.1770
    114  OG1       15.8750   -3.7650  -38.9150 O.3   194  THR194     -0.2211
    115  CG2       17.3200   -2.1830  -37.8790 C.3   194  THR194      0.0375
    116  N         13.0110   -4.9870  -39.7520 N.3   197  GLU197     -0.1245
    117  CA        11.9480   -4.3980  -38.9540 C.3   197  GLU197      0.1567
    118  C         10.9190   -3.7680  -39.8920 C.2   197  GLU197      0.2260
    119  O          9.7020   -3.8830  -39.6860 O.2   197  GLU197     -0.2867
    120  CB        12.5190   -3.3590  -37.9880 C.3   197  GLU197      0.0388
    121  CG        13.6760   -3.8940  -37.1620 C.3   197  GLU197      0.1160
    122  CD        14.1460   -2.9390  -36.0740 C.2   197  GLU197      0.3649
    123  OE1       14.2810   -1.7180  -36.3450 O.co2 197  GLU197     -0.2457
    124  OE2       14.3760   -3.4340  -34.9440 O.co2 197  GLU197     -0.2457
@<TRIPOS>BOND
     1   111   112    2
     2   111   110    1
     3    16    17    1
     4    17    20    1
     5    17    18    1
     6    20    21    1
     7   110   109    1
     8   110   113    1
     9    23    22   ar
    10   118   119    2
    11   118   117    1
    12   116   117    1
    13   113   114    1
    14   113   115    1
    15    18    25   am
    16    18    19    2
    17    22    21    1
    18    22    24   ar
    19   117   120    1
    20    25    26    1
    21   120   121    1
    22    27    26    1
    23    27    28    2
    24    26    29    1
    25   121   122    1
    26    86    87   ar
    27    86    84   ar
    28    87    85   ar
    29    30    31    1
    30     8     9    1
    31   123   122   ar
    32    46    44    1
    33    84    82   ar
    34    85    83   ar
    35    43    45    1
    36    43    44    1
    37    43    40    1
    38   122   124   ar
    39    10    11    2
    40    10     9    1
    41     1     7    1
    42     1     2    1
    43    41    40    1
    44    41    42    2
    45     9    12    1
    46    82    83   ar
    47    82    81    1
    48    31    32    1
    49    31    34    1
    50    39    40    1
    51    39    32   am
    52    63    62    1
    53    64    62    1
    54    32    33    2
    55     4     3    2
    56    91    90    2
    57     7     6    1
    58    38    36   am
    59     2     3    1
    60     2     5    1
    61    58    59    1
    62   101   100    1
    63   101   102    1
    64    35    34    1
    65    35    36    1
    66    81    78    1
    67    62    59    1
    68    36    37    2
    69    12    13    1
    70    12    14    1
    71    90    89    1
    72     6     5    1
    73    59    60    1
    74   100    99    1
    75    13    15    1
    76    80    79    2
    77    78    79    1
    78    78    77    1
    79    79    88   am
    80    92    89    1
    81    92    93    1
    82    47    48    1
    83    88    89    1
    84    88    94    1
    85    61    60    2
    86    60    65   am
    87    99    96    1
    88    94    93    1
    89    77    67   am
    90    49    48    1
    91    49    50    2
    92    65    66    1
    93    48    51    1
    94    51    52    1
    95    96    95    1
    96    96    97    1
    97    67    66    1
    98    67    68    2
    99    98    97    2
   100    66    69    1
   101    54    52   ar
   102    54    56   ar
   103    97   103   am
   104    52    53   ar
   105    56    57   ar
   106    69    70    1
   107   103   104    1
   108    53    55   ar
   109    70    72   ar
   110    70    71   ar
   111    72    74   ar
   112    57    55   ar
   113   104   105    1
   114   104   107    1
   115   105   106    2
   116    71    73   ar
   117    74    75   ar
   118   107   108    1
   119    73    75   ar
   120    75    76    1
