@<TRIPOS>MOLECULE
tmp/3qeoA01.pdb
 161 150 0 0 0
SMALL
GASTEIGER

@<TRIPOS>ATOM
      1  N        -16.1040   27.7150  -31.6320 N.3    12  ILE12      -0.1245
      2  CA       -17.0550   28.2550  -30.6500 C.3    12  ILE12       0.1561
      3  C        -18.4780   28.3220  -31.2180 C.2    12  ILE12       0.2260
      4  O        -18.6650   28.7240  -32.3560 O.2    12  ILE12      -0.2867
      5  CB       -16.6410   29.6800  -30.2180 C.3    12  ILE12       0.0252
      6  CG1      -15.3200   29.6600  -29.4390 C.3    12  ILE12       0.0019
      7  CG2      -17.7950   30.3320  -29.4330 C.3    12  ILE12       0.0019
      8  CD1      -14.6300   31.0530  -29.3410 C.3    12  ILE12       0.0001
      9  N        -17.1650   19.4950  -21.3280 N.3    35  GLU35      -0.1245
     10  CA       -15.9610   20.3490  -21.2150 C.3    35  GLU35       0.1567
     11  C        -16.0900   21.2880  -20.0090 C.2    35  GLU35       0.2260
     12  O        -17.0240   22.0900  -19.9360 O.2    35  GLU35      -0.2867
     13  CB       -15.7810   21.1800  -22.4960 C.3    35  GLU35       0.0388
     14  CG       -14.4300   21.9390  -22.5720 C.3    35  GLU35       0.1160
     15  CD       -14.4170   23.1060  -23.5840 C.2    35  GLU35       0.3649
     16  OE1      -13.5030   23.1330  -24.4390 O.co2  35  GLU35      -0.2457
     17  OE2      -15.2740   24.0130  -23.4900 O.co2  35  GLU35      -0.2457
     18  N        -15.3360   24.1200  -19.0620 N.3    37  VAL37      -0.1245
     19  CA       -15.4550   25.5820  -19.0740 C.3    37  VAL37       0.1561
     20  C        -16.8230   26.3020  -19.2800 C.2    37  VAL37       0.2260
     21  O        -16.9290   27.4400  -18.8750 O.2    37  VAL37      -0.2867
     22  CB       -14.1560   26.3130  -19.6250 C.3    37  VAL37       0.0252
     23  CG1      -13.2510   25.3720  -20.4020 C.3    37  VAL37       0.0019
     24  CG2      -14.4630   27.5890  -20.3960 C.3    37  VAL37       0.0019
     25  N        -12.2420   32.4050  -15.1750 N.3    56  LEU56      -0.1245
     26  CA       -12.8780   32.8280  -16.4450 C.3    56  LEU56       0.1561
     27  C        -13.2020   34.3220  -16.4660 C.2    56  LEU56       0.2260
     28  O        -12.9700   35.0140  -17.4720 O.2    56  LEU56      -0.2867
     29  CB       -14.1320   31.9790  -16.7810 C.3    56  LEU56       0.0270
     30  CG       -14.8010   32.1970  -18.1590 C.3    56  LEU56       0.0019
     31  CD1      -13.8800   31.9260  -19.3510 C.3    56  LEU56       0.0001
     32  CD2      -16.0720   31.4140  -18.2670 C.3    56  LEU56       0.0001
     33  N         -9.9450   36.1720  -16.7390 N.3    59  MET59      -0.1230
     34  CA        -9.5950   36.0200  -18.1570 C.3    59  MET59       0.1702
     35  C        -10.2100   37.0950  -19.0470 C.2    59  MET59       0.2592
     36  O         -9.5590   37.6010  -19.9550 O.2    59  MET59      -0.2718
     37  CB       -10.0870   34.6690  -18.6680 C.3    59  MET59       0.0401
     38  CG        -9.0240   33.6850  -19.0340 C.3    59  MET59       0.0596
     39  SD        -8.1140   34.1060  -20.5090 S.3    59  MET59      -0.1393
     40  CE        -8.8910   33.0890  -21.7520 C.3    59  MET59       0.0692
     41  N        -11.4920   37.3850  -18.8210 N.am   60  TYR60      -0.1976
     42  CA       -12.2300   38.3290  -19.6650 C.3    60  TYR60       0.1639
     43  C        -11.7320   39.7850  -19.5330 C.2    60  TYR60       0.2290
     44  O        -11.7580   40.5480  -20.4960 O.2    60  TYR60      -0.2864
     45  CB       -13.7520   38.1840  -19.4470 C.3    60  TYR60       0.0560
     46  CG       -14.4610   37.3280  -20.5170 C.ar   60  TYR60      -0.0198
     47  CD1      -15.1790   36.1700  -20.1750 C.ar   60  TYR60      -0.0009
     48  CD2      -14.4230   37.6980  -21.8820 C.ar   60  TYR60      -0.0009
     49  CE1      -15.8350   35.3870  -21.1820 C.ar   60  TYR60       0.0417
     50  CE2      -15.0730   36.9290  -22.8830 C.ar   60  TYR60       0.0417
     51  CZ       -15.7740   35.7820  -22.5260 C.ar   60  TYR60       0.1957
     52  OH       -16.4120   35.0490  -23.5150 O.3    60  TYR60      -0.2866
     53  N         -5.5400   30.3930  -16.5780 N.3    70  PHE70      -0.1227
     54  CA        -6.8370   29.8740  -16.9930 C.3    70  PHE70       0.1736
     55  C         -6.6290   28.5630  -17.7360 C.2    70  PHE70       0.2595
     56  O         -7.3350   27.5530  -17.4760 O.2    70  PHE70      -0.2718
     57  CB        -7.6130   30.8850  -17.8540 C.3    70  PHE70       0.0547
     58  CG        -8.7420   30.2620  -18.6140 C.ar   70  PHE70      -0.0202
     59  CD1      -10.0080   30.1980  -18.0510 C.ar   70  PHE70      -0.0042
     60  CD2       -8.5420   29.7400  -19.8780 C.ar   70  PHE70      -0.0042
     61  CE1      -11.0590   29.6080  -18.7300 C.ar   70  PHE70      -0.0003
     62  CE2       -9.5910   29.1260  -20.5580 C.ar   70  PHE70      -0.0003
     63  CZ       -10.8470   29.0740  -19.9860 C.ar   70  PHE70      -0.0000
     64  N         -5.6860   28.5760  -18.6830 N.am   71  GLN71      -0.1979
     65  CA        -5.4840   27.3990  -19.5270 C.3    71  GLN71       0.1601
     66  C         -5.0340   26.1790  -18.7440 C.2    71  GLN71       0.2287
     67  O         -5.5090   25.0630  -19.0260 O.2    71  GLN71      -0.2864
     68  CB        -4.5320   27.6570  -20.7030 C.3    71  GLN71       0.0394
     69  CG        -4.7510   26.6810  -21.8600 C.3    71  GLN71       0.0908
     70  CD        -6.1120   26.8920  -22.5300 C.2    71  GLN71       0.2608
     71  OE1       -6.2370   27.6840  -23.4450 O.2    71  GLN71      -0.2717
     72  NE2       -7.1350   26.2330  -22.0220 N.am   71  GLN71      -0.0878
     73  N         -8.1190   24.9300  -16.8520 N.3    74  ALA74      -0.1245
     74  CA        -9.0370   24.3580  -17.8060 C.3    74  ALA74       0.1562
     75  C         -8.5880   22.9440  -18.2180 C.2    74  ALA74       0.2260
     76  O         -9.4070   22.0180  -18.2310 O.2    74  ALA74      -0.2867
     77  CB        -9.1950   25.2690  -19.0210 C.3    74  ALA74       0.0290
     78  N        -14.6020   18.3970  -26.8260 N.3   102  ARG102     -0.1245
     79  CA       -13.2710   18.9740  -27.0330 C.3   102  ARG102      0.1563
     80  C        -12.1980   18.0350  -26.5070 C.2   102  ARG102      0.2260
     81  O        -12.5150   16.9720  -25.9860 O.2   102  ARG102     -0.2867
     82  CB       -13.1520   20.3520  -26.3560 C.3   102  ARG102      0.0307
     83  CG       -14.1050   21.4230  -26.8780 C.3   102  ARG102      0.0489
     84  CD       -13.3390   22.7300  -26.9520 C.3   102  ARG102      0.2205
     85  NE       -13.8650   23.6280  -27.9610 N.pl3 102  ARG102     -0.0865
     86  CZ       -14.2620   24.8750  -27.7330 C.cat 102  ARG102      0.5346
     87  NH1      -14.2090   25.3850  -26.5000 N.pl3 102  ARG102      0.1354
     88  NH2      -14.7250   25.6160  -28.7410 N.pl3 102  ARG102      0.1354
     89  N         -7.5400   22.1650  -26.8970 N.3   107  ALA107     -0.1245
     90  CA        -7.2200   23.1010  -25.8310 C.3   107  ALA107      0.1562
     91  C         -5.8110   23.7240  -26.0120 C.2   107  ALA107      0.2260
     92  O         -5.6210   24.9260  -25.7730 O.2   107  ALA107     -0.2867
     93  CB        -7.3670   22.4290  -24.4440 C.3   107  ALA107      0.0290
     94  N         -6.7070   26.4870  -28.8700 N.3   111  PHE111     -0.1241
     95  CA        -7.0200   27.6370  -28.0040 C.3   111  PHE111      0.1605
     96  C         -5.8560   28.3460  -27.2610 C.2   111  PHE111      0.2264
     97  O         -5.7510   29.5860  -27.2820 O.2   111  PHE111     -0.2867
     98  CB        -8.1870   27.2980  -27.0800 C.3   111  PHE111      0.0534
     99  CG        -9.4920   27.2130  -27.8120 C.ar  111  PHE111     -0.0203
    100  CD1       -9.8880   26.0270  -28.4240 C.ar  111  PHE111     -0.0042
    101  CD2      -10.3050   28.3370  -27.9240 C.ar  111  PHE111     -0.0042
    102  CE1      -11.0920   25.9530  -29.1300 C.ar  111  PHE111     -0.0003
    103  CE2      -11.5110   28.2640  -28.6090 C.ar  111  PHE111     -0.0003
    104  CZ       -11.8910   27.0570  -29.2180 C.ar  111  PHE111     -0.0000
    105  N         -4.0160   32.0310  -27.7490 N.3   115  LEU115     -0.1245
    106  CA        -3.7160   33.0000  -26.6820 C.3   115  LEU115      0.1561
    107  C         -2.2940   33.5680  -26.8300 C.2   115  LEU115      0.2260
    108  O         -2.0740   34.7660  -26.6800 O.2   115  LEU115     -0.2867
    109  CB        -3.8840   32.3710  -25.2910 C.3   115  LEU115      0.0270
    110  CG        -5.2090   31.7020  -24.8890 C.3   115  LEU115      0.0019
    111  CD1       -5.0120   30.8050  -23.6630 C.3   115  LEU115      0.0001
    112  CD2       -6.2950   32.7240  -24.5690 C.3   115  LEU115      0.0001
    113  N        -24.7320   34.4270  -24.1790 N.3   168  ARG168     -0.1245
    114  CA       -23.8280   34.5590  -23.0500 C.3   168  ARG168      0.1563
    115  C        -23.2880   35.9900  -23.1020 C.2   168  ARG168      0.2260
    116  O        -22.8360   36.4340  -24.1600 O.2   168  ARG168     -0.2867
    117  CB       -22.6960   33.5510  -23.1800 C.3   168  ARG168      0.0307
    118  CG       -22.2690   32.9250  -21.8650 C.3   168  ARG168      0.0489
    119  CD       -21.3370   31.7550  -22.1130 C.3   168  ARG168      0.2205
    120  NE       -22.0450   30.4950  -22.3570 N.pl3 168  ARG168     -0.0865
    121  CZ       -21.4570   29.3460  -22.6970 C.cat 168  ARG168      0.5346
    122  NH1      -20.1420   29.2870  -22.8630 N.pl3 168  ARG168      0.1354
    123  NH2      -22.1880   28.2460  -22.8730 N.pl3 168  ARG168      0.1354
    124  N        -20.6680   37.7890  -21.7790 N.3   170  GLU170     -0.1231
    125  CA       -19.2490   37.9580  -22.0640 C.3   170  GLU170      0.1699
    126  C        -18.9260   37.7750  -23.5400 C.2   170  GLU170      0.2592
    127  O        -18.1290   38.5260  -24.1000 O.2   170  GLU170     -0.2718
    128  CB       -18.4220   36.9510  -21.2560 C.3   170  GLU170      0.0402
    129  CG       -18.9680   36.5650  -19.8900 C.3   170  GLU170      0.1161
    130  CD       -19.8150   35.2970  -19.9390 C.2   170  GLU170      0.3649
    131  OE1      -19.2360   34.1920  -19.8240 O.co2 170  GLU170     -0.2457
    132  OE2      -21.0600   35.4100  -20.0710 O.co2 170  GLU170     -0.2457
    133  N        -19.5880   36.8070  -24.1640 N.am  171  GLU171     -0.1979
    134  CA       -19.2690   36.3600  -25.5180 C.3   171  GLU171      0.1602
    135  C        -19.7900   37.2270  -26.6740 C.2   171  GLU171      0.2287
    136  O        -19.3950   37.0250  -27.8280 O.2   171  GLU171     -0.2864
    137  CB       -19.8100   34.9400  -25.7210 C.3   171  GLU171      0.0415
    138  CG       -19.2900   33.8830  -24.7550 C.3   171  GLU171      0.1163
    139  CD       -19.7650   32.4900  -25.1440 C.2   171  GLU171      0.3649
    140  OE1      -20.6760   32.4010  -26.0020 O.co2 171  GLU171     -0.2457
    141  OE2      -19.2280   31.4980  -24.6110 O.co2 171  GLU171     -0.2457
    142  N        -17.4160   39.0910  -29.1080 N.3   174  ILE174     -0.1245
    143  CA       -16.5310   38.2910  -29.9460 C.3   174  ILE174      0.1561
    144  C        -16.7120   38.6590  -31.4070 C.2   174  ILE174      0.2260
    145  O        -17.8330   38.6130  -31.9210 O.2   174  ILE174     -0.2867
    146  CB       -16.7680   36.7650  -29.7930 C.3   174  ILE174      0.0252
    147  CG1      -16.1850   36.2500  -28.4710 C.3   174  ILE174      0.0019
    148  CG2      -16.1750   36.0150  -30.9770 C.3   174  ILE174      0.0019
    149  CD1      -16.8260   34.9850  -27.9720 C.3   174  ILE174      0.0001
    150  N        -11.8020   36.7620  -34.9680 N.3   178  TYR178     -0.1241
    151  CA       -11.3610   35.8320  -33.9490 C.3   178  TYR178      0.1605
    152  C        -11.8360   34.4430  -34.3420 C.2   178  TYR178      0.2264
    153  O        -11.0290   33.5160  -34.4310 O.2   178  TYR178     -0.2867
    154  CB       -11.9230   36.2330  -32.6010 C.3   178  TYR178      0.0534
    155  CG       -11.6710   35.2490  -31.4860 C.ar  178  TYR178     -0.0201
    156  CD1      -10.3900   35.0350  -30.9870 C.ar  178  TYR178     -0.0009
    157  CD2      -12.7250   34.5570  -30.9070 C.ar  178  TYR178     -0.0009
    158  CE1      -10.1660   34.1430  -29.9470 C.ar  178  TYR178      0.0417
    159  CE2      -12.5100   33.6680  -29.8700 C.ar  178  TYR178      0.0417
    160  CZ       -11.2330   33.4650  -29.3930 C.ar  178  TYR178      0.1957
    161  OH       -11.0470   32.5740  -28.3640 O.3   178  TYR178     -0.2866
@<TRIPOS>BOND
     1   150   151    1
     2   153   152    2
     3   152   151    1
     4   151   154    1
     5   154   155    1
     6     4     3    2
     7   145   144    2
     8     1     2    1
     9   155   156   ar
    10   155   157   ar
    11   144   143    1
    12     3     2    1
    13   156   158   ar
    14   148   146    1
    15   157   159   ar
    16     2     5    1
    17     5     6    1
    18     5     7    1
    19   158   160   ar
    20   143   146    1
    21   143   142    1
    22   159   160   ar
    23   146   147    1
    24     6     8    1
    25   160   161    1
    26   104   102   ar
    27   104   103   ar
    28   102   100   ar
    29    94    95    1
    30    88    86    1
    31   103   101   ar
    32   147   149    1
    33   100    99   ar
    34    95    96    1
    35    95    98    1
    36    85    86    2
    37    85    84    1
    38   101    99   ar
    39   136   135    2
    40    99    98    1
    41   105   106    1
    42    86    87    1
    43    97    96    2
    44    79    78    1
    45    79    80    1
    46    79    82    1
    47    84    83    1
    48    89    90    1
    49    83    82    1
    50   107   106    1
    51   107   108    2
    52   106   109    1
    53   135   134    1
    54    80    81    2
    55    91    90    1
    56    91    92    2
    57   140   139   ar
    58    90    93    1
    59   137   134    1
    60   137   138    1
    61   134   133    1
    62   109   110    1
    63   139   138    1
    64   139   141   ar
    65   110   112    1
    66   110   111    1
    67    16    15   ar
    68   113   114    1
    69   133   126   am
    70   116   115    2
    71   127   126    2
    72    15    17   ar
    73    15    14    1
    74   126   125    1
    75    52    51    1
    76    71    70    2
    77   117   114    1
    78   117   118    1
    79   115   114    1
    80    50    51   ar
    81    50    48   ar
    82   123   121    1
    83   122   121    1
    84   121   120    2
    85    14    13    1
    86    70    72   am
    87    70    69    1
    88    51    49   ar
    89    13    10    1
    90   120   119    1
    91   119   118    1
    92   125   124    1
    93   125   128    1
    94    48    46   ar
    95    69    68    1
    96    40    39    1
    97     9    10    1
    98   128   129    1
    99    10    11    1
   100    49    47   ar
   101    68    65    1
   102    62    63   ar
   103    62    60   ar
   104    46    47   ar
   105    46    45    1
   106    39    38    1
   107    44    43    2
   108    23    22    1
   109    24    22    1
   110   132   130   ar
   111    11    12    2
   112    63    61   ar
   113    36    35    2
   114   130   129    1
   115   130   131   ar
   116    60    58   ar
   117    42    43    1
   118    42    45    1
   119    42    41    1
   120    22    19    1
   121    65    66    1
   122    65    64    1
   123    31    30    1
   124    20    19    1
   125    20    21    2
   126    19    18    1
   127    35    41   am
   128    35    34    1
   129    38    37    1
   130    67    66    2
   131    77    74    1
   132    61    59   ar
   133    64    55   am
   134    37    34    1
   135    58    59   ar
   136    58    57    1
   137    32    30    1
   138    76    75    2
   139    75    74    1
   140    30    29    1
   141    34    33    1
   142    57    54    1
   143    74    73    1
   144    55    56    2
   145    55    54    1
   146    28    27    2
   147    54    53    1
   148    29    26    1
   149    27    26    1
   150    26    25    1
