@<TRIPOS>MOLECULE
tmp/3qf3A00.pdb
 95 96 0 0 0
SMALL
GASTEIGER

@<TRIPOS>ATOM
      1  N          8.0430    7.3280    5.6860 N.3    15  VAL15      -0.1231
      2  CA         7.2710    6.9380    4.5100 C.3    15  VAL15       0.1692
      3  C          7.7730    7.6290    3.2530 C.2    15  VAL15       0.2592
      4  O          7.5690    8.8250    3.0460 O.2    15  VAL15      -0.2718
      5  CB         5.7740    7.1970    4.7030 C.3    15  VAL15       0.0266
      6  CG1        4.9920    6.7380    3.4770 C.3    15  VAL15       0.0020
      7  CG2        5.2870    6.5000    5.9710 C.3    15  VAL15       0.0020
      8  N          8.4460    6.8480    2.4240 N.am   16  TYR16      -0.1963
      9  CA         9.0620    7.3390    1.2080 C.3    16  TYR16       0.1756
     10  C          9.2720    6.1340    0.2870 C.2    16  TYR16       0.2461
     11  O          9.1200    4.9850    0.6990 O.2    16  TYR16      -0.2730
     12  CB        10.3870    8.0290    1.5330 C.3    16  TYR16       0.0574
     13  CG        11.2310    7.2390    2.4860 C.ar   16  TYR16      -0.0198
     14  CD1       12.2030    6.3650    2.0120 C.ar   16  TYR16      -0.0009
     15  CD2       11.0500    7.3440    3.8680 C.ar   16  TYR16      -0.0009
     16  CE1       12.9880    5.6270    2.8750 C.ar   16  TYR16       0.0417
     17  CE2       11.8290    6.6050    4.7460 C.ar   16  TYR16       0.0417
     18  CZ        12.7990    5.7380    4.2400 C.ar   16  TYR16       0.1957
     19  OH        13.5860    4.9780    5.0830 O.3    16  TYR16      -0.2866
     20  N          9.6160    6.3920   -0.9700 N.am   17  PRO17      -0.2716
     21  CA         9.6440    5.3160   -1.9620 C.3    17  PRO17       0.1521
     22  C         10.8780    4.4180   -1.8720 C.2    17  PRO17       0.2440
     23  O         11.8780    4.7850   -1.2620 O.2    17  PRO17      -0.2731
     24  CB         9.6710    6.0770   -3.2870 C.3    17  PRO17       0.0310
     25  CG         9.3720    7.5240   -2.9310 C.3    17  PRO17       0.0237
     26  CD         9.8730    7.7090   -1.5690 C.3    17  PRO17       0.0939
     27  N         10.8220    3.2440   -2.5120 N.am   18  PRO18      -0.2727
     28  CA        12.0180    2.4010   -2.5680 C.3    18  PRO18       0.1402
     29  C         13.1400    3.0310   -3.3880 C.2    18  PRO18       0.2269
     30  O         12.8850    3.7500   -4.3450 O.2    18  PRO18      -0.2865
     31  CB        11.5160    1.1210   -3.2340 C.3    18  PRO18       0.0296
     32  CG        10.2790    1.5000   -3.9510 C.3    18  PRO18       0.0237
     33  CD         9.6700    2.6280   -3.1850 C.3    18  PRO18       0.0939
     34  N         10.9330   11.8380    1.5200 N.3    23  HIS23      -0.1241
     35  CA        10.4540   13.0010    0.7710 C.3    23  HIS23       0.1621
     36  C         10.7950   14.3030    1.4970 C.2    23  HIS23       0.2264
     37  O         10.8910   14.3330    2.7130 O.2    23  HIS23      -0.2867
     38  CB         8.9340   12.9490    0.5810 C.3    23  HIS23       0.0745
     39  CG         8.4580   11.8190   -0.2830 C.ar   23  HIS23       0.0817
     40  ND1        8.6660   11.7820   -1.6450 N.ar   23  HIS23      -0.2268
     41  CD2        7.7590   10.6980    0.0210 C.ar   23  HIS23       0.1154
     42  CE1        8.1130   10.6940   -2.1450 C.ar   23  HIS23       0.1986
     43  NE2        7.5560   10.0180   -1.1540 N.ar   23  HIS23      -0.2212
     44  N         -1.1630   12.5340    0.3590 N.3    66  PHE66      -0.1227
     45  CA         0.1620   12.4400   -0.2480 C.3    66  PHE66       0.1736
     46  C          0.8960   11.1660    0.2020 C.2    66  PHE66       0.2595
     47  O          1.3620   10.3890   -0.6270 O.2    66  PHE66      -0.2718
     48  CB         1.0380   13.6600    0.0430 C.3    66  PHE66       0.0547
     49  CG         2.4770   13.4350   -0.3150 C.ar   66  PHE66      -0.0202
     50  CD1        2.9370   13.7060   -1.5880 C.ar   66  PHE66      -0.0042
     51  CD2        3.3570   12.8790    0.6010 C.ar   66  PHE66      -0.0042
     52  CE1        4.2560   13.4680   -1.9280 C.ar   66  PHE66      -0.0003
     53  CE2        4.6780   12.6320    0.2600 C.ar   66  PHE66      -0.0003
     54  CZ         5.1260   12.9260   -1.0060 C.ar   66  PHE66      -0.0000
     55  N          1.0160   10.9780    1.5170 N.am   67  PHE67      -0.1962
     56  CA         1.6340    9.7800    2.0700 C.3    67  PHE67       0.1771
     57  C          0.7420    8.5480    1.8600 C.2    67  PHE67       0.2619
     58  O          1.1460    7.4230    2.1250 O.2    67  PHE67      -0.2715
     59  CB         1.9620    9.9750    3.5560 C.3    67  PHE67       0.0574
     60  CG         2.9940   11.0450    3.8170 C.ar   67  PHE67      -0.0200
     61  CD1        4.3530   10.7710    3.6760 C.ar   67  PHE67      -0.0042
     62  CD2        2.6080   12.3220    4.2070 C.ar   67  PHE67      -0.0042
     63  CE1        5.3080   11.7540    3.9110 C.ar   67  PHE67      -0.0003
     64  CE2        3.5470   13.3100    4.4490 C.ar   67  PHE67      -0.0003
     65  CZ         4.9030   13.0260    4.3030 C.ar   67  PHE67      -0.0000
     66  N         -0.4690    8.7690    1.3650 N.am   68  ARG68      -0.1977
     67  CA        -1.3750    7.6750    1.0530 C.3    68  ARG68       0.1597
     68  C         -1.7520    6.8700    2.2840 C.2    68  ARG68       0.2287
     69  O         -1.8100    5.6370    2.2460 O.2    68  ARG68      -0.2864
     70  CB        -0.7660    6.7940   -0.0260 C.3    68  ARG68       0.0334
     71  CG        -0.3290    7.6110   -1.2040 C.3    68  ARG68       0.0492
     72  CD         0.0380    6.7800   -2.3920 C.3    68  ARG68       0.2205
     73  NE         0.2670    7.6270   -3.5530 N.pl3  68  ARG68      -0.0865
     74  CZ         1.0720    7.3060   -4.5570 C.cat  68  ARG68       0.5346
     75  NH1        1.7250    6.1520   -4.5270 N.pl3  68  ARG68       0.1354
     76  NH2        1.2250    8.1370   -5.5840 N.pl3  68  ARG68       0.1354
     77  N          8.3480   -0.3520    9.5260 N.3    90  LEU90      -0.1245
     78  CA         8.9990    0.2770    8.3770 C.3    90  LEU90       0.1561
     79  C         10.3610    0.8700    8.7160 C.2    90  LEU90       0.2260
     80  O         11.3530    0.5560    8.0710 O.2    90  LEU90      -0.2867
     81  CB         8.1130    1.3570    7.7790 C.3    90  LEU90       0.0270
     82  CG         7.2040    0.9070    6.6450 C.3    90  LEU90       0.0019
     83  CD1        6.1190    1.9210    6.4410 C.3    90  LEU90       0.0001
     84  CD2        8.0220    0.7380    5.3830 C.3    90  LEU90       0.0001
     85  N         13.9240   -0.9710    7.3890 N.3    94  ARG94      -0.1245
     86  CA        14.6490   -0.2860    6.3210 C.3    94  ARG94       0.1563
     87  C         16.0140    0.2310    6.7740 C.2    94  ARG94       0.2260
     88  O         16.7930    0.7480    5.9770 O.2    94  ARG94      -0.2867
     89  CB        13.7870    0.8070    5.6780 C.3    94  ARG94       0.0307
     90  CG        12.5960    0.2180    4.9060 C.3    94  ARG94       0.0489
     91  CD        11.8070    1.2650    4.1420 C.3    94  ARG94       0.2205
     92  NE        12.5690    1.8410    3.0370 N.pl3  94  ARG94      -0.0865
     93  CZ        12.0280    2.4990    2.0150 C.cat  94  ARG94       0.5346
     94  NH1       10.7180    2.6650    1.9460 N.pl3  94  ARG94       0.1354
     95  NH2       12.7990    2.9900    1.0570 N.pl3  94  ARG94       0.1354
@<TRIPOS>BOND
     1    76    74    1
     2    74    75    1
     3    74    73    2
     4    30    29    2
     5    32    31    1
     6    32    33    1
     7    73    72    1
     8    29    28    1
     9    24    25    1
    10    24    21    1
    11    31    28    1
    12    33    27    1
    13    25    26    1
    14    28    27    1
    15    27    22   am
    16    72    71    1
    17    42    40   ar
    18    42    43   ar
    19    21    22    1
    20    21    20    1
    21    52    50   ar
    22    52    54   ar
    23    22    23    2
    24    40    39   ar
    25    50    49   ar
    26    26    20    1
    27    71    70    1
    28    43    41   ar
    29    54    53   ar
    30    20    10   am
    31    47    46    2
    32    49    48    1
    33    49    51   ar
    34    39    41   ar
    35    39    38    1
    36    45    48    1
    37    45    46    1
    38    45    44    1
    39    70    67    1
    40    46    55   am
    41    53    51   ar
    42    10    11    2
    43    10     9    1
    44    38    35    1
    45    35    36    1
    46    35    34    1
    47    67    66    1
    48    67    68    1
    49    95    93    1
    50     9    12    1
    51     9     8    1
    52    66    57   am
    53    36    37    2
    54    55    56    1
    55    12    13    1
    56    57    56    1
    57    57    58    2
    58    94    93    1
    59    14    13   ar
    60    14    16   ar
    61    93    92    2
    62    56    59    1
    63    69    68    2
    64     8     3   am
    65    13    15   ar
    66    16    18   ar
    67    92    91    1
    68     4     3    2
    69     3     2    1
    70     6     5    1
    71    59    60    1
    72    61    60   ar
    73    61    63   ar
    74    60    62   ar
    75    15    17   ar
    76    63    65   ar
    77    91    90    1
    78    62    64   ar
    79    18    17   ar
    80    18    19    1
    81    65    64   ar
    82     2     5    1
    83     2     1    1
    84     5     7    1
    85    90    89    1
    86    84    82    1
    87    89    86    1
    88    88    87    2
    89    86    87    1
    90    86    85    1
    91    83    82    1
    92    82    81    1
    93    81    78    1
    94    80    79    2
    95    78    79    1
    96    78    77    1
