@<TRIPOS>MOLECULE
tmp/3qf7A01.pdb
 87 80 0 0 0
SMALL
GASTEIGER

@<TRIPOS>ATOM
      1  N        -16.8410  -18.9960   37.9180 N.3   248  ARG248     -0.1245
      2  CA       -16.1090  -19.8940   38.8100 C.3   248  ARG248      0.1563
      3  C        -14.6690  -20.1610   38.3680 C.2   248  ARG248      0.2260
      4  O        -13.7390  -20.1190   39.1790 O.2   248  ARG248     -0.2867
      5  CB       -16.8410  -21.2330   38.9590 C.3   248  ARG248      0.0307
      6  CG       -16.0990  -22.2180   39.8540 C.3   248  ARG248      0.0489
      7  CD       -16.9020  -23.5010   40.1030 C.3   248  ARG248      0.2205
      8  NE       -16.0940  -24.4990   40.7950 N.pl3 248  ARG248     -0.0865
      9  CZ       -16.4110  -25.7870   40.8840 C.cat 248  ARG248      0.5346
     10  NH1      -17.5330  -26.2310   40.3330 N.pl3 248  ARG248      0.1354
     11  NH2      -15.6070  -26.6290   41.5220 N.pl3 248  ARG248      0.1354
     12  N        -10.0900  -22.0870   40.5930 N.3   264  ASP264     -0.1239
     13  CA       -11.4360  -22.4790   40.9570 C.3   264  ASP264      0.1674
     14  C        -11.8400  -21.5460   42.1050 C.2   264  ASP264      0.2266
     15  O        -11.3610  -21.7040   43.2300 O.2   264  ASP264     -0.2867
     16  CB       -11.4130  -23.9410   41.4140 C.3   264  ASP264      0.1410
     17  CG       -12.7850  -24.4630   41.8410 C.2   264  ASP264      0.3668
     18  OD1      -13.7070  -23.6480   42.0190 O.co2 264  ASP264     -0.2456
     19  OD2      -12.9410  -25.7020   42.0000 O.co2 264  ASP264     -0.2456
     20  N         -8.7110  -20.4770   43.6650 N.3   267  ILE267     -0.1245
     21  CA        -7.7790  -21.5110   44.1100 C.3   267  ILE267      0.1561
     22  C         -7.1000  -22.1660   42.9030 C.2   267  ILE267      0.2260
     23  O         -7.7770  -22.6980   42.0280 O.2   267  ILE267     -0.2867
     24  CB        -8.4850  -22.5950   44.9430 C.3   267  ILE267      0.0252
     25  CG1       -8.9500  -22.0450   46.2970 C.3   267  ILE267      0.0019
     26  CG2       -7.5470  -23.7670   45.2080 C.3   267  ILE267      0.0019
     27  CD1       -9.9970  -20.9780   46.2010 C.3   267  ILE267      0.0001
     28  N         -5.1210  -24.6860   40.4440 N.3   269  ARG269     -0.1245
     29  CA        -5.2600  -26.1220   40.1830 C.3   269  ARG269      0.1563
     30  C         -4.5370  -26.4410   38.8760 C.2   269  ARG269      0.2260
     31  O         -4.8390  -25.8320   37.8520 O.2   269  ARG269     -0.2867
     32  CB        -6.7490  -26.4930   40.0350 C.3   269  ARG269      0.0307
     33  CG        -7.0290  -27.9980   39.7950 C.3   269  ARG269      0.0489
     34  CD        -8.4080  -28.4460   40.3470 C.3   269  ARG269      0.2205
     35  NE        -8.5700  -27.9240   41.7060 N.pl3 269  ARG269     -0.0865
     36  CZ        -9.6900  -27.4010   42.2000 C.cat 269  ARG269      0.5346
     37  NH1      -10.8140  -27.3910   41.4880 N.pl3 269  ARG269      0.1354
     38  NH2       -9.6810  -26.8960   43.4350 N.pl3 269  ARG269      0.1354
     39  N         -5.6480  -31.6180   37.1590 N.3   273  GLY273     -0.1210
     40  CA        -6.3790  -31.8800   38.3910 C.3   273  GLY273      0.1956
     41  C         -7.8800  -31.7540   38.2070 C.2   273  GLY273      0.2612
     42  O         -8.6590  -32.2190   39.0440 O.2   273  GLY273     -0.2717
     43  N         -8.2960  -31.1210   37.1070 N.am  274  LEU274     -0.1965
     44  CA        -9.7200  -30.9110   36.8490 C.3   274  LEU274      0.1728
     45  C        -10.4330  -32.2330   36.5700 C.2   274  LEU274      0.2617
     46  O         -9.8050  -33.2240   36.1800 O.2   274  LEU274     -0.2715
     47  CB        -9.9260  -29.9690   35.6610 C.3   274  LEU274      0.0311
     48  CG        -9.3920  -28.5390   35.8040 C.3   274  LEU274      0.0022
     49  CD1       -9.2170  -27.8840   34.4390 C.3   274  LEU274      0.0001
     50  CD2      -10.3110  -27.7290   36.6940 C.3   274  LEU274      0.0001
     51  N        -11.7470  -32.2560   36.7700 N.am  275  SER275     -0.1936
     52  CA       -12.4970  -33.4720   36.4890 C.3   275  SER275      0.2055
     53  C        -12.5420  -33.7320   34.9840 C.2   275  SER275      0.2644
     54  O        -12.1660  -32.8660   34.1850 O.2   275  SER275     -0.2714
     55  CB       -13.9080  -33.3960   37.0790 C.3   275  SER275      0.2130
     56  OG       -14.7890  -32.6960   36.2180 O.3   275  SER275     -0.2179
     57  N        -12.9650  -34.9340   34.5980 N.am  276  GLY276     -0.1939
     58  CA       -13.0630  -35.2720   33.1820 C.3   276  GLY276      0.2014
     59  C        -13.9020  -34.2680   32.4050 C.2   276  GLY276      0.2639
     60  O        -13.5110  -33.8110   31.3240 O.2   276  GLY276     -0.2714
     61  N        -15.0580  -33.9090   32.9490 N.am  277  GLY277     -0.1939
     62  CA       -15.9690  -33.0290   32.2380 C.3   277  GLY277      0.2014
     63  C        -15.5040  -31.5880   32.2560 C.2   277  GLY277      0.2638
     64  O        -15.7150  -30.8390   31.2870 O.2   277  GLY277     -0.2714
     65  N        -14.8890  -31.1890   33.3650 N.am  278  GLU278     -0.1977
     66  CA       -14.2950  -29.8600   33.4680 C.3   278  GLU278      0.1602
     67  C        -13.1870  -29.6930   32.4340 C.2   278  GLU278      0.2287
     68  O        -13.0770  -28.6440   31.8040 O.2   278  GLU278     -0.2864
     69  CB       -13.7330  -29.6130   34.8650 C.3   278  GLU278      0.0415
     70  CG       -14.8350  -29.3810   35.9030 C.3   278  GLU278      0.1163
     71  CD       -14.3390  -29.4490   37.3350 C.2   278  GLU278      0.3649
     72  OE1      -13.1720  -29.8470   37.5550 O.co2 278  GLU278     -0.2457
     73  OE2      -15.1310  -29.1010   38.2450 O.co2 278  GLU278     -0.2457
     74  N        -17.8170  -36.6150   27.7290 N.3   309  SER309     -0.1217
     75  CA       -17.5030  -36.4430   29.1490 C.3   309  SER309      0.1889
     76  C        -18.3950  -35.3930   29.8140 C.2   309  SER309      0.2288
     77  O        -18.4440  -35.3120   31.0390 O.2   309  SER309     -0.2866
     78  CB       -16.0240  -36.0620   29.3490 C.3   309  SER309      0.2089
     79  OG       -15.1610  -37.1170   28.9210 O.3   309  SER309     -0.2183
     80  N        -21.6680  -33.6080   31.2430 N.3   311  ASP311     -0.1239
     81  CA       -22.9890  -33.9800   31.7530 C.3   311  ASP311      0.1674
     82  C        -24.0730  -33.2220   30.9890 C.2   311  ASP311      0.2266
     83  O        -23.7750  -32.3840   30.1370 O.2   311  ASP311     -0.2867
     84  CB       -23.1000  -33.7720   33.2740 C.3   311  ASP311      0.1410
     85  CG       -22.9800  -32.3050   33.6920 C.2   311  ASP311      0.3668
     86  OD1      -23.4040  -31.4130   32.9370 O.co2 311  ASP311     -0.2456
     87  OD2      -22.4650  -32.0430   34.7940 O.co2 311  ASP311     -0.2456
@<TRIPOS>BOND
     1    74    75    1
     2    79    78    1
     3    75    78    1
     4    75    76    1
     5    76    77    2
     6    83    82    2
     7    82    81    1
     8    80    81    1
     9    64    63    2
    10    60    59    2
    11    81    84    1
    12    68    67    2
    13    62    63    1
    14    62    61    1
    15    63    65   am
    16    59    61   am
    17    59    58    1
    18    67    66    1
    19    86    85   ar
    20    58    57    1
    21    84    85    1
    22    65    66    1
    23    66    69    1
    24    85    87   ar
    25    54    53    2
    26    49    48    1
    27    57    53   am
    28    69    70    1
    29    53    52    1
    30    47    48    1
    31    47    44    1
    32    48    50    1
    33    70    71    1
    34    46    45    2
    35    56    55    1
    36    52    51    1
    37    52    55    1
    38    45    51   am
    39    45    44    1
    40    44    43    1
    41    43    41   am
    42    39    40    1
    43    71    72   ar
    44    71    73   ar
    45    31    30    2
    46     1     2    1
    47    41    40    1
    48    41    42    2
    49     3     2    1
    50     3     4    2
    51     2     5    1
    52    30    29    1
    53     5     6    1
    54    33    32    1
    55    33    34    1
    56     6     7    1
    57    32    29    1
    58     7     8    1
    59    29    28    1
    60    10     9    1
    61    34    35    1
    62    12    13    1
    63     8     9    2
    64     9    11    1
    65    13    16    1
    66    13    14    1
    67    16    17    1
    68    37    36    1
    69    35    36    2
    70    17    19   ar
    71    17    18   ar
    72    23    22    2
    73    14    15    2
    74    36    38    1
    75    22    21    1
    76    20    21    1
    77    21    24    1
    78    24    26    1
    79    24    25    1
    80    27    25    1
