@<TRIPOS>MOLECULE
tmp/3qf7A00.pdb
 147 141 0 0 0
SMALL
GASTEIGER

@<TRIPOS>ATOM
      1  N         -8.8770  -46.6000    6.0570 N.3    12  LEU12      -0.1231
      2  CA        -9.3950  -47.0220    7.3610 C.3    12  LEU12       0.1693
      3  C        -10.7420  -47.7420    7.1900 C.2    12  LEU12       0.2592
      4  O        -10.8340  -48.7240    6.4440 O.2    12  LEU12      -0.2718
      5  CB        -9.4870  -45.8330    8.3320 C.3    12  LEU12       0.0284
      6  CG        -8.1400  -45.2410    8.7950 C.3    12  LEU12       0.0019
      7  CD1       -8.3270  -43.9700    9.6520 C.3    12  LEU12       0.0001
      8  CD2       -7.3480  -46.2830    9.5700 C.3    12  LEU12       0.0001
      9  N        -11.7800  -47.2650    7.8650 N.am   13  GLY13      -0.1957
     10  CA       -13.0830  -47.9200    7.7840 C.3    13  GLY13       0.1869
     11  C        -13.9600  -47.4280    6.6350 C.2    13  GLY13       0.2309
     12  O        -15.1120  -47.8400    6.4940 O.2    13  GLY13      -0.2863
     13  N        -20.9080  -46.3610   16.4510 N.3    32  ASN32      -0.1225
     14  CA       -19.5210  -46.7920   16.6280 C.3    32  ASN32       0.1785
     15  C        -19.0740  -47.5690   15.4000 C.2    32  ASN32       0.2598
     16  O        -19.8440  -48.3540   14.8470 O.2    32  ASN32      -0.2718
     17  CB       -19.3550  -47.6830   17.8720 C.3    32  ASN32       0.1169
     18  CG       -19.7690  -46.9820   19.1550 C.2    32  ASN32       0.2627
     19  OD1      -20.3150  -47.6060   20.0580 O.2    32  ASN32      -0.2716
     20  ND2      -19.5200  -45.6810   19.2360 N.am   32  ASN32      -0.0877
     21  N        -17.8420  -47.3570   14.9700 N.am   33  GLY33      -0.1942
     22  CA       -17.3500  -48.0420   13.7720 C.3    33  GLY33       0.2014
     23  C        -17.9250  -47.5990   12.4210 C.2    33  GLY33       0.2639
     24  O        -17.6710  -48.2600   11.3990 O.2    33  GLY33      -0.2714
     25  N        -18.6850  -46.4980   12.4010 N.am   34  ALA34      -0.1963
     26  CA       -19.2720  -45.9610   11.1500 C.3    34  ALA34       0.1728
     27  C        -18.2620  -45.4640   10.1130 C.2    34  ALA34       0.2617
     28  O        -18.4810  -45.6060    8.9020 O.2    34  ALA34      -0.2715
     29  CB       -20.2610  -44.8480   11.4600 C.3    34  ALA34       0.0334
     30  N        -17.1780  -44.8470   10.5740 N.am   35  GLY35      -0.1940
     31  CA       -16.2180  -44.2440    9.6650 C.3    35  GLY35       0.2014
     32  C        -16.0080  -42.7560    9.9010 C.2    35  GLY35       0.2639
     33  O        -15.3530  -42.0970    9.1080 O.2    35  GLY35      -0.2714
     34  N        -16.5520  -42.2270   10.9990 N.am   36  LYS36      -0.1963
     35  CA       -16.4720  -40.7900   11.3180 C.3    36  LYS36       0.1728
     36  C        -15.0170  -40.3500   11.5700 C.2    36  LYS36       0.2617
     37  O        -14.5180  -39.4100   10.9550 O.2    36  LYS36      -0.2715
     38  CB       -17.3510  -40.4760   12.5580 C.3    36  LYS36       0.0311
     39  CG       -18.8070  -40.9450   12.4480 C.3    36  LYS36       0.0038
     40  CD       -19.6120  -40.5440   13.7080 C.3    36  LYS36       0.0206
     41  CE       -18.9830  -41.0910   14.9780 C.3    36  LYS36       0.1093
     42  NZ       -19.1210  -42.5610   15.0780 N.3    36  LYS36      -0.1314
     43  N        -14.3290  -41.0250   12.4870 N.am   37  SER37      -0.1936
     44  CA       -12.9310  -40.6750   12.7410 C.3    37  SER37       0.2055
     45  C        -12.0500  -41.0510   11.5380 C.2    37  SER37       0.2643
     46  O        -10.9820  -40.4790   11.3530 O.2    37  SER37      -0.2714
     47  CB       -12.4190  -41.3780   14.0000 C.3    37  SER37       0.2130
     48  OG       -13.0950  -40.8870   15.1360 O.3    37  SER37      -0.2179
     49  N        -12.4890  -42.0170   10.7390 N.am   38  SER38      -0.1949
     50  CA       -11.7680  -42.3150    9.4890 C.3    38  SER38       0.1924
     51  C        -11.7260  -41.1010    8.5670 C.2    38  SER38       0.2314
     52  O        -10.6940  -40.8300    7.9430 O.2    38  SER38      -0.2863
     53  CB       -12.4010  -43.4990    8.7450 C.3    38  SER38       0.2116
     54  OG       -12.3240  -44.6680    9.5310 O.3    38  SER38      -0.2180
     55  N         -4.1490  -42.8480   14.4460 N.3    53  ARG53      -0.1231
     56  CA        -4.1580  -44.1020   15.2120 C.3    53  ARG53       0.1694
     57  C         -3.0250  -45.1000   14.9190 C.2    53  ARG53       0.2592
     58  O         -2.7670  -46.0010   15.7340 O.2    53  ARG53      -0.2718
     59  CB        -5.5030  -44.8130   15.0850 C.3    53  ARG53       0.0321
     60  CG        -5.7080  -45.4900   13.7150 C.3    53  ARG53       0.0489
     61  CD        -7.1430  -46.0110   13.6190 C.3    53  ARG53       0.2205
     62  NE        -8.0780  -44.9080   13.4290 N.pl3  53  ARG53      -0.0865
     63  CZ        -9.4000  -45.0360   13.4480 C.cat  53  ARG53       0.5346
     64  NH1       -9.9610  -46.2300   13.6590 N.pl3  53  ARG53       0.1354
     65  NH2      -10.1560  -43.9640   13.2610 N.pl3  53  ARG53       0.1354
     66  N         -2.3570  -44.9420   13.7840 N.am   54  TYR54      -0.1976
     67  CA        -1.3020  -45.8730   13.3550 C.3    54  TYR54       0.1639
     68  C         -0.0010  -45.1360   13.0240 C.2    54  TYR54       0.2290
     69  O         -0.0230  -44.1130   12.3400 O.2    54  TYR54      -0.2864
     70  CB        -1.7110  -46.5960   12.0640 C.3    54  TYR54       0.0560
     71  CG        -2.8960  -47.5470   12.1420 C.ar   54  TYR54      -0.0198
     72  CD1       -2.9150  -48.6130   13.0310 C.ar   54  TYR54      -0.0009
     73  CD2       -3.9620  -47.4110   11.2530 C.ar   54  TYR54      -0.0009
     74  CE1       -4.0060  -49.5160   13.0620 C.ar   54  TYR54       0.0417
     75  CE2       -5.0350  -48.2850   11.2730 C.ar   54  TYR54       0.0417
     76  CZ        -5.0500  -49.3370   12.1570 C.ar   54  TYR54       0.1957
     77  OH        -6.1310  -50.1920   12.1350 O.3    54  TYR54      -0.2866
     78  N         -0.8040  -49.1350    7.1890 N.3    59  ASP59      -0.1239
     79  CA        -1.9020  -49.5980    8.0400 C.3    59  ASP59       0.1674
     80  C         -3.1970  -48.8270    7.8340 C.2    59  ASP59       0.2266
     81  O         -4.2690  -49.2930    8.2320 O.2    59  ASP59      -0.2867
     82  CB        -1.5020  -49.5430    9.5100 C.3    59  ASP59       0.1410
     83  CG        -0.6730  -50.7420    9.9200 C.2    59  ASP59       0.3668
     84  OD1       -1.1200  -51.8880    9.6730 O.co2  59  ASP59      -0.2456
     85  OD2        0.4310  -50.5400   10.4570 O.co2  59  ASP59      -0.2456
     86  N         -4.5340  -48.2970    4.9690 N.3    61  VAL61      -0.1231
     87  CA        -5.3240  -48.8690    3.8750 C.3    61  VAL61       0.1692
     88  C         -6.4240  -49.7710    4.4550 C.2    61  VAL61       0.2592
     89  O         -6.1620  -50.6010    5.3260 O.2    61  VAL61      -0.2718
     90  CB        -4.4500  -49.6600    2.8720 C.3    61  VAL61       0.0266
     91  CG1       -5.3270  -50.2950    1.7910 C.3    61  VAL61       0.0020
     92  CG2       -3.3990  -48.7370    2.2300 C.3    61  VAL61       0.0020
     93  N         -7.6530  -49.5860    3.9770 N.am   62  ASN62      -0.1960
     94  CA        -8.7830  -50.4410    4.3780 C.3    62  ASN62       0.1819
     95  C         -8.4440  -51.8840    4.0290 C.2    62  ASN62       0.2621
     96  O         -8.2670  -52.2130    2.8480 O.2    62  ASN62      -0.2715
     97  CB       -10.0600  -50.0000    3.6540 C.3    62  ASN62       0.1195
     98  CG       -11.3060  -50.7540    4.1200 C.2    62  ASN62       0.2630
     99  OD1      -11.2420  -51.9370    4.4390 O.2    62  ASN62      -0.2716
    100  ND2      -12.4460  -50.0620    4.1570 N.am   62  ASN62      -0.0877
    101  N         -8.3360  -52.7480    5.0390 N.am   63  ARG63      -0.1963
    102  CA        -7.8440  -54.1050    4.7780 C.3    63  ARG63       0.1729
    103  C         -8.8040  -54.9310    3.9200 C.2    63  ARG63       0.2616
    104  O         -8.4460  -56.0080    3.4390 O.2    63  ARG63      -0.2715
    105  CB        -7.4690  -54.8330    6.0720 C.3    63  ARG63       0.0348
    106  CG        -6.3400  -54.1300    6.8630 C.3    63  ARG63       0.0492
    107  CD        -5.5680  -55.0980    7.7620 C.3    63  ARG63       0.2205
    108  NE        -4.8880  -56.1230    6.9680 N.pl3  63  ARG63      -0.0865
    109  CZ        -4.9450  -57.4300    7.2250 C.cat  63  ARG63       0.5346
    110  NH1       -4.3070  -58.2990    6.4470 N.pl3  63  ARG63       0.1354
    111  NH2       -5.6490  -57.8730    8.2550 N.pl3  63  ARG63       0.1354
    112  N        -10.0100  -54.4080    3.7200 N.am   64  ASN64      -0.1972
    113  CA       -10.9940  -55.0310    2.8330 C.3    64  ASN64       0.1688
    114  C        -10.7810  -54.7320    1.3470 C.2    64  ASN64       0.2292
    115  O        -11.4860  -55.2740    0.4960 O.2    64  ASN64      -0.2864
    116  CB       -12.4040  -54.5860    3.2170 C.3    64  ASN64       0.1181
    117  CG       -12.8270  -55.1100    4.5560 C.2    64  ASN64       0.2629
    118  OD1      -13.1510  -56.2950    4.6930 O.2    64  ASN64      -0.2716
    119  ND2      -12.8250  -54.2360    5.5650 N.am   64  ASN64      -0.0877
    120  N        -10.1400  -37.7490   18.6100 N.3   142  GLN142     -0.1245
    121  CA       -10.9530  -38.4110   19.6190 C.3   142  GLN142      0.1566
    122  C        -10.0880  -38.9080   20.7690 C.2   142  GLN142      0.2260
    123  O         -9.0730  -39.5710   20.5460 O.2   142  GLN142     -0.2867
    124  CB       -11.6940  -39.5800   18.9890 C.3   142  GLN142      0.0367
    125  CG       -12.6340  -40.3310   19.9630 C.3   142  GLN142      0.0905
    126  CD       -13.4990  -41.2890   19.1900 C.2   142  GLN142      0.2608
    127  OE1      -13.2460  -41.4960   18.0150 O.2   142  GLN142     -0.2717
    128  NE2      -14.5220  -41.8640   19.8250 N.am  142  GLN142     -0.0878
    129  N        -15.4970  -35.9250   18.6750 N.3   305  GLU305     -0.1245
    130  CA       -16.0760  -36.4780   19.8930 C.3   305  GLU305      0.1567
    131  C        -15.3650  -35.9340   21.1230 C.2   305  GLU305      0.2260
    132  O        -14.8010  -36.6880   21.9190 O.2   305  GLU305     -0.2867
    133  CB       -16.0390  -38.0120   19.8730 C.3   305  GLU305      0.0388
    134  CG       -16.7380  -38.6380   18.6620 C.3   305  GLU305      0.1160
    135  CD       -17.1310  -40.0890   18.8850 C.2   305  GLU305      0.3649
    136  OE1      -16.7380  -40.6480   19.9300 O.co2 305  GLU305     -0.2457
    137  OE2      -17.8390  -40.6700   18.0310 O.co2 305  GLU305     -0.2457
    138  N        -21.2870  -39.6720   18.0980 N.3   337  HIS337     -0.1241
    139  CA       -22.2170  -40.7900   18.0200 C.3   337  HIS337      0.1621
    140  C        -23.4730  -40.4510   18.8290 C.2   337  HIS337      0.2264
    141  O        -24.4180  -41.2340   18.8840 O.2   337  HIS337     -0.2867
    142  CB       -21.5630  -42.0530   18.5990 C.3   337  HIS337      0.0745
    143  CG       -21.0930  -41.8780   20.0090 C.ar  337  HIS337      0.0817
    144  ND1      -19.9460  -41.1790   20.3230 N.ar  337  HIS337     -0.2268
    145  CD2      -21.6400  -42.2480   21.1900 C.ar  337  HIS337      0.1154
    146  CE1      -19.7890  -41.1570   21.6360 C.ar  337  HIS337      0.1986
    147  NE2      -20.8040  -41.8000   22.1850 N.ar  337  HIS337     -0.2212
@<TRIPOS>BOND
     1   115   114    2
     2   114   113    1
     3    91    90    1
     4    92    90    1
     5   113   116    1
     6   113   112    1
     7    96    95    2
     8    90    87    1
     9   116   117    1
    10   104   103    2
    11    97    98    1
    12    97    94    1
    13   112   103   am
    14    87    88    1
    15    87    86    1
    16   103   102    1
    17    93    94    1
    18    93    88   am
    19    95    94    1
    20    95   101   am
    21    98   100   am
    22    98    99    2
    23    88    89    2
    24   117   118    2
    25   117   119   am
    26   102   101    1
    27   102   105    1
    28     1     2    1
    29   105   106    1
    30     4     3    2
    31   110   109    1
    32    12    11    2
    33    11    10    1
    34   106   107    1
    35   108   109    2
    36   108   107    1
    37    78    79    1
    38     3     2    1
    39     3     9   am
    40   109   111    1
    41     2     5    1
    42    10     9    1
    43    80    79    1
    44    80    81    2
    45    52    51    2
    46    79    82    1
    47     5     6    1
    48    51    50    1
    49    53    50    1
    50    53    54    1
    51     6     8    1
    52     6     7    1
    53    28    27    2
    54    33    32    2
    55    50    49    1
    56    82    83    1
    57    31    32    1
    58    31    30    1
    59    84    83   ar
    60    32    34   am
    61    83    85   ar
    62    27    30   am
    63    27    26    1
    64    49    45   am
    65    37    36    2
    66    34    35    1
    67    26    29    1
    68    26    25    1
    69    73    75   ar
    70    73    71   ar
    71    75    76   ar
    72    35    36    1
    73    35    38    1
    74    46    45    2
    75    24    23    2
    76    45    44    1
    77    36    43   am
    78    70    71    1
    79    70    67    1
    80    77    76    1
    81    71    72   ar
    82    76    74   ar
    83    69    68    2
    84    25    23   am
    85    23    22    1
    86    39    38    1
    87    39    40    1
    88    43    44    1
    89    44    47    1
    90    68    67    1
    91    72    74   ar
    92    65    63    1
    93    67    66    1
    94    62    63    2
    95    62    61    1
    96    63    64    1
    97    61    60    1
    98    40    41    1
    99    60    59    1
   100    22    21    1
   101    66    57   am
   102    47    48    1
   103    55    56    1
   104    16    15    2
   105    57    56    1
   106    57    58    2
   107    21    15   am
   108    41    42    1
   109    59    56    1
   110    15    14    1
   111    13    14    1
   112    14    17    1
   113    17    18    1
   114   127   126    2
   115   139   138    1
   116   139   142    1
   117   139   140    1
   118   137   135   ar
   119   142   143    1
   120   120   121    1
   121   134   135    1
   122   134   133    1
   123   129   130    1
   124   140   141    2
   125   135   136   ar
   126   124   121    1
   127   124   125    1
   128    18    20   am
   129    18    19    2
   130   126   128   am
   131   126   125    1
   132   121   122    1
   133   133   130    1
   134   130   131    1
   135   143   144   ar
   136   143   145   ar
   137   144   146   ar
   138   123   122    2
   139   131   132    2
   140   145   147   ar
   141   146   147   ar
