@<TRIPOS>MOLECULE
tmp/3qf9A00.pdb
 171 161 0 0 0
SMALL
GASTEIGER

@<TRIPOS>ATOM
      1  N        -25.0420   33.8480   -3.8470 N.3    13  LEU13      -0.1231
      2  CA       -24.1870   34.9890   -4.2080 C.3    13  LEU13       0.1693
      3  C        -22.9570   34.5400   -5.0030 C.2    13  LEU13       0.2592
      4  O        -22.4550   35.2570   -5.8960 O.2    13  LEU13      -0.2718
      5  CB       -23.7160   35.7060   -2.9410 C.3    13  LEU13       0.0284
      6  CG       -24.7990   36.2310   -1.9970 C.3    13  LEU13       0.0019
      7  CD1      -24.1760   36.8600   -0.7580 C.3    13  LEU13       0.0001
      8  CD2      -25.6620   37.2360   -2.7370 C.3    13  LEU13       0.0001
      9  N        -22.4500   33.3630   -4.6520 N.am   14  GLY14      -0.1957
     10  CA       -21.3200   32.7830   -5.3620 C.3    14  GLY14       0.1869
     11  C        -20.8960   31.4350   -4.8060 C.2    14  GLY14       0.2309
     12  O        -21.4540   30.9450   -3.8060 O.2    14  GLY14      -0.2863
     13  N        -14.0150   28.8130   -2.1280 N.3    18  PHE18      -0.1241
     14  CA       -14.5380   29.2640   -0.8170 C.3    18  PHE18       0.1605
     15  C        -15.7560   28.4440   -0.3070 C.2    18  PHE18       0.2264
     16  O        -15.8850   28.2120    0.8920 O.2    18  PHE18      -0.2867
     17  CB       -14.8450   30.8010   -0.7970 C.3    18  PHE18       0.0534
     18  CG       -15.5460   31.3700   -2.0650 C.ar   18  PHE18      -0.0203
     19  CD1      -16.9390   31.5950   -2.0870 C.ar   18  PHE18      -0.0042
     20  CD2      -14.7980   31.7420   -3.1980 C.ar   18  PHE18      -0.0042
     21  CE1      -17.5780   32.1360   -3.2280 C.ar   18  PHE18      -0.0003
     22  CE2      -15.4270   32.2790   -4.3410 C.ar   18  PHE18      -0.0003
     23  CZ       -16.8150   32.4800   -4.3530 C.ar   18  PHE18      -0.0000
     24  N        -22.2690   30.4200   -0.9590 N.3    21  VAL21      -0.1245
     25  CA       -22.6080   31.5450   -0.0980 C.3    21  VAL21       0.1561
     26  C        -23.9320   32.0940   -0.5450 C.2    21  VAL21       0.2260
     27  O        -24.0770   32.4580   -1.7100 O.2    21  VAL21      -0.2867
     28  CB       -21.5330   32.6500   -0.1960 C.3    21  VAL21       0.0252
     29  CG1      -21.7860   33.7130    0.8580 C.3    21  VAL21       0.0019
     30  CG2      -20.1430   32.0420   -0.0460 C.3    21  VAL21       0.0019
     31  N        -25.0750   37.1050    4.9620 N.3    34  ALA34      -0.1245
     32  CA       -24.5620   36.1840    3.9630 C.3    34  ALA34       0.1562
     33  C        -24.3800   34.8410    4.7160 C.2    34  ALA34       0.2260
     34  O        -23.8780   34.8060    5.8360 O.2    34  ALA34      -0.2867
     35  CB       -23.2650   36.7260    3.3590 C.3    34  ALA34       0.0290
     36  N        -22.7960   31.2870    4.5700 N.3    36  LYS36      -0.1245
     37  CA       -21.7330   30.5360    3.9220 C.3    36  LYS36       0.1561
     38  C        -21.7020   29.0850    4.4060 C.2    36  LYS36       0.2260
     39  O        -21.6480   28.8040    5.6020 O.2    36  LYS36      -0.2867
     40  CB       -20.3670   31.1770    4.2080 C.3    36  LYS36       0.0271
     41  CG       -19.1700   30.4360    3.5740 C.3    36  LYS36       0.0035
     42  CD       -17.8620   31.1620    3.8590 C.3    36  LYS36       0.0206
     43  CE       -16.7400   30.7260    2.9460 C.3    36  LYS36       0.1093
     44  NZ       -15.4030   31.4010    3.3130 N.3    36  LYS36      -0.1314
     45  N        -11.2100   28.6900   10.0110 N.3    58  GLU58      -0.1245
     46  CA       -11.8650   29.8720    9.5370 C.3    58  GLU58       0.1567
     47  C        -12.7290   30.4970   10.6130 C.2    58  GLU58       0.2260
     48  O        -12.7880   31.7500   10.7400 O.2    58  GLU58      -0.2867
     49  CB       -12.6970   29.5520    8.3100 C.3    58  GLU58       0.0388
     50  CG       -13.5460   30.7100    7.8070 C.3    58  GLU58       0.1160
     51  CD       -14.1290   30.4670    6.4140 C.2    58  GLU58       0.3649
     52  OE1      -14.0420   29.3050    5.9490 O.co2  58  GLU58      -0.2457
     53  OE2      -14.6650   31.4350    5.7840 O.co2  58  GLU58      -0.2457
     54  N        -12.2050   34.1210   12.3170 N.3    62  LEU62      -0.1245
     55  CA       -13.2420   35.1620   12.2800 C.3    62  LEU62       0.1561
     56  C        -13.6170   35.6510   13.6760 C.2    62  LEU62       0.2260
     57  O        -13.8610   36.8410   13.8770 O.2    62  LEU62      -0.2867
     58  CB       -14.4720   34.7230   11.5020 C.3    62  LEU62       0.0270
     59  CG       -14.3720   34.6160    9.9970 C.3    62  LEU62       0.0019
     60  CD1      -15.3860   33.6100    9.4520 C.3    62  LEU62       0.0001
     61  CD2      -14.5320   35.9630    9.3310 C.3    62  LEU62       0.0001
     62  N        -14.9720   41.6990    7.6170 N.3    73  ILE73      -0.1245
     63  CA       -16.2790   41.1120    7.7180 C.3    73  ILE73       0.1561
     64  C        -16.5030   40.4550    9.0990 C.2    73  ILE73       0.2260
     65  O        -15.6460   39.7580    9.6200 O.2    73  ILE73      -0.2867
     66  CB       -16.4250   39.9980    6.6830 C.3    73  ILE73       0.0252
     67  CG1      -17.9060   39.8520    6.2860 C.3    73  ILE73       0.0019
     68  CG2      -15.7080   38.6860    7.1970 C.3    73  ILE73       0.0019
     69  CD1      -18.3760   41.0820    5.4510 C.3    73  ILE73       0.0001
     70  N        -22.5550   35.5810    8.1760 N.3    89  LEU89      -0.1231
     71  CA       -21.7480   36.7670    8.0900 C.3    89  LEU89       0.1693
     72  C        -22.5800   38.0110    7.7990 C.2    89  LEU89       0.2592
     73  O        -23.6820   37.9360    7.2670 O.2    89  LEU89      -0.2718
     74  CB       -20.7290   36.5930    6.9680 C.3    89  LEU89       0.0284
     75  CG       -19.8530   35.3520    7.1240 C.3    89  LEU89       0.0019
     76  CD1      -19.5920   34.6660    5.8190 C.3    89  LEU89       0.0001
     77  CD2      -18.5820   35.6950    7.7880 C.3    89  LEU89       0.0001
     78  N        -22.0290   39.1510    8.1870 N.am   90  GLU90      -0.1966
     79  CA       -22.5040   40.4780    7.7700 C.3    90  GLU90       0.1733
     80  C        -22.7000   40.5260    6.2780 C.2    90  GLU90       0.2616
     81  O        -21.9380   39.9100    5.5380 O.2    90  GLU90      -0.2715
     82  CB       -21.4030   41.5150    8.0280 C.3    90  GLU90       0.0429
     83  CG       -21.6260   42.4620    9.1390 C.3    90  GLU90       0.1163
     84  CD       -20.5490   43.5340    9.1440 C.2    90  GLU90       0.3649
     85  OE1      -19.4000   43.2370    8.7060 O.co2  90  GLU90      -0.2457
     86  OE2      -20.8450   44.6620    9.6020 O.co2  90  GLU90      -0.2457
     87  N        -23.6610   41.3200    5.8350 N.am   91  ARG91      -0.1964
     88  CA       -23.7730   41.6510    4.4060 C.3    91  ARG91       0.1714
     89  C        -24.0740   43.1390    4.2180 C.2    91  ARG91       0.2458
     90  O        -25.1650   43.5930    4.4600 O.2    91  ARG91      -0.2730
     91  CB       -24.8050   40.7810    3.6930 C.3    91  ARG91       0.0347
     92  CG       -24.9280   41.0810    2.2060 C.3    91  ARG91       0.0492
     93  CD       -25.8060   40.0450    1.5030 C.3    91  ARG91       0.2205
     94  NE       -27.1430   39.9020    2.0940 N.pl3  91  ARG91      -0.0865
     95  CZ       -28.2190   40.6200    1.7720 C.cat  91  ARG91       0.5346
     96  NH1      -28.1610   41.5810    0.8550 N.pl3  91  ARG91       0.1354
     97  NH2      -29.3840   40.3710    2.3730 N.pl3  91  ARG91       0.1354
     98  N        -23.0780   43.9000    3.7680 N.am   92  PRO92      -0.2727
     99  CA       -23.3760   45.2570    3.3530 C.3    92  PRO92       0.1402
    100  C        -24.2620   45.2550    2.0960 C.2    92  PRO92       0.2269
    101  O        -24.2010   44.3540    1.2630 O.2    92  PRO92      -0.2865
    102  CB       -21.9990   45.8460    3.0430 C.3    92  PRO92       0.0296
    103  CG       -20.9600   44.8170    3.5160 C.3    92  PRO92       0.0237
    104  CD       -21.6900   43.5080    3.4740 C.3    92  PRO92       0.0939
    105  N        -23.5520   46.4610   -2.3030 N.3    95  VAL95      -0.1231
    106  CA       -22.1680   46.0440   -2.2790 C.3    95  VAL95       0.1692
    107  C        -21.6790   45.6180   -3.6830 C.2    95  VAL95       0.2592
    108  O        -22.4680   45.1990   -4.5270 O.2    95  VAL95      -0.2718
    109  CB       -22.0180   44.8670   -1.2970 C.3    95  VAL95       0.0266
    110  CG1      -22.5370   43.5800   -1.9290 C.3    95  VAL95       0.0020
    111  CG2      -20.6530   44.7120   -0.8780 C.3    95  VAL95       0.0020
    112  N        -20.3810   45.7720   -3.9220 N.am   96  GLN96      -0.1966
    113  CA       -19.6880   45.1740   -5.0730 C.3    96  GLN96       0.1733
    114  C        -18.3060   44.7680   -4.6610 C.2    96  GLN96       0.2616
    115  O        -17.6310   45.4830   -3.8570 O.2    96  GLN96      -0.2715
    116  CB       -19.5720   46.1240   -6.2730 C.3    96  GLN96       0.0408
    117  CG       -19.1780   45.3910   -7.5970 C.3    96  GLN96       0.0908
    118  CD       -19.1460   46.3100   -8.7900 C.2    96  GLN96       0.2608
    119  OE1      -18.7410   47.4450   -8.6710 O.2    96  GLN96      -0.2717
    120  NE2      -19.5680   45.8200   -9.9440 N.am   96  GLN96      -0.0878
    121  N        -17.8500   43.6290   -5.1940 N.am   97  ASP97      -0.1971
    122  CA       -16.5110   43.1760   -4.8600 C.3    97  ASP97       0.1709
    123  C        -15.5280   43.9640   -5.6920 C.2    97  ASP97       0.2293
    124  O        -15.8830   44.4920   -6.7690 O.2    97  ASP97      -0.2864
    125  CB       -16.3590   41.6290   -4.8760 C.3    97  ASP97       0.1436
    126  CG       -16.1420   41.0430   -6.2380 C.2    97  ASP97       0.3671
    127  OD1      -16.7040   39.9430   -6.4740 O.co2  97  ASP97      -0.2456
    128  OD2      -15.3800   41.6340   -7.0430 O.co2  97  ASP97      -0.2456
    129  N        -14.8810   42.7880   -9.5150 N.3   100  ASP100     -0.1239
    130  CA       -15.8680   43.2900  -10.4840 C.3   100  ASP100      0.1674
    131  C        -15.7940   44.8120  -10.6370 C.2   100  ASP100      0.2266
    132  O        -16.0200   45.3530  -11.7040 O.2   100  ASP100     -0.2867
    133  CB       -17.2870   42.9260  -10.0290 C.3   100  ASP100      0.1410
    134  CG       -17.5780   41.4470  -10.1220 C.2   100  ASP100      0.3668
    135  OD1      -16.8060   40.7080  -10.7970 O.co2 100  ASP100     -0.2456
    136  OD2      -18.6010   41.0330   -9.5250 O.co2 100  ASP100     -0.2456
    137  N        -14.8630   43.5310   -0.3000 N.3   143  LEU143     -0.1245
    138  CA       -16.1690   44.1020   -0.6190 C.3   143  LEU143      0.1561
    139  C        -16.1540   45.5980   -0.4200 C.2   143  LEU143      0.2260
    140  O        -15.5250   46.1080    0.5160 O.2   143  LEU143     -0.2867
    141  CB       -17.2780   43.5150    0.2490 C.3   143  LEU143      0.0270
    142  CG       -17.4580   41.9950    0.1830 C.3   143  LEU143      0.0019
    143  CD1      -18.6430   41.5900    1.0530 C.3   143  LEU143      0.0001
    144  CD2      -17.6310   41.4850   -1.2610 C.3   143  LEU143      0.0001
    145  N        -12.9410   39.9150    3.2560 N.3   154  ILE154     -0.1231
    146  CA       -13.6960   38.6990    3.4390 C.3   154  ILE154      0.1692
    147  C        -12.8560   37.4750    3.1900 C.2   154  ILE154      0.2592
    148  O        -11.7560   37.5740    2.7240 O.2   154  ILE154     -0.2718
    149  CB       -14.9230   38.6380    2.5120 C.3   154  ILE154      0.0266
    150  CG1      -14.5210   38.6590    1.0400 C.3   154  ILE154      0.0019
    151  CG2      -15.8960   39.7970    2.8550 C.3   154  ILE154      0.0020
    152  CD1      -15.6400   38.1970    0.0910 C.3   154  ILE154      0.0001
    153  N        -13.4100   36.3280    3.5560 N.am  155  ASP155     -0.1960
    154  CA       -12.8980   34.9890    3.2320 C.3   155  ASP155      0.1840
    155  C        -11.5840   34.6280    3.8850 C.2   155  ASP155      0.2622
    156  O        -10.5240   34.6250    3.2570 O.2   155  ASP155     -0.2715
    157  CB       -12.8000   34.7640    1.7270 C.3   155  ASP155      0.1450
    158  CG       -12.6580   33.2950    1.3690 C.2   155  ASP155      0.3671
    159  OD1      -12.6000   32.4200    2.2970 O.co2 155  ASP155     -0.2456
    160  OD2      -12.6000   33.0130    0.1430 O.co2 155  ASP155     -0.2456
    161  N        -11.7010   34.2630    5.1470 N.am  156  PHE156     -0.1974
    162  CA       -10.5690   33.8200    5.9550 C.3   156  PHE156      0.1639
    163  C        -10.3150   32.3180    5.8630 C.2   156  PHE156      0.2290
    164  O         -9.5770   31.7730    6.6530 O.2   156  PHE156     -0.2864
    165  CB       -10.7980   34.2360    7.4040 C.3   156  PHE156      0.0560
    166  CG       -10.6590   35.7110    7.6240 C.ar  156  PHE156     -0.0200
    167  CD1       -9.5270   36.2260    8.2240 C.ar  156  PHE156     -0.0042
    168  CD2      -11.6520   36.5890    7.2300 C.ar  156  PHE156     -0.0042
    169  CE1       -9.4020   37.5950    8.4230 C.ar  156  PHE156     -0.0003
    170  CE2      -11.5100   37.9550    7.4320 C.ar  156  PHE156     -0.0003
    171  CZ       -10.3950   38.4440    8.0410 C.ar  156  PHE156     -0.0000
@<TRIPOS>BOND
     1   132   131    2
     2   135   134   ar
     3   131   130    1
     4   130   133    1
     5   130   129    1
     6   134   133    1
     7   134   136   ar
     8   120   118   am
     9   118   119    2
    10   118   117    1
    11   117   116    1
    12   128   126   ar
    13   124   123    2
    14   127   126   ar
    15   116   113    1
    16   126   125    1
    17     4     3    2
    18   123   122    1
    19    10    11    1
    20    10     9    1
    21   121   122    1
    22   121   114   am
    23   113   114    1
    24   113   112    1
    25     3     9   am
    26     3     2    1
    27   125   122    1
    28    11    12    2
    29   114   115    2
    30   108   107    2
    31    23    22   ar
    32    23    21   ar
    33    22    20   ar
    34     2     1    1
    35     2     5    1
    36   112   107   am
    37   107   106    1
    38    21    19   ar
    39    20    18   ar
    40     5     6    1
    41     8     6    1
    42   105   106    1
    43   106   109    1
    44    13    14    1
    45    19    18   ar
    46    18    17    1
    47     6     7    1
    48   110   109    1
    49    27    26    2
    50   109   111    1
    51   144   142    1
    52    24    25    1
    53    14    17    1
    54    14    15    1
    55   138   139    1
    56   138   137    1
    57   138   141    1
    58    26    25    1
    59   139   140    2
    60    15    16    2
    61    28    25    1
    62    28    30    1
    63    28    29    1
    64   152   150    1
    65   160   158   ar
    66   142   141    1
    67   142   143    1
    68    96    95    1
    69   150   149    1
    70   101   100    2
    71   158   157    1
    72   158   159   ar
    73    93    94    1
    74    93    92    1
    75   157   154    1
    76    95    94    2
    77    95    97    1
    78   100    99    1
    79    92    91    1
    80   149   151    1
    81   149   146    1
    82   148   147    2
    83    43    44    1
    84    43    42    1
    85   102    99    1
    86   102   103    1
    87   147   146    1
    88   147   153   am
    89   154   153    1
    90   154   155    1
    91   145   146    1
    92   156   155    2
    93    99    98    1
    94    35    32    1
    95   104   103    1
    96   104    98    1
    97    41    42    1
    98    41    40    1
    99    91    88    1
   100    98    89   am
   101   155   161   am
   102    37    40    1
   103    37    38    1
   104    37    36    1
   105    32    33    1
   106    32    31    1
   107    89    88    1
   108    89    90    2
   109    38    39    2
   110    88    87    1
   111    33    34    2
   112   161   162    1
   113    69    67    1
   114    81    80    2
   115    53    51   ar
   116    76    75    1
   117    87    80   am
   118   163   162    1
   119   163   164    2
   120    52    51   ar
   121   162   165    1
   122    80    79    1
   123    67    66    1
   124    51    50    1
   125    66    68    1
   126    66    63    1
   127    74    75    1
   128    74    71    1
   129    75    77    1
   130   168   170   ar
   131   168   166   ar
   132    73    72    2
   133   165   166    1
   134   170   171   ar
   135    62    63    1
   136   166   167   ar
   137    63    64    1
   138    79    82    1
   139    79    78    1
   140    72    71    1
   141    72    78   am
   142    50    49    1
   143    82    83    1
   144   171   169   ar
   145    71    70    1
   146   167   169   ar
   147    49    46    1
   148    85    84   ar
   149    64    65    2
   150    83    84    1
   151    84    86   ar
   152    61    59    1
   153    60    59    1
   154    46    45    1
   155    46    47    1
   156    59    58    1
   157    47    48    2
   158    58    55    1
   159    55    54    1
   160    55    56    1
   161    56    57    2
