@<TRIPOS>MOLECULE
tmp/3qfcB02.pdb
 195 185 0 0 0
SMALL
GASTEIGER

@<TRIPOS>ATOM
      1  N         11.7360   38.6080  -11.9120 N.3   229  ARG229     -0.1245
      2  CA        11.1990   37.7910  -12.9940 C.3   229  ARG229      0.1563
      3  C         10.6850   36.4720  -12.4370 C.2   229  ARG229      0.2260
      4  O         11.2070   35.9640  -11.4450 O.2   229  ARG229     -0.2867
      5  CB        12.2680   37.5100  -14.0500 C.3   229  ARG229      0.0307
      6  CG        12.7260   38.7270  -14.8310 C.3   229  ARG229      0.0489
      7  CD        13.2330   38.3090  -16.2020 C.3   229  ARG229      0.2205
      8  NE        14.2850   37.2990  -16.1160 N.pl3 229  ARG229     -0.0865
      9  CZ        14.6790   36.5420  -17.1360 C.cat 229  ARG229      0.5346
     10  NH1       14.1060   36.6780  -18.3250 N.pl3 229  ARG229      0.1354
     11  NH2       15.6440   35.6490  -16.9680 N.pl3 229  ARG229      0.1354
     12  N          9.8810   32.5610  -13.5550 N.3   231  LEU231     -0.1245
     13  CA         9.9210   31.4560  -14.5050 C.3   231  LEU231      0.1561
     14  C          9.3250   30.2470  -13.7940 C.2   231  LEU231      0.2260
     15  O          9.7680   29.8800  -12.7040 O.2   231  LEU231     -0.2867
     16  CB        11.3600   31.1810  -14.9460 C.3   231  LEU231      0.0270
     17  CG        11.9950   32.2930  -15.7910 C.3   231  LEU231      0.0019
     18  CD1       12.2210   33.5300  -14.9410 C.3   231  LEU231      0.0001
     19  CD2       13.3090   31.8110  -16.3710 C.3   231  LEU231      0.0001
     20  N          8.1780   31.9060  -18.9230 N.3   405  VAL405     -0.1245
     21  CA         8.6100   33.0870  -18.1800 C.3   405  VAL405      0.1561
     22  C          7.4690   34.0990  -18.2260 C.2   405  VAL405      0.2260
     23  O          7.0540   34.5300  -19.3030 O.2   405  VAL405     -0.2867
     24  CB         9.8860   33.7220  -18.7960 C.3   405  VAL405      0.0252
     25  CG1        9.6560   34.0660  -20.2620 C.3   405  VAL405      0.0019
     26  CG2       10.2720   34.9710  -18.0140 C.3   405  VAL405      0.0019
     27  N         19.2120   29.0740  -24.8410 N.3   451  PRO451     -0.2102
     28  CA        19.3470   29.8780  -23.6240 C.3   451  PRO451      0.1504
     29  C         17.9680   30.3040  -23.1090 C.2   451  PRO451      0.2576
     30  O         16.9990   30.3510  -23.8700 O.2   451  PRO451     -0.2718
     31  CB        20.2060   31.0510  -24.0870 C.3   451  PRO451      0.0282
     32  CG        19.7940   31.2220  -25.5120 C.3   451  PRO451      0.0208
     33  CD        19.7340   29.7990  -26.0150 C.3   451  PRO451      0.0893
     34  N         17.8820   30.6010  -21.8160 N.am  452  GLY452     -0.1943
     35  CA        16.6130   31.0000  -21.2350 C.3   452  GLY452      0.2014
     36  C         15.5490   29.9280  -21.3840 C.2   452  GLY452      0.2639
     37  O         15.8390   28.7370  -21.2600 O.2   452  GLY452     -0.2714
     38  N         14.3160   30.3480  -21.6490 N.am  453  THR453     -0.1950
     39  CA        13.2090   29.4170  -21.8180 C.3   453  THR453      0.1897
     40  C         13.3680   28.5710  -23.0790 C.2   453  THR453      0.2313
     41  O         12.5480   27.6930  -23.3520 O.2   453  THR453     -0.2863
     42  CB        11.8550   30.1570  -21.8840 C.3   453  THR453      0.1794
     43  OG1       11.8870   31.1290  -22.9370 O.3   453  THR453     -0.2208
     44  CG2       11.5660   30.8530  -20.5610 C.3   453  THR453      0.0378
     45  N         22.1200   29.0650  -21.4590 N.3   483  GLY483     -0.1210
     46  CA        22.5440   30.3650  -20.9780 C.3   483  GLY483      0.1956
     47  C         21.5250   31.0670  -20.1010 C.2   483  GLY483      0.2612
     48  O         20.3170   30.9480  -20.3120 O.2   483  GLY483     -0.2717
     49  N         22.0250   31.7920  -19.1020 N.am  484  CYS484     -0.1956
     50  CA        21.1810   32.5590  -18.1890 C.3   484  CYS484      0.1843
     51  C         22.0030   33.7180  -17.6260 C.2   484  CYS484      0.2625
     52  O         23.2030   33.8170  -17.8850 O.2   484  CYS484     -0.2714
     53  CB        20.6400   31.6720  -17.0550 C.3   484  CYS484      0.0997
     54  SG        21.8710   30.9160  -15.9680 S.3   484  CYS484     -0.0797
     55  N         21.3580   34.5960  -16.8630 N.am  485  ARG485     -0.1977
     56  CA        22.0320   35.7600  -16.2860 C.3   485  ARG485      0.1597
     57  C         23.1300   35.4270  -15.2710 C.2   485  ARG485      0.2287
     58  O         24.2880   35.8040  -15.4550 O.2   485  ARG485     -0.2864
     59  CB        20.9970   36.6810  -15.6390 C.3   485  ARG485      0.0334
     60  CG        20.0460   37.3500  -16.6240 C.3   485  ARG485      0.0492
     61  CD        19.0480   38.2270  -15.8820 C.3   485  ARG485      0.2205
     62  NE        18.2970   39.1330  -16.7520 N.pl3 485  ARG485     -0.0865
     63  CZ        17.5450   38.7460  -17.7760 C.cat 485  ARG485      0.5346
     64  NH1       17.4390   37.4620  -18.0770 N.pl3 485  ARG485      0.1354
     65  NH2       16.8870   39.6480  -18.4930 N.pl3 485  ARG485      0.1354
     66  N         18.9040   32.7630  -12.2870 N.3   490  ASP490     -0.1239
     67  CA        17.9150   32.0630  -13.0970 C.3   490  ASP490      0.1674
     68  C         18.4470   30.8980  -13.9320 C.2   490  ASP490      0.2266
     69  O         18.2410   30.8440  -15.1450 O.2   490  ASP490     -0.2867
     70  CB        17.2020   33.0770  -13.9980 C.3   490  ASP490      0.1410
     71  CG        18.1610   33.8320  -14.9030 C.2   490  ASP490      0.3668
     72  OD1       19.3300   34.0320  -14.5110 O.co2 490  ASP490     -0.2456
     73  OD2       17.7380   34.2390  -16.0040 O.co2 490  ASP490     -0.2456
     74  N         26.4530   29.4730  -20.3830 N.3   512  ALA512     -0.1245
     75  CA        27.0210   30.8130  -20.4980 C.3   512  ALA512      0.1562
     76  C         26.2900   31.7970  -19.5920 C.2   512  ALA512      0.2260
     77  O         25.1220   32.1050  -19.8130 O.2   512  ALA512     -0.2867
     78  CB        26.9470   31.2900  -21.9420 C.3   512  ALA512      0.0290
     79  N         25.8000   35.2980  -18.7490 N.3   514  SER514     -0.1202
     80  CA        25.9750   36.6200  -19.3380 C.3   514  SER514      0.2020
     81  C         26.1840   37.8210  -18.4210 C.2   514  SER514      0.2618
     82  O         26.6190   38.8750  -18.8880 O.2   514  SER514     -0.2717
     83  CB        24.7960   36.9180  -20.2680 C.3   514  SER514      0.2103
     84  OG        23.5650   36.7940  -19.5780 O.3   514  SER514     -0.2182
     85  N         25.8830   37.6880  -17.1340 N.am  515  ARG515     -0.1979
     86  CA        26.0530   38.8290  -16.2430 C.3   515  ARG515      0.1597
     87  C         26.9360   38.5750  -15.0290 C.2   515  ARG515      0.2287
     88  O         26.8650   39.3050  -14.0390 O.2   515  ARG515     -0.2864
     89  CB        24.6820   39.3510  -15.8060 C.3   515  ARG515      0.0334
     90  CG        23.7650   39.6490  -16.9810 C.3   515  ARG515      0.0492
     91  CD        22.5050   40.3960  -16.5860 C.3   515  ARG515      0.2205
     92  NE        21.5690   40.4610  -17.7050 N.pl3 515  ARG515     -0.0865
     93  CZ        20.4380   41.1570  -17.7090 C.cat 515  ARG515      0.5346
     94  NH1       20.0860   41.8700  -16.6470 N.pl3 515  ARG515      0.1354
     95  NH2       19.6450   41.1250  -18.7730 N.pl3 515  ARG515      0.1354
     96  N         29.3620   40.5460  -21.7440 N.3   520  LYS520     -0.1245
     97  CA        28.3640   39.5050  -21.9060 C.3   520  LYS520      0.1561
     98  C         29.0210   38.1900  -22.3130 C.2   520  LYS520      0.2260
     99  O         30.0550   38.1790  -22.9740 O.2   520  LYS520     -0.2867
    100  CB        27.3520   39.8940  -22.9890 C.3   520  LYS520      0.0271
    101  CG        26.4980   41.1100  -22.6720 C.3   520  LYS520      0.0035
    102  CD        25.5510   40.8270  -21.5220 C.3   520  LYS520      0.0206
    103  CE        24.5990   41.9900  -21.3040 C.3   520  LYS520      0.1093
    104  NZ        23.6420   41.7220  -20.1930 N.3   520  LYS520     -0.1314
    105  N         27.6680   34.7000  -24.0510 N.3   522  TYR522     -0.1227
    106  CA        26.5290   34.0690  -24.6940 C.3   522  TYR522      0.1736
    107  C         26.8510   32.6780  -25.2090 C.2   522  TYR522      0.2595
    108  O         28.0140   32.3330  -25.3880 O.2   522  TYR522     -0.2718
    109  CB        26.0650   34.9440  -25.8550 C.3   522  TYR522      0.0548
    110  CG        25.4920   36.2780  -25.4250 C.ar  522  TYR522     -0.0200
    111  CD1       25.5600   37.3870  -26.2670 C.ar  522  TYR522     -0.0009
    112  CD2       24.8380   36.4180  -24.2000 C.ar  522  TYR522     -0.0009
    113  CE1       24.9860   38.6020  -25.9040 C.ar  522  TYR522      0.0417
    114  CE2       24.2610   37.6280  -23.8270 C.ar  522  TYR522      0.0417
    115  CZ        24.3370   38.7160  -24.6870 C.ar  522  TYR522      0.1957
    116  OH        23.7440   39.9120  -24.3410 O.3   522  TYR522     -0.2866
    117  N         25.8130   31.8920  -25.4600 N.am  523  VAL523     -0.1966
    118  CA        26.0150   30.5400  -25.9560 C.3   523  VAL523      0.1727
    119  C         26.8830   30.4790  -27.2120 C.2   523  VAL523      0.2616
    120  O         27.6630   29.5350  -27.3770 O.2   523  VAL523     -0.2715
    121  CB        24.6700   29.8180  -26.2170 C.3   523  VAL523      0.0290
    122  CG1       24.0200   29.4640  -24.8970 C.3   523  VAL523      0.0023
    123  CG2       23.7370   30.6980  -27.0450 C.3   523  VAL523      0.0023
    124  N         26.7860   31.4750  -28.0920 N.am  524  GLN524     -0.1977
    125  CA        27.6040   31.4270  -29.3000 C.3   524  GLN524      0.1601
    126  C         29.0790   31.6000  -28.9780 C.2   524  GLN524      0.2287
    127  O         29.9410   31.1850  -29.7480 O.2   524  GLN524     -0.2864
    128  CB        27.1640   32.4690  -30.3430 C.3   524  GLN524      0.0394
    129  CG        27.2920   33.9160  -29.9310 C.3   524  GLN524      0.0908
    130  CD        26.0120   34.4560  -29.3490 C.2   524  GLN524      0.2608
    131  OE1       25.7770   35.6660  -29.3570 O.2   524  GLN524     -0.2717
    132  NE2       25.1730   33.5650  -28.8400 N.am  524  GLN524     -0.0878
    133  N         15.1230   32.8980  -28.5160 N.3   549  ASP549     -0.1239
    134  CA        14.9440   34.1800  -29.1880 C.3   549  ASP549      0.1674
    135  C         15.1120   34.1010  -30.7000 C.2   549  ASP549      0.2266
    136  O         16.1410   33.6480  -31.1940 O.2   549  ASP549     -0.2867
    137  CB        15.9390   35.1920  -28.6360 C.3   549  ASP549      0.1410
    138  CG        15.8060   36.5380  -29.2930 C.2   549  ASP549      0.3668
    139  OD1       16.7790   37.3170  -29.2470 O.co2 549  ASP549     -0.2456
    140  OD2       14.7220   36.8140  -29.8510 O.co2 549  ASP549     -0.2456
    141  N         14.7020   36.9140  -32.7170 N.3   551  ARG551     -0.1231
    142  CA        15.2020   38.2060  -33.1870 C.3   551  ARG551      0.1694
    143  C         16.7210   38.3530  -33.2720 C.2   551  ARG551      0.2592
    144  O         17.2460   38.7880  -34.2980 O.2   551  ARG551     -0.2718
    145  CB        14.6520   39.3330  -32.3080 C.3   551  ARG551      0.0321
    146  CG        13.1390   39.4530  -32.3170 C.3   551  ARG551      0.0489
    147  CD        12.6790   40.6520  -31.5000 C.3   551  ARG551      0.2205
    148  NE        11.2220   40.7380  -31.4270 N.pl3 551  ARG551     -0.0865
    149  CZ        10.5590   41.7220  -30.8260 C.cat 551  ARG551      0.5346
    150  NH1       11.2210   42.7140  -30.2430 N.pl3 551  ARG551      0.1354
    151  NH2        9.2320   41.7120  -30.8020 N.pl3 551  ARG551      0.1354
    152  N         17.4270   38.0060  -32.1990 N.am  552  ASN552     -0.1960
    153  CA        18.8800   38.1430  -32.1880 C.3   552  ASN552      0.1819
    154  C         19.6680   36.8630  -31.9190 C.2   552  ASN552      0.2621
    155  O         20.6320   36.5710  -32.6250 O.2   552  ASN552     -0.2715
    156  CB        19.2920   39.2120  -31.1740 C.3   552  ASN552      0.1195
    157  CG        18.9100   40.6190  -31.6200 C.2   552  ASN552      0.2630
    158  OD1       19.4760   41.1580  -32.5750 O.2   552  ASN552     -0.2716
    159  ND2       17.9420   41.2130  -30.9340 N.am  552  ASN552     -0.0877
    160  N         19.2630   36.1090  -30.8990 N.am  553  MET553     -0.1977
    161  CA        19.9520   34.8740  -30.5350 C.3   553  MET553      0.1605
    162  C         20.1380   33.9300  -31.7240 C.2   553  MET553      0.2287
    163  O         21.2690   33.6390  -32.1160 O.2   553  MET553     -0.2864
    164  CB        19.1850   34.1700  -29.4090 C.3   553  MET553      0.0413
    165  CG        19.8710   32.9530  -28.7950 C.3   553  MET553      0.0598
    166  SD        19.6110   31.4030  -29.6950 S.3   553  MET553     -0.1393
    167  CE        17.8570   31.1940  -29.5130 C.3   553  MET553      0.0692
    168  N         22.5540   35.2520  -34.3760 N.3   556  ASP556     -0.1239
    169  CA        23.9160   35.3000  -33.8650 C.3   556  ASP556      0.1674
    170  C         24.4920   33.8860  -33.8240 C.2   556  ASP556      0.2266
    171  O         25.6510   33.6690  -34.1640 O.2   556  ASP556     -0.2867
    172  CB        23.9280   35.9060  -32.4560 C.3   556  ASP556      0.1410
    173  CG        23.6490   37.4040  -32.4550 C.2   556  ASP556      0.3668
    174  OD1       23.4020   37.9630  -31.3660 O.co2 556  ASP556     -0.2456
    175  OD2       23.6870   38.0230  -33.5380 O.co2 556  ASP556     -0.2456
    176  N         10.9280   31.9170  -31.3310 N.3   594  TRP594     -0.1227
    177  CA         9.7270   32.7390  -31.2460 C.3   594  TRP594      0.1737
    178  C         10.0900   34.1510  -30.7990 C.2   594  TRP594      0.2596
    179  O         11.2190   34.4000  -30.3690 O.2   594  TRP594     -0.2718
    180  CB         8.7520   32.1100  -30.2490 C.3   594  TRP594      0.0564
    181  CG         9.3010   32.0290  -28.8490 C.ar  594  TRP594      0.0003
    182  CD1        9.3900   33.0460  -27.9420 C.ar  594  TRP594      0.0946
    183  CD2        9.8610   30.8730  -28.2100 C.ar  594  TRP594      0.0152
    184  NE1        9.9690   32.5960  -26.7780 N.ar  594  TRP594     -0.2442
    185  CE2       10.2670   31.2660  -26.9150 C.ar  594  TRP594      0.0810
    186  CE3       10.0590   29.5430  -28.6070 C.ar  594  TRP594      0.0012
    187  CZ2       10.8600   30.3770  -26.0110 C.ar  594  TRP594      0.0191
    188  CZ3       10.6480   28.6580  -27.7070 C.ar  594  TRP594      0.0001
    189  CH2       11.0410   29.0810  -26.4240 C.ar  594  TRP594      0.0015
    190  N          9.1340   35.0700  -30.9020 N.am  595  SER595     -0.1952
    191  CA         9.3640   36.4580  -30.5030 C.3   595  SER595      0.1924
    192  C          8.4110   36.8830  -29.3860 C.2   595  SER595      0.2314
    193  O          7.4740   36.1130  -29.0800 O.2   595  SER595     -0.2863
    194  CB         9.1870   37.3970  -31.7020 C.3   595  SER595      0.2116
    195  OG        10.1170   37.1100  -32.7320 O.3   595  SER595     -0.2180
@<TRIPOS>BOND
     1   168   169    1
     2   144   143    2
     3   171   170    2
     4   169   170    1
     5   169   172    1
     6   175   173   ar
     7   143   142    1
     8   143   152   am
     9   142   141    1
    10   142   145    1
    11   195   194    1
    12   155   154    2
    13   158   157    2
    14   172   173    1
    15   173   174   ar
    16   146   145    1
    17   146   147    1
    18   152   153    1
    19   153   154    1
    20   153   156    1
    21   163   162    2
    22   154   160   am
    23   162   161    1
    24   194   191    1
    25   157   156    1
    26   157   159   am
    27   147   148    1
    28   148   149    2
    29   176   177    1
    30   177   178    1
    31   177   180    1
    32   136   135    2
    33   190   178   am
    34   190   191    1
    35   160   161    1
    36   149   151    1
    37   149   150    1
    38   178   179    2
    39   135   134    1
    40   161   164    1
    41   191   192    1
    42   128   129    1
    43   128   125    1
    44   180   181    1
    45   129   130    1
    46   140   138   ar
    47   127   126    2
    48   166   167    1
    49   166   165    1
    50   164   165    1
    51   192   193    2
    52   131   130    2
    53   130   132   am
    54   125   126    1
    55   125   124    1
    56   138   139   ar
    57   138   137    1
    58   134   137    1
    59   134   133    1
    60   181   183   ar
    61   181   182   ar
    62   186   183   ar
    63   186   188   ar
    64   183   185   ar
    65   124   119   am
    66   182   184   ar
    67   188   189   ar
    68   120   119    2
    69   119   118    1
    70   123   121    1
    71   185   184   ar
    72   185   187   ar
    73   189   187   ar
    74   111   113   ar
    75   111   110   ar
    76   121   118    1
    77   121   122    1
    78    33    32    1
    79    33    27    1
    80   118   117    1
    81   113   115   ar
    82   109   110    1
    83   109   106    1
    84    32    31    1
    85   117   107   am
    86   110   112   ar
    87   108   107    2
    88   107   106    1
    89    27    28    1
    90   106   105    1
    91   115   116    1
    92   115   114   ar
    93   112   114   ar
    94    31    28    1
    95    30    29    2
    96    28    29    1
    97    41    40    2
    98    29    34   am
    99    40    39    1
   100   100   101    1
   101   100    97    1
   102    99    98    2
   103    43    42    1
   104   101   102    1
   105    98    97    1
   106    78    75    1
   107    97    96    1
   108    42    39    1
   109    42    44    1
   110    39    38    1
   111    34    35    1
   112    38    36   am
   113   102   103    1
   114    45    46    1
   115    36    37    2
   116    36    35    1
   117   103   104    1
   118    46    47    1
   119    75    74    1
   120    75    76    1
   121    48    47    2
   122    83    84    1
   123    83    80    1
   124    25    24    1
   125    47    49   am
   126    77    76    2
   127    80    79    1
   128    80    81    1
   129    23    22    2
   130    49    50    1
   131    20    21    1
   132    82    81    2
   133    24    21    1
   134    24    26    1
   135    95    93    1
   136    65    63    1
   137    81    85   am
   138    10     9    1
   139    22    21    1
   140    50    51    1
   141    50    53    1
   142    64    63    1
   143    52    51    2
   144    63    62    2
   145    93    92    2
   146    93    94    1
   147    92    91    1
   148    51    55   am
   149     9    11    1
   150     9     8    2
   151    85    86    1
   152    53    54    1
   153    90    91    1
   154    90    89    1
   155    55    56    1
   156    62    61    1
   157    60    61    1
   158    60    59    1
   159    19    17    1
   160    56    59    1
   161    56    57    1
   162    86    89    1
   163    86    87    1
   164     7     8    1
   165     7     6    1
   166    73    71   ar
   167    17    16    1
   168    17    18    1
   169    58    57    2
   170    69    68    2
   171    87    88    2
   172    16    13    1
   173    71    72   ar
   174    71    70    1
   175     6     5    1
   176    13    14    1
   177    13    12    1
   178     5     2    1
   179    70    67    1
   180    68    67    1
   181    14    15    2
   182    67    66    1
   183     2     3    1
   184     2     1    1
   185     3     4    2
