@<TRIPOS>MOLECULE
tmp/3qffB00.pdb
 142 134 0 0 0
SMALL
GASTEIGER

@<TRIPOS>ATOM
      1  N         24.1450  -27.1340   35.3600 N.3   122  ALA122     -0.1245
      2  CA        24.8150  -27.0380   36.6510 C.3   122  ALA122      0.1562
      3  C         24.5570  -28.3430   37.4010 C.2   122  ALA122      0.2260
      4  O         23.4590  -28.8980   37.3140 O.2   122  ALA122     -0.2867
      5  CB        24.2830  -25.8630   37.4360 C.3   122  ALA122      0.0290
      6  N         22.2760  -22.7710   44.7990 N.3   145  VAL145     -0.1245
      7  CA        20.9370  -22.1890   44.7430 C.3   145  VAL145      0.1561
      8  C         19.9110  -23.2970   44.9460 C.2   145  VAL145      0.2260
      9  O         19.9590  -24.3280   44.2580 O.2   145  VAL145     -0.2867
     10  CB        20.6600  -21.5030   43.3650 C.3   145  VAL145      0.0252
     11  CG1       19.3400  -20.7530   43.3870 C.3   145  VAL145      0.0019
     12  CG2       21.8050  -20.5600   42.9720 C.3   145  VAL145      0.0019
     13  N         15.9860  -24.2120   44.5570 N.3   147  LYS147     -0.1245
     14  CA        14.7950  -23.7760   43.8230 C.3   147  LYS147      0.1561
     15  C         13.7250  -24.8310   43.9120 C.2   147  LYS147      0.2260
     16  O         14.0320  -26.0180   43.7870 O.2   147  LYS147     -0.2867
     17  CB        15.1080  -23.5910   42.3260 C.3   147  LYS147      0.0271
     18  CG        16.2420  -22.6710   41.9850 C.3   147  LYS147      0.0035
     19  CD        16.5970  -22.8680   40.5140 C.3   147  LYS147      0.0206
     20  CE        17.8340  -22.0910   40.1240 C.3   147  LYS147      0.1093
     21  NZ        18.1020  -22.2610   38.6560 N.3   147  LYS147     -0.1314
     22  N         12.9650  -19.3740   45.5660 N.3   158  GLN158     -0.1245
     23  CA        14.3860  -19.7380   45.5850 C.3   158  GLN158      0.1566
     24  C         15.1960  -19.0890   46.7050 C.2   158  GLN158      0.2260
     25  O         14.8530  -18.0150   47.2000 O.2   158  GLN158     -0.2867
     26  CB        15.0530  -19.5200   44.2110 C.3   158  GLN158      0.0367
     27  CG        15.5120  -18.0990   43.8850 C.3   158  GLN158      0.0905
     28  CD        16.4490  -18.0480   42.6700 C.2   158  GLN158      0.2608
     29  OE1       16.2740  -18.7880   41.6970 O.2   158  GLN158     -0.2717
     30  NE2       17.4430  -17.1740   42.7270 N.am  158  GLN158     -0.0878
     31  N         19.3690  -18.3740   47.5600 N.3   160  VAL160     -0.1245
     32  CA        20.7650  -18.4420   47.1480 C.3   160  VAL160      0.1561
     33  C         21.6370  -18.6830   48.3840 C.2   160  VAL160      0.2260
     34  O         21.5590  -17.9400   49.3620 O.2   160  VAL160     -0.2867
     35  CB        21.2010  -17.1690   46.3550 C.3   160  VAL160      0.0252
     36  CG1       22.6520  -17.2720   45.9290 C.3   160  VAL160      0.0019
     37  CG2       20.3150  -16.9900   45.1230 C.3   160  VAL160      0.0019
     38  N         21.2610  -26.6580   43.1290 N.3   182  GLU182     -0.1231
     39  CA        22.2100  -26.5890   42.0080 C.3   182  GLU182      0.1699
     40  C         23.4280  -25.7910   42.4030 C.2   182  GLU182      0.2592
     41  O         23.3120  -24.8050   43.1310 O.2   182  GLU182     -0.2718
     42  CB        21.6330  -25.8330   40.8060 C.3   182  GLU182      0.0402
     43  CG        20.2360  -26.1460   40.3860 C.3   182  GLU182      0.1161
     44  CD        19.8480  -25.3590   39.1440 C.2   182  GLU182      0.3649
     45  OE1       20.3040  -24.1980   38.9720 O.co2 182  GLU182     -0.2457
     46  OE2       19.0830  -25.9070   38.3320 O.co2 182  GLU182     -0.2457
     47  N         24.5820  -26.1860   41.8740 N.am  183  LYS183     -0.1966
     48  CA        25.7800  -25.3570   41.9630 C.3   183  LYS183      0.1728
     49  C         25.5230  -24.0130   41.2980 C.2   183  LYS183      0.2616
     50  O         24.8790  -23.9360   40.2480 O.2   183  LYS183     -0.2715
     51  CB        26.9820  -26.0450   41.3150 C.3   183  LYS183      0.0311
     52  CG        27.7990  -26.9010   42.2660 C.3   183  LYS183      0.0038
     53  CD        28.9420  -27.6160   41.5410 C.3   183  LYS183      0.0206
     54  CE        29.5670  -28.6970   42.4260 C.3   183  LYS183      0.1093
     55  NZ        30.2840  -29.7660   41.6440 N.3   183  LYS183     -0.1314
     56  N         25.9880  -22.9530   41.9500 N.am  184  TRP184     -0.1960
     57  CA        25.9510  -21.6160   41.3840 C.3   184  TRP184      0.1771
     58  C         26.9190  -21.5860   40.2030 C.2   184  TRP184      0.2619
     59  O         28.0520  -22.0650   40.2970 O.2   184  TRP184     -0.2715
     60  CB        26.3140  -20.5820   42.4510 C.3   184  TRP184      0.0590
     61  CG        26.6720  -19.2200   41.9330 C.ar  184  TRP184      0.0006
     62  CD1       27.8870  -18.8240   41.4360 C.ar  184  TRP184      0.0946
     63  CD2       25.8230  -18.0670   41.8840 C.ar  184  TRP184      0.0152
     64  NE1       27.8400  -17.5010   41.0650 N.ar  184  TRP184     -0.2442
     65  CE2       26.5890  -17.0090   41.3320 C.ar  184  TRP184      0.0810
     66  CE3       24.4910  -17.8240   42.2480 C.ar  184  TRP184      0.0012
     67  CZ2       26.0640  -15.7250   41.1320 C.ar  184  TRP184      0.0191
     68  CZ3       23.9660  -16.5450   42.0490 C.ar  184  TRP184      0.0001
     69  CH2       24.7550  -15.5120   41.4950 C.ar  184  TRP184      0.0015
     70  N         26.4380  -21.0730   39.0780 N.am  185  VAL185     -0.1977
     71  CA        27.2420  -20.9670   37.8700 C.3   185  VAL185      0.1596
     72  C         27.8040  -19.5500   37.8470 C.2   185  VAL185      0.2287
     73  O         27.0460  -18.5780   37.9120 O.2   185  VAL185     -0.2864
     74  CB        26.4020  -21.2700   36.5990 C.3   185  VAL185      0.0276
     75  CG1       27.2110  -21.0190   35.3160 C.3   185  VAL185      0.0022
     76  CG2       25.8800  -22.7130   36.6360 C.3   185  VAL185      0.0022
     77  N         28.6070  -17.0010   35.7770 N.3   187  PHE187     -0.1241
     78  CA        28.4850  -16.5930   34.3900 C.3   187  PHE187      0.1605
     79  C         28.8560  -15.1230   34.2760 C.2   187  PHE187      0.2264
     80  O         28.8100  -14.3980   35.2680 O.2   187  PHE187     -0.2867
     81  CB        27.0580  -16.8480   33.8660 C.3   187  PHE187      0.0534
     82  CG        25.9680  -16.1860   34.6760 C.ar  187  PHE187     -0.0203
     83  CD1       25.2710  -16.9060   35.6500 C.ar  187  PHE187     -0.0042
     84  CD2       25.6220  -14.8570   34.4540 C.ar  187  PHE187     -0.0042
     85  CE1       24.2500  -16.3090   36.3950 C.ar  187  PHE187     -0.0003
     86  CE2       24.6160  -14.2450   35.1990 C.ar  187  PHE187     -0.0003
     87  CZ        23.9220  -14.9790   36.1710 C.ar  187  PHE187     -0.0000
     88  N         23.6370  -13.8450   31.1480 N.3   190  GLU190     -0.1245
     89  CA        22.4970  -14.7240   30.8940 C.3   190  GLU190      0.1567
     90  C         21.9970  -14.4420   29.4890 C.2   190  GLU190      0.2260
     91  O         21.8280  -13.2840   29.1040 O.2   190  GLU190     -0.2867
     92  CB        21.3480  -14.4420   31.8560 C.3   190  GLU190      0.0388
     93  CG        21.7010  -14.5430   33.3040 C.3   190  GLU190      0.1160
     94  CD        20.4760  -14.5840   34.1680 C.2   190  GLU190      0.3649
     95  OE1       20.2330  -13.5950   34.8840 O.co2 190  GLU190     -0.2457
     96  OE2       19.7450  -15.5970   34.1190 O.co2 190  GLU190     -0.2457
     97  N         18.0970   -9.6600   34.6920 N.3   213  HIS213     -0.1241
     98  CA        17.0830   -9.9030   35.7180 C.3   213  HIS213      0.1621
     99  C         17.3300   -9.0510   36.9610 C.2   213  HIS213      0.2264
    100  O         18.4720   -8.8680   37.3800 O.2   213  HIS213     -0.2867
    101  CB        17.0780  -11.3830   36.1110 C.3   213  HIS213      0.0745
    102  CG        16.6580  -12.2990   35.0040 C.ar  213  HIS213      0.0817
    103  ND1       17.5430  -12.7980   34.0720 N.ar  213  HIS213     -0.2268
    104  CD2       15.4420  -12.7920   34.6690 C.ar  213  HIS213      0.1154
    105  CE1       16.8910  -13.5600   33.2120 C.ar  213  HIS213      0.1986
    106  NE2       15.6150  -13.5770   33.5550 N.ar  213  HIS213     -0.2212
    107  N         14.9130  -11.5520   40.4360 N.3   216  ASN216     -0.1240
    108  CA        14.4640  -12.6980   39.6370 C.3   216  ASN216      0.1653
    109  C         13.3090  -12.4160   38.6640 C.2   216  ASN216      0.2266
    110  O         12.6340  -13.3480   38.2250 O.2   216  ASN216     -0.2867
    111  CB        14.1410  -13.9130   40.5210 C.3   216  ASN216      0.1155
    112  CG        15.3240  -14.3620   41.3630 C.2   216  ASN216      0.2627
    113  OD1       15.1430  -14.8420   42.4830 O.2   216  ASN216     -0.2716
    114  ND2       16.5370  -14.2090   40.8340 N.am  216  ASN216     -0.0877
    115  N         16.7450  -20.7640   28.1910 N.3   255  GLU255     -0.1245
    116  CA        17.5140  -19.7850   28.9630 C.3   255  GLU255      0.1567
    117  C         18.8490  -20.4100   29.3450 C.2   255  GLU255      0.2260
    118  O         18.8990  -21.5850   29.7360 O.2   255  GLU255     -0.2867
    119  CB        16.7510  -19.3190   30.2140 C.3   255  GLU255      0.0388
    120  CG        15.3540  -18.7470   29.9270 C.3   255  GLU255      0.1160
    121  CD        14.7940  -17.9020   31.0750 C.2   255  GLU255      0.3649
    122  OE1       13.7590  -18.2860   31.6480 O.co2 255  GLU255     -0.2457
    123  OE2       15.3780  -16.8440   31.4010 O.co2 255  GLU255     -0.2457
    124  N         23.3000  -19.7710   30.6180 N.3   257  PHE257     -0.1241
    125  CA        24.3550  -19.0480   31.3020 C.3   257  PHE257      0.1605
    126  C         25.6060  -19.1500   30.4410 C.2   257  PHE257      0.2264
    127  O         25.9920  -20.2460   30.0200 O.2   257  PHE257     -0.2867
    128  CB        24.6460  -19.6550   32.6860 C.3   257  PHE257      0.0534
    129  CG        23.4820  -19.6240   33.6350 C.ar  257  PHE257     -0.0203
    130  CD1       23.1230  -20.7660   34.3420 C.ar  257  PHE257     -0.0042
    131  CD2       22.7460  -18.4570   33.8320 C.ar  257  PHE257     -0.0042
    132  CE1       22.0340  -20.7490   35.2380 C.ar  257  PHE257     -0.0003
    133  CE2       21.6680  -18.4350   34.7120 C.ar  257  PHE257     -0.0003
    134  CZ        21.3180  -19.5840   35.4210 C.ar  257  PHE257     -0.0000
    135  N         19.9630  -23.2280   31.6920 N.3   267  ASN267     -0.1240
    136  CA        19.2380  -22.9350   32.9260 C.3   267  ASN267      0.1653
    137  C         17.8430  -23.5660   32.9470 C.2   267  ASN267      0.2266
    138  O         17.5570  -24.4430   33.7670 O.2   267  ASN267     -0.2867
    139  CB        19.1310  -21.4260   33.1590 C.3   267  ASN267      0.1155
    140  CG        18.3800  -21.0810   34.4500 C.2   267  ASN267      0.2627
    141  OD1       18.5850  -21.7140   35.4870 O.2   267  ASN267     -0.2716
    142  ND2       17.5290  -20.0600   34.3910 N.am  267  ASN267     -0.0877
@<TRIPOS>BOND
     1   115   116    1
     2   116   117    1
     3   116   119    1
     4    91    90    2
     5   117   118    2
     6    90    89    1
     7   120   119    1
     8   120   121    1
     9   127   126    2
    10   126   125    1
    11   124   125    1
    12    89    88    1
    13    89    92    1
    14   121   123   ar
    15   121   122   ar
    16   125   128    1
    17   135   136    1
    18    92    93    1
    19   128   129    1
    20   136   137    1
    21   136   139    1
    22   137   138    2
    23   139   140    1
    24   105   106   ar
    25   105   103   ar
    26    93    94    1
    27   106   104   ar
    28   129   131   ar
    29   129   130   ar
    30   131   133   ar
    31    81    78    1
    32    81    82    1
    33   103   102   ar
    34    96    94   ar
    35    94    95   ar
    36    79    78    1
    37    79    80    2
    38   130   132   ar
    39    78    77    1
    40   142   140   am
    41   140   141    2
    42    84    82   ar
    43    84    86   ar
    44   104   102   ar
    45    82    83   ar
    46    97    98    1
    47   133   134   ar
    48   102   101    1
    49    86    87   ar
    50   132   134   ar
    51    75    74    1
    52     1     2    1
    53    83    85   ar
    54    98   101    1
    55    98    99    1
    56    87    85   ar
    57    74    76    1
    58    74    71    1
    59     2     3    1
    60     2     5    1
    61    99   100    2
    62     4     3    2
    63    72    71    1
    64    72    73    2
    65    71    70    1
    66   110   109    2
    67    46    44   ar
    68    21    20    1
    69   109   108    1
    70    45    44   ar
    71    70    58   am
    72    44    43    1
    73   108   107    1
    74   108   111    1
    75    20    19    1
    76    58    59    2
    77    58    57    1
    78    50    49    2
    79    43    42    1
    80    19    18    1
    81   111   112    1
    82    42    39    1
    83   114   112   am
    84    64    65   ar
    85    64    62   ar
    86    67    65   ar
    87    67    69   ar
    88    49    56   am
    89    49    48    1
    90    51    48    1
    91    51    52    1
    92    65    63   ar
    93   112   113    2
    94    57    56    1
    95    57    60    1
    96    62    61   ar
    97    69    68   ar
    98    53    52    1
    99    53    54    1
   100    55    54    1
   101    29    28    2
   102    47    48    1
   103    47    40   am
   104    63    61   ar
   105    63    66   ar
   106    61    60    1
   107    18    17    1
   108    39    40    1
   109    39    38    1
   110    68    66   ar
   111    17    14    1
   112    40    41    2
   113    28    30   am
   114    28    27    1
   115    12    10    1
   116    10    11    1
   117    10     7    1
   118    16    15    2
   119    14    15    1
   120    14    13    1
   121    27    26    1
   122    26    23    1
   123     9     8    2
   124     7     6    1
   125     7     8    1
   126    37    35    1
   127    22    23    1
   128    23    24    1
   129    36    35    1
   130    35    32    1
   131    24    25    2
   132    32    31    1
   133    32    33    1
   134    33    34    2
