@<TRIPOS>MOLECULE
tmp/3qfkA00.pdb
 109 106 0 0 0
SMALL
GASTEIGER

@<TRIPOS>ATOM
      1  N          4.5190   39.2580   28.3970 N.3    90  ASN90      -0.1225
      2  CA         3.2960   39.3750   29.1980 C.3    90  ASN90       0.1785
      3  C          2.2650   38.2770   28.9010 C.2    90  ASN90       0.2597
      4  O          1.5380   37.8370   29.8030 O.2    90  ASN90      -0.2718
      5  CB         2.6200   40.7570   29.0560 C.3    90  ASN90       0.1169
      6  CG         2.4010   41.1550   27.6070 C.2    90  ASN90       0.2627
      7  OD1        3.3550   41.2150   26.8250 O.2    90  ASN90      -0.2716
      8  ND2        1.1510   41.4640   27.2490 N.am   90  ASN90      -0.0877
      9  N          2.1880   37.8420   27.6470 N.am   91  HIS91      -0.1975
     10  CA         1.2160   36.8190   27.2820 C.3    91  HIS91       0.1656
     11  C          1.4870   35.4110   27.8260 C.2    91  HIS91       0.2291
     12  O          0.5750   34.5870   27.8260 O.2    91  HIS91      -0.2864
     13  CB         0.9110   36.8320   25.7830 C.3    91  HIS91       0.0771
     14  CG         0.1710   38.0630   25.3520 C.ar   91  HIS91       0.0820
     15  ND1       -1.1770   38.2340   25.5850 N.ar   91  HIS91      -0.2267
     16  CD2        0.5950   39.2000   24.7470 C.ar   91  HIS91       0.1154
     17  CE1       -1.5570   39.4140   25.1200 C.ar   91  HIS91       0.1986
     18  NE2       -0.4960   40.0260   24.6190 N.ar   91  HIS91      -0.2212
     19  N          7.8020   43.1060   22.4100 N.3   226  HIS226     -0.1241
     20  CA         6.5650   43.6520   22.9790 C.3   226  HIS226      0.1621
     21  C          5.7470   44.6160   22.1000 C.2   226  HIS226      0.2264
     22  O          4.5360   44.4890   22.0180 O.2   226  HIS226     -0.2867
     23  CB         6.8470   44.3130   24.3500 C.3   226  HIS226      0.0745
     24  CG         5.6140   44.7810   25.0570 C.ar  226  HIS226      0.0817
     25  ND1        4.6200   43.9130   25.4520 N.ar  226  HIS226     -0.2268
     26  CD2        5.2210   46.0160   25.4610 C.ar  226  HIS226      0.1154
     27  CE1        3.6560   44.5900   26.0490 C.ar  226  HIS226      0.1986
     28  NE2        3.9990   45.8720   26.0750 N.ar  226  HIS226     -0.2212
     29  N        -11.9520   44.0750   17.3230 N.3   342  PHE342     -0.1241
     30  CA       -10.5550   43.7480   17.1410 C.3   342  PHE342      0.1605
     31  C        -10.1230   43.8310   15.6720 C.2   342  PHE342      0.2264
     32  O        -10.9460   43.7590   14.7510 O.2   342  PHE342     -0.2867
     33  CB       -10.2610   42.3910   17.7720 C.3   342  PHE342      0.0534
     34  CG       -10.6840   42.3090   19.2130 C.ar  342  PHE342     -0.0203
     35  CD1      -10.0810   43.1170   20.1680 C.ar  342  PHE342     -0.0042
     36  CD2      -11.6630   41.4110   19.6170 C.ar  342  PHE342     -0.0042
     37  CE1      -10.4500   43.0410   21.5120 C.ar  342  PHE342     -0.0003
     38  CE2      -12.0470   41.3200   20.9670 C.ar  342  PHE342     -0.0003
     39  CZ       -11.4430   42.1390   21.9130 C.ar  342  PHE342     -0.0000
     40  N         -8.9420   36.6730   21.9420 N.3   362  PHE362     -0.1241
     41  CA        -8.2430   36.8350   23.2050 C.3   362  PHE362      0.1605
     42  C         -8.9630   36.0080   24.2340 C.2   362  PHE362      0.2264
     43  O        -10.1850   35.8860   24.1680 O.2   362  PHE362     -0.2867
     44  CB        -8.2060   38.3060   23.6280 C.3   362  PHE362      0.0534
     45  CG        -7.4530   39.1880   22.6760 C.ar  362  PHE362     -0.0203
     46  CD1       -6.0610   39.1710   22.6490 C.ar  362  PHE362     -0.0042
     47  CD2       -8.1290   40.0340   21.8050 C.ar  362  PHE362     -0.0042
     48  CE1       -5.3480   39.9830   21.7650 C.ar  362  PHE362     -0.0003
     49  CE2       -7.4280   40.8620   20.9210 C.ar  362  PHE362     -0.0003
     50  CZ        -6.0360   40.8380   20.9000 C.ar  362  PHE362     -0.0000
     51  N        -10.1380   36.5480   27.0630 N.3   364  ASN364     -0.1240
     52  CA       -10.6630   37.4020   28.1140 C.3   364  ASN364      0.1653
     53  C        -11.9640   36.8590   28.6840 C.2   364  ASN364      0.2266
     54  O        -12.7810   36.3220   27.9490 O.2   364  ASN364     -0.2867
     55  CB       -10.9730   38.8030   27.5730 C.3   364  ASN364      0.1155
     56  CG        -9.7610   39.4870   26.9350 C.2   364  ASN364      0.2627
     57  OD1       -8.6400   39.2360   27.3060 O.2   364  ASN364     -0.2716
     58  ND2      -10.0180   40.3690   25.9660 N.am  364  ASN364     -0.0877
     59  N          2.4960   51.1460   17.7020 N.3   404  LYS404     -0.1245
     60  CA         1.8060   49.8620   17.5280 C.3   404  LYS404      0.1561
     61  C          0.2900   50.0970   17.4710 C.2   404  LYS404      0.2260
     62  O         -0.2390   50.8130   18.3020 O.2   404  LYS404     -0.2867
     63  CB         2.1210   48.8900   18.6760 C.3   404  LYS404      0.0271
     64  CG         1.3560   47.5690   18.5630 C.3   404  LYS404      0.0035
     65  CD         1.6030   46.6240   19.7300 C.3   404  LYS404      0.0206
     66  CE         0.7390   45.3680   19.5910 C.3   404  LYS404      0.1093
     67  NZ         0.7980   44.4690   20.7850 N.3   404  LYS404     -0.1314
     68  N         -7.8270   47.5620   19.8120 N.3   408  PHE408     -0.1241
     69  CA        -8.4020   46.8510   20.9430 C.3   408  PHE408      0.1605
     70  C         -8.6760   47.7940   22.1170 C.2   408  PHE408      0.2264
     71  O         -9.3390   47.4060   23.0760 O.2   408  PHE408     -0.2867
     72  CB        -7.5060   45.6660   21.3950 C.3   408  PHE408      0.0534
     73  CG        -6.0840   46.0480   21.7000 C.ar  408  PHE408     -0.0203
     74  CD1       -5.7520   46.6300   22.9060 C.ar  408  PHE408     -0.0042
     75  CD2       -5.0640   45.7880   20.7940 C.ar  408  PHE408     -0.0042
     76  CE1       -4.4410   46.9760   23.1870 C.ar  408  PHE408     -0.0003
     77  CE2       -3.7520   46.1420   21.0610 C.ar  408  PHE408     -0.0003
     78  CZ        -3.4380   46.7350   22.2580 C.ar  408  PHE408     -0.0000
     79  N        -14.5110   43.5120   29.6960 N.3   449  ASN449     -0.1240
     80  CA       -13.6220   42.3280   29.7240 C.3   449  ASN449      0.1653
     81  C        -12.6160   42.4620   30.8950 C.2   449  ASN449      0.2266
     82  O        -12.4350   43.5580   31.4210 O.2   449  ASN449     -0.2867
     83  CB       -12.9640   42.0580   28.3700 C.3   449  ASN449      0.1155
     84  CG       -11.8930   43.0750   28.0070 C.2   449  ASN449      0.2627
     85  OD1      -11.0830   43.4570   28.8340 O.2   449  ASN449     -0.2716
     86  ND2      -11.8640   43.4810   26.7400 N.am  449  ASN449     -0.0877
     87  N         -9.4310   42.4140   31.0060 N.3   451  TYR451     -0.1227
     88  CA        -8.3080   43.3020   30.6890 C.3   451  TYR451      0.1736
     89  C         -8.6930   44.7220   31.1040 C.2   451  TYR451      0.2595
     90  O         -7.9470   45.4050   31.8090 O.2   451  TYR451     -0.2718
     91  CB        -7.9940   43.2200   29.1920 C.3   451  TYR451      0.0548
     92  CG        -6.8360   44.0520   28.7050 C.ar  451  TYR451     -0.0200
     93  CD1       -5.5350   43.5370   28.7090 C.ar  451  TYR451     -0.0009
     94  CD2       -7.0470   45.2890   28.1300 C.ar  451  TYR451     -0.0009
     95  CE1       -4.4620   44.2820   28.2100 C.ar  451  TYR451      0.0417
     96  CE2       -5.9800   46.0410   27.6290 C.ar  451  TYR451      0.0417
     97  CZ        -4.6940   45.5260   27.6820 C.ar  451  TYR451      0.1957
     98  OH        -3.6500   46.2510   27.1740 O.3   451  TYR451     -0.2866
     99  N         -9.8620   45.1730   30.6840 N.am  452  ARG452     -0.1980
    100  CA       -10.3430   46.5220   31.0930 C.3   452  ARG452      0.1597
    101  C        -10.5260   46.6630   32.5630 C.2   452  ARG452      0.2287
    102  O        -10.2670   47.7350   33.1130 O.2   452  ARG452     -0.2864
    103  CB       -11.7190   46.8380   30.5240 C.3   452  ARG452      0.0334
    104  CG       -11.7380   47.1460   29.1460 C.3   452  ARG452      0.0492
    105  CD       -11.2120   48.5670   28.8390 C.3   452  ARG452      0.2205
    106  NE       -11.2830   48.6750   27.3950 N.pl3 452  ARG452     -0.0865
    107  CZ       -10.3020   48.3950   26.5560 C.cat 452  ARG452      0.5346
    108  NH1       -9.0860   48.0910   26.9940 N.pl3 452  ARG452      0.1354
    109  NH2      -10.5310   48.4800   25.2510 N.pl3 452  ARG452      0.1354
@<TRIPOS>BOND
     1    32    31    2
     2    31    30    1
     3    30    29    1
     4    30    33    1
     5    61    60    1
     6    61    62    2
     7    60    59    1
     8    60    63    1
     9    33    34    1
    10    64    63    1
    11    64    65    1
    12    34    36   ar
    13    34    35   ar
    14    66    65    1
    15    66    67    1
    16    36    38   ar
    17    68    69    1
    18    35    37   ar
    19    75    77   ar
    20    75    73   ar
    21    50    49   ar
    22    50    48   ar
    23    49    47   ar
    24    69    72    1
    25    69    70    1
    26    38    39   ar
    27    77    78   ar
    28    72    73    1
    29    37    39   ar
    30    73    74   ar
    31    48    46   ar
    32    47    45   ar
    33    40    41    1
    34    22    21    2
    35    21    20    1
    36    70    71    2
    37    78    76   ar
    38    19    20    1
    39    46    45   ar
    40    45    44    1
    41    74    76   ar
    42    20    23    1
    43    41    44    1
    44    41    42    1
    45    43    42    2
    46    23    24    1
    47    18    16   ar
    48    18    17   ar
    49    16    14   ar
    50    24    25   ar
    51    24    26   ar
    52    17    15   ar
    53   109   107    1
    54    14    15   ar
    55    14    13    1
    56    25    27   ar
    57    26    28   ar
    58    13    10    1
    59    58    56   am
    60    27    28   ar
    61   107   108    1
    62   107   106    2
    63    86    84   am
    64     7     6    2
    65    56    57    2
    66    56    55    1
    67    51    52    1
    68    98    97    1
    69     8     6   am
    70    10     9    1
    71    10    11    1
    72   106   105    1
    73    55    52    1
    74     6     5    1
    75    96    97   ar
    76    96    94   ar
    77     9     3   am
    78    97    95   ar
    79    12    11    2
    80    54    53    2
    81    84    83    1
    82    84    85    2
    83    52    53    1
    84    94    92   ar
    85    95    93   ar
    86    83    80    1
    87     1     2    1
    88    92    93   ar
    89    92    91    1
    90   105   104    1
    91     3     2    1
    92     3     4    2
    93     5     2    1
    94   104   103    1
    95    91    88    1
    96    79    80    1
    97    80    81    1
    98   103   100    1
    99    99   100    1
   100    99    89   am
   101    88    87    1
   102    88    89    1
   103    81    82    2
   104   100   101    1
   105    89    90    2
   106   101   102    2
