@<TRIPOS>MOLECULE
tmp/3qfoA00.pdb
 135 134 0 0 0
SMALL
GASTEIGER

@<TRIPOS>ATOM
      1  N         -1.4180    4.2000    2.8210 N.3    11  HIS11      -0.1241
      2  CA        -1.6300    4.8510    1.5280 C.3    11  HIS11       0.1621
      3  C         -0.6090    5.9380    1.2280 C.2    11  HIS11       0.2264
      4  O         -0.9570    7.0050    0.7250 O.2    11  HIS11      -0.2867
      5  CB        -3.0530    5.4110    1.4370 C.3    11  HIS11       0.0745
      6  CG        -4.0980    4.3640    1.2190 C.ar   11  HIS11       0.0817
      7  ND1       -4.4010    3.8620   -0.0310 N.ar   11  HIS11      -0.2268
      8  CD2       -4.9010    3.7090    2.0950 C.ar   11  HIS11       0.1154
      9  CE1       -5.3640    2.9630    0.0830 C.ar   11  HIS11       0.1986
     10  NE2       -5.6740    2.8410    1.3640 N.ar   11  HIS11      -0.2212
     11  N         -2.3980   -1.9960    2.0630 N.3    37  ASP37      -0.1239
     12  CA        -2.5720   -0.6660    1.4540 C.3    37  ASP37       0.1674
     13  C         -1.5000    0.2840    1.9760 C.2    37  ASP37       0.2266
     14  O         -1.7600    1.2510    2.6930 O.2    37  ASP37      -0.2867
     15  CB        -4.0050   -0.1290    1.5940 C.3    37  ASP37       0.1410
     16  CG        -4.9990   -0.8840    0.7150 C.2    37  ASP37       0.3668
     17  OD1       -4.5750   -1.8290    0.0120 O.co2  37  ASP37      -0.2456
     18  OD2       -6.2070   -0.5650    0.7400 O.co2  37  ASP37      -0.2456
     19  N         -5.4590   -4.6090   -1.4110 N.3    64  ASN64      -0.1225
     20  CA        -5.7710   -4.4760   -2.8390 C.3    64  ASN64       0.1785
     21  C         -4.9110   -3.4350   -3.5820 C.2    64  ASN64       0.2597
     22  O         -4.7300   -3.5480   -4.7960 O.2    64  ASN64      -0.2718
     23  CB        -7.2400   -4.1660   -3.0340 C.3    64  ASN64       0.1169
     24  CG        -7.6900   -2.9790   -2.1950 C.2    64  ASN64       0.2627
     25  OD1       -7.3450   -2.8800   -1.0190 O.2    64  ASN64      -0.2716
     26  ND2       -8.4220   -2.0670   -2.8050 N.am   64  ASN64      -0.0877
     27  N         -4.3920   -2.4380   -2.8620 N.am   65  TRP65      -0.1976
     28  CA        -3.4960   -1.4510   -3.4720 C.3    65  TRP65       0.1640
     29  C         -2.1000   -2.0040   -3.8020 C.2    65  TRP65       0.2290
     30  O         -1.4180   -1.4630   -4.6670 O.2    65  TRP65      -0.2864
     31  CB        -3.4260   -0.1490   -2.6560 C.3    65  TRP65       0.0576
     32  CG        -4.6520    0.7300   -2.8600 C.ar   65  TRP65       0.0006
     33  CD1       -5.9190    0.4660   -2.4280 C.ar   65  TRP65       0.0946
     34  CD2       -4.7180    1.9940   -3.5340 C.ar   65  TRP65       0.0152
     35  NE1       -6.7780    1.4740   -2.8060 N.ar   65  TRP65      -0.2442
     36  CE2       -6.0640    2.4340   -3.4720 C.ar   65  TRP65       0.0810
     37  CE3       -3.7770    2.7980   -4.1920 C.ar   65  TRP65       0.0012
     38  CZ2       -6.4920    3.6450   -4.0380 C.ar   65  TRP65       0.0191
     39  CZ3       -4.2080    4.0130   -4.7660 C.ar   65  TRP65       0.0001
     40  CH2       -5.5480    4.4180   -4.6770 C.ar   65  TRP65       0.0015
     41  N        -16.7380   -4.2580   -1.2110 N.3   135  ARG135     -0.1245
     42  CA       -17.5160   -3.4930   -0.2530 C.3   135  ARG135      0.1563
     43  C        -18.3210   -4.3900    0.6730 C.2   135  ARG135      0.2260
     44  O        -19.1960   -3.9000    1.3930 O.2   135  ARG135     -0.2867
     45  CB       -18.5010   -2.5710   -0.9720 C.3   135  ARG135      0.0307
     46  CG       -17.8940   -1.5060   -1.8640 C.3   135  ARG135      0.0489
     47  CD       -16.9140   -0.5990   -1.1230 C.3   135  ARG135      0.2205
     48  NE       -16.9300    0.7470   -1.7020 N.pl3 135  ARG135     -0.0865
     49  CZ       -15.8490    1.4790   -1.9340 C.cat 135  ARG135      0.5346
     50  NH1      -15.9820    2.6900   -2.4670 N.pl3 135  ARG135      0.1354
     51  NH2      -14.6370    0.9950   -1.6520 N.pl3 135  ARG135      0.1354
     52  N        -18.3530   -3.2820    4.6160 N.3   138  ILE138     -0.1231
     53  CA       -18.6140   -1.8960    5.0030 C.3   138  ILE138      0.1692
     54  C        -19.4240   -1.8440    6.3070 C.2   138  ILE138      0.2592
     55  O        -19.8990   -2.8790    6.7960 O.2   138  ILE138     -0.2718
     56  CB       -19.3380   -1.0900    3.8890 C.3   138  ILE138      0.0266
     57  CG1      -20.6810   -1.7400    3.4990 C.3   138  ILE138      0.0019
     58  CG2      -18.3980   -0.8780    2.7050 C.3   138  ILE138      0.0020
     59  CD1      -21.5340   -0.8850    2.5230 C.3   138  ILE138      0.0001
     60  N        -19.5800   -0.6380    6.8500 N.am  139  HIS139     -0.1976
     61  CA       -20.2620   -0.4370    8.1320 C.3   139  HIS139      0.1656
     62  C        -21.6520   -1.0860    8.1900 C.2   139  HIS139      0.2291
     63  O        -22.0720   -1.5480    9.2440 O.2   139  HIS139     -0.2864
     64  CB       -20.2950    1.0590    8.5210 C.3   139  HIS139      0.0771
     65  CG       -21.2200    1.8950    7.6870 C.ar  139  HIS139      0.0820
     66  ND1      -21.2200    1.8700    6.3070 N.ar  139  HIS139     -0.2267
     67  CD2      -22.1690    2.7960    8.0440 C.ar  139  HIS139      0.1154
     68  CE1      -22.1420    2.7020    5.8490 C.ar  139  HIS139      0.1986
     69  NE2      -22.7260    3.2820    6.8840 N.ar  139  HIS139     -0.2212
     70  N         -9.1290   -2.0640    5.2570 N.3   162  HIS162     -0.1226
     71  CA        -9.8290   -1.8350    3.9810 C.3   162  HIS162      0.1752
     72  C        -10.9620   -0.8040    3.9820 C.2   162  HIS162      0.2596
     73  O        -11.1110   -0.0530    3.0200 O.2   162  HIS162     -0.2718
     74  CB       -10.3060   -3.1640    3.3820 C.3   162  HIS162      0.0759
     75  CG       -10.8830   -3.0360    2.0090 C.ar  162  HIS162      0.0818
     76  ND1      -10.1430   -2.6030    0.9250 N.ar  162  HIS162     -0.2268
     77  CD2      -12.1350   -3.2680    1.5460 C.ar  162  HIS162      0.1154
     78  CE1      -10.9150   -2.5880   -0.1460 C.ar  162  HIS162      0.1986
     79  NE2      -12.1220   -2.9940    0.2010 N.ar  162  HIS162     -0.2212
     80  N        -11.7790   -0.7660    5.0300 N.am  163  ILE163     -0.1966
     81  CA       -12.9030    0.1700    5.0300 C.3   163  ILE163      0.1727
     82  C        -12.5520    1.5480    5.5950 C.2   163  ILE163      0.2616
     83  O        -13.3510    2.4810    5.4800 O.2   163  ILE163     -0.2715
     84  CB       -14.1580   -0.4060    5.7210 C.3   163  ILE163      0.0290
     85  CG1      -13.9070   -0.6530    7.2180 C.3   163  ILE163      0.0022
     86  CG2      -14.6360   -1.6730    4.9890 C.3   163  ILE163      0.0023
     87  CD1      -15.1920   -0.8050    8.0350 C.3   163  ILE163      0.0001
     88  N        -11.3630    1.6760    6.1950 N.am  164  HIS164     -0.1959
     89  CA       -10.8530    2.9720    6.6620 C.3   164  HIS164      0.1787
     90  C        -11.7120    3.5280    7.7990 C.2   164  HIS164      0.2620
     91  O        -11.8610    4.7540    7.9560 O.2   164  HIS164     -0.2715
     92  CB       -10.7730    3.9800    5.4890 C.3   164  HIS164      0.0785
     93  CG        -9.6950    3.6710    4.4810 C.ar  164  HIS164      0.0821
     94  ND1       -8.9620    4.6560    3.8510 N.ar  164  HIS164     -0.2267
     95  CD2       -9.2180    2.4910    4.0070 C.ar  164  HIS164      0.1154
     96  CE1       -8.0790    4.1000    3.0390 C.ar  164  HIS164      0.1986
     97  NE2       -8.2250    2.7870    3.1000 N.ar  164  HIS164     -0.2212
     98  N        -12.2930    2.6210    8.5770 N.am  165  GLN165     -0.1977
     99  CA       -13.0840    2.9720    9.7560 C.3   165  GLN165      0.1601
    100  C        -12.7040    2.0650   10.9340 C.2   165  GLN165      0.2287
    101  O        -12.4530    0.8780   10.7490 O.2   165  GLN165     -0.2864
    102  CB       -14.5820    2.7940    9.4870 C.3   165  GLN165      0.0394
    103  CG       -15.1930    3.6280    8.3580 C.3   165  GLN165      0.0908
    104  CD       -16.6950    3.5870    8.4470 C.2   165  GLN165      0.2608
    105  OE1      -17.3290    2.6670    7.9230 O.2   165  GLN165     -0.2717
    106  NE2      -17.2790    4.5260    9.2100 N.am  165  GLN165     -0.0878
    107  N        -11.7380    7.6180    7.1210 N.3   187  PHE187     -0.1241
    108  CA       -12.9680    7.7600    6.3700 C.3   187  PHE187      0.1605
    109  C        -14.1730    7.8630    7.2850 C.2   187  PHE187      0.2264
    110  O        -14.3850    7.0210    8.1640 O.2   187  PHE187     -0.2867
    111  CB       -13.1350    6.6260    5.3480 C.3   187  PHE187      0.0534
    112  CG       -14.4130    6.7120    4.5540 C.ar  187  PHE187     -0.0203
    113  CD1      -14.5880    7.7240    3.5880 C.ar  187  PHE187     -0.0042
    114  CD2      -15.4400    5.7910    4.7630 C.ar  187  PHE187     -0.0042
    115  CE1      -15.7870    7.8170    2.8490 C.ar  187  PHE187     -0.0003
    116  CE2      -16.6410    5.8710    4.0200 C.ar  187  PHE187     -0.0003
    117  CZ       -16.8130    6.8890    3.0690 C.ar  187  PHE187     -0.0000
    118  N        -18.4380    8.8590    7.2170 N.3   189  LEU189     -0.1245
    119  CA       -19.6820    9.2040    6.5330 C.3   189  LEU189      0.1561
    120  C        -20.3940   10.3410    7.2640 C.2   189  LEU189      0.2260
    121  O        -21.2250   11.0380    6.6760 O.2   189  LEU189     -0.2867
    122  CB       -20.6190    7.9940    6.3900 C.3   189  LEU189      0.0270
    123  CG       -20.2620    6.9560    5.3190 C.3   189  LEU189      0.0019
    124  CD1      -19.4100    5.8840    5.9340 C.3   189  LEU189      0.0001
    125  CD2      -21.5040    6.3080    4.7320 C.3   189  LEU189      0.0001
    126  N        -13.5570   11.5990   -0.4480 N.3   250  HIS250     -0.1241
    127  CA       -12.7750   10.6830   -1.2890 C.3   250  HIS250      0.1621
    128  C        -13.2990   10.5950   -2.7310 C.2   250  HIS250      0.2264
    129  O        -14.4640   10.2440   -2.9630 O.2   250  HIS250     -0.2867
    130  CB       -12.6870    9.2870   -0.6400 C.3   250  HIS250      0.0745
    131  CG       -11.9240    9.2580    0.6550 C.ar  250  HIS250      0.0817
    132  ND1      -11.9190    8.1610    1.4900 N.ar  250  HIS250     -0.2268
    133  CD2      -11.1360   10.1840    1.2520 C.ar  250  HIS250      0.1154
    134  CE1      -11.1600    8.4120    2.5430 C.ar  250  HIS250      0.1986
    135  NE2      -10.6740    9.6340    2.4220 N.ar  250  HIS250     -0.2212
@<TRIPOS>BOND
     1    22    21    2
     2    39    40   ar
     3    39    37   ar
     4    40    38   ar
     5    30    29    2
     6    37    34   ar
     7    38    36   ar
     8    29    28    1
     9    21    27   am
    10    21    20    1
    11    34    36   ar
    12    34    32   ar
    13    36    35   ar
    14    28    27    1
    15    28    31    1
    16    23    20    1
    17    23    24    1
    18   129   128    2
    19    32    31    1
    20    32    33   ar
    21    20    19    1
    22    35    33   ar
    23    26    24   am
    24   128   127    1
    25    50    49    1
    26    24    25    2
    27    49    48    2
    28    49    51    1
    29    46    47    1
    30    46    45    1
    31    48    47    1
    32   127   130    1
    33   127   126    1
    34    41    42    1
    35    45    42    1
    36   130   131    1
    37    42    43    1
    38    78    79   ar
    39    78    76   ar
    40     7     9   ar
    41     7     6   ar
    42    17    16   ar
    43     9    10   ar
    44    79    77   ar
    45   131   133   ar
    46   131   132   ar
    47    43    44    2
    48    16    18   ar
    49    16    15    1
    50     4     3    2
    51    76    75   ar
    52     6     5    1
    53     6     8   ar
    54     3     2    1
    55   133   135   ar
    56    10     8   ar
    57     5     2    1
    58    12    15    1
    59    12    13    1
    60    12    11    1
    61   132   134   ar
    62     2     1    1
    63    77    75   ar
    64    13    14    2
    65    75    74    1
    66   135   134   ar
    67    59    57    1
    68    58    56    1
    69   115   117   ar
    70   115   113   ar
    71    73    72    2
    72    96    97   ar
    73    96    94   ar
    74   117   116   ar
    75    97    95   ar
    76    74    71    1
    77    57    56    1
    78   113   112   ar
    79    94    93   ar
    80    56    53    1
    81    71    72    1
    82    71    70    1
    83    72    80   am
    84    95    93   ar
    85   116   114   ar
    86    93    92    1
    87   112   114   ar
    88   112   111    1
    89    52    53    1
    90   125   123    1
    91    86    84    1
    92    53    54    1
    93    81    80    1
    94    81    82    1
    95    81    84    1
    96   123   124    1
    97   123   122    1
    98   111   108    1
    99    83    82    2
   100    92    89    1
   101    82    88   am
   102    84    85    1
   103    68    66   ar
   104    68    69   ar
   105    88    89    1
   106    54    55    2
   107    54    60   am
   108    66    65   ar
   109   108   107    1
   110   108   109    1
   111   122   119    1
   112   119   118    1
   113   119   120    1
   114    89    90    1
   115   121   120    2
   116    60    61    1
   117    69    67   ar
   118    85    87    1
   119   109   110    2
   120    65    67   ar
   121    65    64    1
   122    90    91    2
   123    90    98   am
   124   105   104    2
   125    61    62    1
   126    61    64    1
   127    62    63    2
   128   103   104    1
   129   103   102    1
   130   104   106   am
   131    98    99    1
   132   102    99    1
   133    99   100    1
   134   101   100    2
