@<TRIPOS>MOLECULE
tmp/3qftA01.pdb
 178 168 0 0 0
SMALL
GASTEIGER

@<TRIPOS>ATOM
      1  N         54.5850   16.0620   16.7950 N.3    56  ARG56      -0.1245
      2  CA        53.1560   16.3330   16.7670 C.3    56  ARG56       0.1563
      3  C         52.6730   16.2130   15.3320 C.2    56  ARG56       0.2260
      4  O         53.4600   15.9550   14.4220 O.2    56  ARG56      -0.2867
      5  CB        52.8780   17.7540   17.2700 C.3    56  ARG56       0.0307
      6  CG        53.4480   18.0600   18.6450 C.3    56  ARG56       0.0489
      7  CD        52.9760   19.4200   19.1400 C.3    56  ARG56       0.2205
      8  NE        53.5550   20.5290   18.3840 N.pl3  56  ARG56      -0.0865
      9  CZ        53.1010   21.7780   18.4340 C.cat  56  ARG56       0.5346
     10  NH1       52.0590   22.0740   19.1990 N.pl3  56  ARG56       0.1354
     11  NH2       53.6910   22.7310   17.7270 N.pl3  56  ARG56       0.1354
     12  N         50.5510   18.4380   12.6130 N.3    58  LEU58      -0.1245
     13  CA        49.8960   19.6880   12.2500 C.3    58  LEU58       0.1561
     14  C         49.4430   19.4730   10.8170 C.2    58  LEU58       0.2260
     15  O         50.2030   18.9860    9.9810 O.2    58  LEU58      -0.2867
     16  CB        50.8580   20.8740   12.3860 C.3    58  LEU58       0.0270
     17  CG        51.1590   21.1830   13.8610 C.3    58  LEU58       0.0019
     18  CD1       52.4040   20.4270   14.2800 C.3    58  LEU58       0.0001
     19  CD2       51.3520   22.6780   14.0780 C.3    58  LEU58       0.0001
     20  N         46.3500   21.7470   14.7810 N.3   232  VAL232     -0.1245
     21  CA        47.2700   20.8410   15.4500 C.3   232  VAL232      0.1561
     22  C         46.4170   19.7530   16.0950 C.2   232  VAL232      0.2260
     23  O         45.4170   20.0410   16.7560 O.2   232  VAL232     -0.2867
     24  CB        48.1180   21.5700   16.5250 C.3   232  VAL232      0.0252
     25  CG1       47.2220   22.2630   17.5360 C.3   232  VAL232      0.0019
     26  CG2       49.0420   20.5770   17.2090 C.3   232  VAL232      0.0019
     27  N         51.9970   33.1600   16.2470 N.3   289  PRO289     -0.2102
     28  CA        52.8710   31.9920   16.3790 C.3   289  PRO289      0.1504
     29  C         52.0660   30.6900   16.3700 C.2   289  PRO289      0.2576
     30  O         50.8850   30.6790   16.7280 O.2   289  PRO289     -0.2718
     31  CB        53.5780   32.2440   17.7080 C.3   289  PRO289      0.0282
     32  CG        52.5560   32.9730   18.5010 C.3   289  PRO289      0.0208
     33  CD        51.9550   33.9400   17.4960 C.3   289  PRO289      0.0893
     34  N         52.7050   29.6060   15.9410 N.am  290  GLY290     -0.1943
     35  CA        52.0330   28.3170   15.8910 C.3   290  GLY290      0.2014
     36  C         50.8410   28.3410   14.9540 C.2   290  GLY290      0.2639
     37  O         50.8900   28.9740   13.8940 O.2   290  GLY290     -0.2714
     38  N         49.7680   27.6540   15.3370 N.am  291  THR291     -0.1950
     39  CA        48.5690   27.6270   14.5100 C.3   291  THR291      0.1897
     40  C         47.9170   29.0030   14.4410 C.2   291  THR291      0.2313
     41  O         46.9660   29.2090   13.6900 O.2   291  THR291     -0.2863
     42  CB        47.5440   26.5910   15.0220 C.3   291  THR291      0.1794
     43  OG1       47.2930   26.8060   16.4160 O.3   291  THR291     -0.2208
     44  CG2       48.0710   25.1810   14.8020 C.3   291  THR291      0.0378
     45  N         56.1130   32.2310   14.6720 N.3   321  GLY321     -0.1210
     46  CA        56.9880   31.5280   15.5880 C.3   321  GLY321      0.1956
     47  C         56.6800   30.0480   15.6640 C.2   321  GLY321      0.2612
     48  O         55.5250   29.6320   15.5520 O.2   321  GLY321     -0.2717
     49  N         57.7240   29.2470   15.8240 N.am  322  CYS322     -0.1956
     50  CA        57.5700   27.8050   15.9550 C.3   322  CYS322      0.1843
     51  C         58.7300   27.3180   16.8110 C.2   322  CYS322      0.2625
     52  O         59.6110   28.1030   17.1670 O.2   322  CYS322     -0.2714
     53  CB        57.5720   27.1190   14.5820 C.3   322  CYS322      0.0997
     54  SG        59.0590   27.3440   13.6060 S.3   322  CYS322     -0.0797
     55  N         58.7320   26.0360   17.1490 N.am  323  ARG323     -0.1977
     56  CA        59.7860   25.4870   17.9910 C.3   323  ARG323      0.1597
     57  C         61.1220   25.3540   17.2680 C.2   323  ARG323      0.2287
     58  O         62.1420   25.8570   17.7460 O.2   323  ARG323     -0.2864
     59  CB        59.3270   24.1390   18.5540 C.3   323  ARG323      0.0334
     60  CG        58.0320   24.2660   19.3450 C.3   323  ARG323      0.0492
     61  CD        57.4860   22.9420   19.8540 C.3   323  ARG323      0.2205
     62  NE        56.1920   23.1500   20.5010 N.pl3 323  ARG323     -0.0865
     63  CZ        55.4940   22.2030   21.1190 C.cat 323  ARG323      0.5346
     64  NH1       55.9610   20.9660   21.1810 N.pl3 323  ARG323      0.1354
     65  NH2       54.3270   22.4970   21.6770 N.pl3 323  ARG323      0.1354
     66  N         58.4430   22.1550   13.1330 N.3   328  ASP328     -0.1239
     67  CA        57.0740   22.6260   12.9490 C.3   328  ASP328      0.1674
     68  C         56.9050   24.0250   12.3560 C.2   328  ASP328      0.2266
     69  O         56.0880   24.8130   12.8310 O.2   328  ASP328     -0.2867
     70  CB        56.3150   22.5360   14.2840 C.3   328  ASP328      0.1410
     71  CG        57.0190   23.2660   15.4210 C.2   328  ASP328      0.3668
     72  OD1       58.0990   23.8520   15.1960 O.co2 328  ASP328     -0.2456
     73  OD2       56.4820   23.2480   16.5500 O.co2 328  ASP328     -0.2456
     74  N         60.4160   33.5410   14.8590 N.3   350  ALA350     -0.1245
     75  CA        61.0590   33.2550   16.1300 C.3   350  ALA350      0.1562
     76  C         61.0890   31.7500   16.3600 C.2   350  ALA350      0.2260
     77  O         60.0420   31.1220   16.5150 O.2   350  ALA350     -0.2867
     78  CB        60.2970   33.9350   17.2610 C.3   350  ALA350      0.0290
     79  N         61.6790   29.2680   18.8470 N.3   352  SER352     -0.1202
     80  CA        61.7760   29.1770   20.2980 C.3   352  SER352      0.2020
     81  C         62.6940   28.1320   20.9190 C.2   352  SER352      0.2618
     82  O         63.1270   28.3130   22.0570 O.2   352  SER352     -0.2717
     83  CB        60.3770   29.0180   20.8960 C.3   352  SER352      0.2103
     84  OG        59.8080   27.7650   20.5490 O.3   352  SER352     -0.2182
     85  N         63.0050   27.0580   20.2000 N.am  353  ARG353     -0.1979
     86  CA        63.8530   26.0210   20.7840 C.3   353  ARG353      0.1597
     87  C         65.1440   25.7110   20.0360 C.2   353  ARG353      0.2287
     88  O         65.7270   24.6430   20.2230 O.2   353  ARG353     -0.2864
     89  CB        63.0390   24.7330   20.9690 C.3   353  ARG353      0.0334
     90  CG        61.7050   24.9690   21.6630 C.3   353  ARG353      0.0492
     91  CD        61.0400   23.6830   22.1220 C.3   353  ARG353      0.2205
     92  NE        59.7160   23.9560   22.6740 N.pl3 353  ARG353     -0.0865
     93  CZ        58.9170   23.0400   23.2120 C.cat 353  ARG353      0.5346
     94  NH1       59.3050   21.7720   23.2790 N.pl3 353  ARG353      0.1354
     95  NH2       57.7290   23.3940   23.6790 N.pl3 353  ARG353      0.1354
     96  N         64.5420   30.9570   25.3300 N.3   358  LYS358     -0.1245
     97  CA        63.3730   31.1730   24.4890 C.3   358  LYS358      0.1561
     98  C         63.4900   32.4280   23.6400 C.2   358  LYS358      0.2260
     99  O         63.9520   33.4720   24.1030 O.2   358  LYS358     -0.2867
    100  CB        62.1080   31.2900   25.3450 C.3   358  LYS358      0.0271
    101  CG        61.7440   30.0460   26.1400 C.3   358  LYS358      0.0035
    102  CD        61.4310   28.8660   25.2280 C.3   358  LYS358      0.0206
    103  CE        60.9210   27.6770   26.0270 C.3   358  LYS358      0.1093
    104  NZ        60.7290   26.4770   25.1680 N.3   358  LYS358     -0.1314
    105  N         60.8480   34.4240   21.2400 N.3   360  TYR360     -0.1227
    106  CA        59.4410   34.5260   20.8610 C.3   360  TYR360      0.1736
    107  C         59.1750   35.7140   19.9380 C.2   360  TYR360      0.2595
    108  O         60.0270   36.5930   19.7810 O.2   360  TYR360     -0.2718
    109  CB        58.5920   34.6760   22.1240 C.3   360  TYR360      0.0548
    110  CG        58.5620   33.4680   23.0420 C.ar  360  TYR360     -0.0200
    111  CD1       58.3240   33.6220   24.4060 C.ar  360  TYR360     -0.0009
    112  CD2       58.6980   32.1730   22.5420 C.ar  360  TYR360     -0.0009
    113  CE1       58.2150   32.5170   25.2500 C.ar  360  TYR360      0.0417
    114  CE2       58.5890   31.0580   23.3820 C.ar  360  TYR360      0.0417
    115  CZ        58.3430   31.2430   24.7330 C.ar  360  TYR360      0.1957
    116  OH        58.1970   30.1600   25.5700 O.3   360  TYR360     -0.2866
    117  N         57.9810   35.7500   19.3480 N.am  361  VAL361     -0.1966
    118  CA        57.6200   36.8380   18.4420 C.3   361  VAL361      0.1727
    119  C         57.7810   38.2280   19.0610 C.2   361  VAL361      0.2616
    120  O         58.1860   39.1630   18.3680 O.2   361  VAL361     -0.2715
    121  CB        56.1610   36.6910   17.9020 C.3   361  VAL361      0.0290
    122  CG1       56.0860   35.5430   16.9090 C.3   361  VAL361      0.0023
    123  CG2       55.1900   36.4610   19.0460 C.3   361  VAL361      0.0023
    124  N         57.4800   38.3770   20.3520 N.am  362  GLN362     -0.1977
    125  CA        57.6090   39.6870   20.9920 C.3   362  GLN362      0.1601
    126  C         59.0570   40.1640   21.0590 C.2   362  GLN362      0.2287
    127  O         59.3110   41.3660   21.1150 O.2   362  GLN362     -0.2864
    128  CB        56.9990   39.6890   22.4040 C.3   362  GLN362      0.0394
    129  CG        57.5200   38.6060   23.3360 C.3   362  GLN362      0.0908
    130  CD        56.6520   37.3700   23.3090 C.2   362  GLN362      0.2608
    131  OE1       56.1600   36.9750   22.2560 O.2   362  GLN362     -0.2717
    132  NE2       56.4640   36.7470   24.4680 N.am  362  GLN362     -0.0878
    133  N         47.4980   31.8180   20.9660 N.3   387  ASP387     -0.1239
    134  CA        47.3520   31.6150   22.4040 C.3   387  ASP387      0.1674
    135  C         46.8900   32.8620   23.1490 C.2   387  ASP387      0.2266
    136  O         47.5390   33.9080   23.0990 O.2   387  ASP387     -0.2867
    137  CB        48.6810   31.1560   22.9960 C.3   387  ASP387      0.1410
    138  CG        48.6140   30.9820   24.4950 C.2   387  ASP387      0.3668
    139  OD1       49.6060   31.3180   25.1780 O.co2 387  ASP387     -0.2456
    140  OD2       47.5700   30.5050   24.9860 O.co2 387  ASP387     -0.2456
    141  N         48.9060   33.4440   27.3810 N.3   390  ASN390     -0.1225
    142  CA        50.1040   34.2270   27.6700 C.3   390  ASN390      0.1785
    143  C         50.6170   35.0420   26.4910 C.2   390  ASN390      0.2597
    144  O         50.9730   36.2080   26.6470 O.2   390  ASN390     -0.2718
    145  CB        51.2330   33.3120   28.1500 C.3   390  ASN390      0.1169
    146  CG        50.8370   32.4710   29.3430 C.2   390  ASN390      0.2627
    147  OD1       50.0880   31.5040   29.2120 O.2   390  ASN390     -0.2716
    148  ND2       51.3350   32.8390   30.5170 N.am  390  ASN390     -0.0877
    149  N         50.6650   34.4230   25.3170 N.am  391  MET391     -0.1979
    150  CA        51.1680   35.0920   24.1230 C.3   391  MET391      0.1605
    151  C         50.4800   36.4250   23.8420 C.2   391  MET391      0.2287
    152  O         51.1440   37.4550   23.7040 O.2   391  MET391     -0.2864
    153  CB        51.0330   34.1600   22.9120 C.3   391  MET391      0.0413
    154  CG        51.6640   34.6750   21.6170 C.3   391  MET391      0.0598
    155  SD        50.6610   35.8810   20.7270 S.3   391  MET391     -0.1393
    156  CE        49.3050   34.8290   20.1800 C.3   391  MET391      0.0692
    157  N         51.4610   39.0200   26.4140 N.3   394  ASP394     -0.1239
    158  CA        52.8690   39.3830   26.2740 C.3   394  ASP394      0.1674
    159  C         53.0730   40.2900   25.0660 C.2   394  ASP394      0.2266
    160  O         53.8350   41.2550   25.1270 O.2   394  ASP394     -0.2867
    161  CB        53.7510   38.1380   26.1270 C.3   394  ASP394      0.1410
    162  CG        53.8510   37.3310   27.4120 C.2   394  ASP394      0.3668
    163  OD1       53.6320   37.9040   28.5020 O.co2 394  ASP394     -0.2456
    164  OD2       54.1660   36.1260   27.3330 O.co2 394  ASP394     -0.2456
    165  N         42.5010   32.1190   21.3490 N.3   432  TRP432     -0.1241
    166  CA        41.7590   31.0160   21.9370 C.3   432  TRP432      0.1605
    167  C         42.6280   30.2460   22.9250 C.2   432  TRP432      0.2264
    168  O         43.8440   30.4340   22.9730 O.2   432  TRP432     -0.2867
    169  CB        41.2460   30.0920   20.8280 C.3   432  TRP432      0.0550
    170  CG        42.3170   29.4320   20.0050 C.ar  432  TRP432      0.0003
    171  CD1       43.0220   28.3060   20.3260 C.ar  432  TRP432      0.0946
    172  CD2       42.7900   29.8450   18.7140 C.ar  432  TRP432      0.0152
    173  NE1       43.9000   27.9900   19.3170 N.ar  432  TRP432     -0.2442
    174  CE2       43.7790   28.9170   18.3150 C.ar  432  TRP432      0.0810
    175  CE3       42.4720   30.9060   17.8550 C.ar  432  TRP432      0.0012
    176  CZ2       44.4560   29.0180   17.0930 C.ar  432  TRP432      0.0191
    177  CZ3       43.1420   31.0050   16.6380 C.ar  432  TRP432      0.0001
    178  CH2       44.1240   30.0650   16.2690 C.ar  432  TRP432      0.0015
@<TRIPOS>BOND
     1    15    14    2
     2    14    13    1
     3    13    16    1
     4    13    12    1
     5    68    69    2
     6    68    67    1
     7    16    17    1
     8    67    66    1
     9    67    70    1
    10    54    53    1
    11    41    40    2
    12    17    19    1
    13    17    18    1
    14    37    36    2
    15    70    71    1
    16     4     3    2
    17    40    39    1
    18    39    42    1
    19    39    38    1
    20    53    50    1
    21    45    46    1
    22    20    21    1
    23    44    42    1
    24    74    75    1
    25    36    38   am
    26    36    35    1
    27    42    43    1
    28    72    71   ar
    29     3     2    1
    30    71    73   ar
    31    21    22    1
    32    21    24    1
    33    48    47    2
    34    46    47    1
    35    47    49   am
    36    49    50    1
    37    35    34    1
    38    34    29   am
    39    50    51    1
    40    22    23    2
    41    75    76    1
    42    75    78    1
    43    27    28    1
    44    27    33    1
    45   178   177   ar
    46   178   176   ar
    47    76    77    2
    48    29    28    1
    49    29    30    2
    50    28    31    1
    51    24    26    1
    52    24    25    1
    53   177   175   ar
    54     2     1    1
    55     2     5    1
    56    51    55   am
    57    51    52    2
    58   122   121    1
    59   176   174   ar
    60    55    56    1
    61    57    58    2
    62    57    56    1
    63     5     6    1
    64    33    32    1
    65    31    32    1
    66    11     9    1
    67   175   172   ar
    68   121   118    1
    69   121   123    1
    70    56    59    1
    71   174   172   ar
    72   174   173   ar
    73   120   119    2
    74     8     9    2
    75     8     7    1
    76     9    10    1
    77   118   119    1
    78   118   117    1
    79    59    60    1
    80     6     7    1
    81   172   170   ar
    82    79    80    1
    83   119   124   am
    84   173   171   ar
    85    60    61    1
    86   117   107   am
    87   108   107    2
    88    61    62    1
    89   107   106    1
    90   170   171   ar
    91   170   169    1
    92    87    88    2
    93    87    86    1
    94   156   155    1
    95    85    86    1
    96    85    81   am
    97    80    83    1
    98    80    81    1
    99   124   125    1
   100    62    63    2
   101    84    83    1
   102   155   154    1
   103    86    89    1
   104   169   166    1
   105   106   105    1
   106   106   109    1
   107    81    82    2
   108   133   134    1
   109    89    90    1
   110   125   126    1
   111   125   128    1
   112   126   127    2
   113    63    64    1
   114    63    65    1
   115   165   166    1
   116   154   153    1
   117    90    91    1
   118   166   167    1
   119    91    92    1
   120   109   110    1
   121   131   130    2
   122   128   129    1
   123   134   137    1
   124   134   135    1
   125   112   110   ar
   126   112   114   ar
   127    92    93    2
   128   153   150    1
   129   167   168    2
   130   137   138    1
   131   110   111   ar
   132   136   135    2
   133    93    94    1
   134    93    95    1
   135   130   129    1
   136   130   132   am
   137   114   115   ar
   138    98    99    2
   139    98    97    1
   140   152   151    2
   141   151   150    1
   142   150   149    1
   143   111   113   ar
   144    97    96    1
   145    97   100    1
   146   138   140   ar
   147   138   139   ar
   148   115   113   ar
   149   115   116    1
   150   159   160    2
   151   159   158    1
   152   104   103    1
   153   102   103    1
   154   102   101    1
   155   149   143   am
   156   100   101    1
   157   161   158    1
   158   161   162    1
   159   158   157    1
   160   143   144    2
   161   143   142    1
   162   164   162   ar
   163   141   142    1
   164   162   163   ar
   165   142   145    1
   166   145   146    1
   167   147   146    2
   168   146   148   am
