@<TRIPOS>MOLECULE
tmp/3qfuA00.pdb
 177 166 0 0 0
SMALL
GASTEIGER

@<TRIPOS>ATOM
      1  N         21.4890   22.1890    5.2600 N.3     9  ASP9       -0.1239
      2  CA        20.8480   22.9730    6.3050 C.3     9  ASP9        0.1674
      3  C         21.3580   24.4090    6.1570 C.2     9  ASP9        0.2266
      4  O         22.4990   24.7110    6.5060 O.2     9  ASP9       -0.2867
      5  CB        21.1840   22.3780    7.6860 C.3     9  ASP9        0.1410
      6  CG        20.6670   23.2210    8.8580 C.2     9  ASP9        0.3668
      7  OD1       20.0280   24.2780    8.6510 O.co2   9  ASP9       -0.2456
      8  OD2       20.9160   22.8090   10.0120 O.co2   9  ASP9       -0.2456
      9  N         21.1700   27.5370    7.6960 N.3    11  GLY11      -0.1210
     10  CA        20.7330   28.0350    8.9960 C.3    11  GLY11       0.1956
     11  C         20.9070   29.5260    9.1940 C.2    11  GLY11       0.2613
     12  O         21.6490   30.1840    8.4540 O.2    11  GLY11      -0.2717
     13  N         20.2210   30.0520   10.2050 N.am   12  THR12      -0.1938
     14  CA        20.3140   31.4630   10.5710 C.3    12  THR12       0.2028
     15  C         21.7510   31.8760   10.8980 C.2    12  THR12       0.2643
     16  O         22.2180   32.9200   10.4340 O.2    12  THR12      -0.2714
     17  CB        19.3660   31.8060   11.7540 C.3    12  THR12       0.1808
     18  OG1       18.0250   31.4440   11.4090 O.3    12  THR12      -0.2208
     19  CG2       19.4000   33.3020   12.0800 C.3    12  THR12       0.0379
     20  N         22.4500   31.0530   11.6800 N.am   13  THR13      -0.1936
     21  CA        23.8100   31.3900   12.1190 C.3    13  THR13       0.2028
     22  C         24.8790   30.4650   11.5300 C.2    13  THR13       0.2642
     23  O         26.0040   30.8960   11.2770 O.2    13  THR13      -0.2714
     24  CB        23.9370   31.4400   13.6680 C.3    13  THR13       0.1808
     25  OG1       23.8500   30.1200   14.2180 O.3    13  THR13      -0.2208
     26  CG2       22.8580   32.3340   14.2830 C.3    13  THR13       0.0379
     27  N         24.5190   29.2000   11.3200 N.am   14  TYR14      -0.1973
     28  CA        25.4230   28.2120   10.7340 C.3    14  TYR14       0.1639
     29  C         24.7560   27.4210    9.6250 C.2    14  TYR14       0.2290
     30  O         23.5590   27.1450    9.6900 O.2    14  TYR14      -0.2864
     31  CB        25.9090   27.2290   11.7990 C.3    14  TYR14       0.0560
     32  CG        26.9590   27.7920   12.7210 C.ar   14  TYR14      -0.0198
     33  CD1       28.3060   27.8000   12.3540 C.ar   14  TYR14      -0.0009
     34  CD2       26.6070   28.3160   13.9620 C.ar   14  TYR14      -0.0009
     35  CE1       29.2770   28.3190   13.2050 C.ar   14  TYR14       0.0417
     36  CE2       27.5670   28.8360   14.8190 C.ar   14  TYR14       0.0417
     37  CZ        28.8970   28.8340   14.4360 C.ar   14  TYR14       0.1957
     38  OH        29.8450   29.3480   15.2860 O.3    14  TYR14      -0.2866
     39  N         30.5350   22.5430   10.3940 N.3    36  ILE36      -0.1245
     40  CA        29.5150   23.5620   10.1460 C.3    36  ILE36       0.1561
     41  C         30.2000   24.8780    9.7560 C.2    36  ILE36       0.2260
     42  O         31.3560   25.1100   10.1150 O.2    36  ILE36      -0.2867
     43  CB        28.5570   23.7540   11.3540 C.3    36  ILE36       0.0252
     44  CG1       29.3260   24.1790   12.6130 C.3    36  ILE36       0.0019
     45  CG2       27.7390   22.4770   11.5940 C.3    36  ILE36       0.0019
     46  CD1       28.4390   24.5790   13.7810 C.3    36  ILE36       0.0001
     47  N         14.3890   22.4300   19.1520 N.3   197  ASP197     -0.1239
     48  CA        15.5000   22.9370   18.3470 C.3   197  ASP197      0.1674
     49  C         15.9870   24.2910   18.8620 C.2   197  ASP197      0.2266
     50  O         15.3960   25.3330   18.5670 O.2   197  ASP197     -0.2867
     51  CB        15.0850   23.0300   16.8690 C.3   197  ASP197      0.1410
     52  CG        16.2700   23.2160   15.9240 C.2   197  ASP197      0.3668
     53  OD1       17.2530   23.8970   16.2900 O.co2 197  ASP197     -0.2456
     54  OD2       16.2090   22.6860   14.7930 O.co2 197  ASP197     -0.2456
     55  N         19.0140   26.7510   18.6280 N.3   199  GLY199     -0.1210
     56  CA        20.1790   27.0450   17.8060 C.3   199  GLY199      0.1956
     57  C         20.9540   28.2600   18.2700 C.2   199  GLY199      0.2612
     58  O         21.0190   28.5500   19.4670 O.2   199  GLY199     -0.2717
     59  N         21.5440   28.9660   17.3080 N.am  200  GLY200     -0.1942
     60  CA        22.3440   30.1540   17.5870 C.3   200  GLY200      0.2014
     61  C         21.5180   31.4100   17.7480 C.2   200  GLY200      0.2639
     62  O         21.8380   32.2630   18.5710 O.2   200  GLY200     -0.2714
     63  N         20.4520   31.5230   16.9620 N.am  201  GLY201     -0.1939
     64  CA        19.6290   32.7270   16.9650 C.3   201  GLY201      0.2014
     65  C         18.1760   32.4900   17.3150 C.2   201  GLY201      0.2639
     66  O         17.5040   33.3890   17.8290 O.2   201  GLY201     -0.2714
     67  N         17.6890   31.2830   17.0300 N.am  202  THR202     -0.1950
     68  CA        16.2660   30.9770   17.1570 C.3   202  THR202      0.1897
     69  C         16.0000   29.7200   17.9710 C.2   202  THR202      0.2313
     70  O         16.8360   28.8200   18.0480 O.2   202  THR202     -0.2863
     71  CB        15.5860   30.7780   15.7800 C.3   202  THR202      0.1794
     72  OG1       16.0970   29.5910   15.1590 O.3   202  THR202     -0.2208
     73  CG2       15.8080   31.9840   14.8630 C.3   202  THR202      0.0378
     74  N         21.7340   30.6380   21.2120 N.3   228  GLY228     -0.1210
     75  CA        23.0720   30.6140   21.8030 C.3   228  GLY228      0.1956
     76  C         23.7560   31.9650   21.9210 C.2   228  GLY228      0.2611
     77  O         24.4810   32.2110   22.8870 O.2   228  GLY228     -0.2717
     78  N         23.5270   32.8380   20.9400 N.am  229  GLU229     -0.1979
     79  CA        24.1200   34.1800   20.9290 C.3   229  GLU229      0.1602
     80  C         23.6920   34.9920   22.1580 C.2   229  GLU229      0.2287
     81  O         24.4700   35.7870   22.6910 O.2   229  GLU229     -0.2864
     82  CB        23.7490   34.9330   19.6440 C.3   229  GLU229      0.0415
     83  CG        24.1180   34.2220   18.3320 C.3   229  GLU229      0.1163
     84  CD        25.5360   34.4940   17.8520 C.2   229  GLU229      0.3649
     85  OE1       26.0470   35.6170   18.0550 O.co2 229  GLU229     -0.2457
     86  OE2       26.1350   33.5800   17.2440 O.co2 229  GLU229     -0.2457
     87  N         25.7160   33.8110   25.0910 N.3   232  ASP232     -0.1239
     88  CA        27.0450   34.4260   24.9810 C.3   232  ASP232      0.1674
     89  C         27.0520   35.8350   25.5590 C.2   232  ASP232      0.2266
     90  O         27.9750   36.2060   26.2850 O.2   232  ASP232     -0.2867
     91  CB        27.4990   34.5170   23.5200 C.3   232  ASP232      0.1410
     92  CG        27.5900   33.1690   22.8380 C.2   232  ASP232      0.3668
     93  OD1       27.5530   32.1300   23.5280 O.co2 232  ASP232     -0.2456
     94  OD2       27.7050   33.1620   21.5970 O.co2 232  ASP232     -0.2456
     95  N         31.6830   32.7140   23.6950 N.3   266  GLU266     -0.1245
     96  CA        31.1360   31.5380   23.0130 C.3   266  GLU266      0.1567
     97  C         32.0110   30.3060   23.2460 C.2   266  GLU266      0.2260
     98  O         31.4960   29.2020   23.4280 O.2   266  GLU266     -0.2867
     99  CB        30.9620   31.7930   21.5120 C.3   266  GLU266      0.0388
    100  CG        30.0780   30.7480   20.8210 C.3   266  GLU266      0.1160
    101  CD        30.0660   30.8490   19.3040 C.2   266  GLU266      0.3649
    102  OE1       30.5570   31.8570   18.7490 O.co2 266  GLU266     -0.2457
    103  OE2       29.5520   29.9070   18.6610 O.co2 266  GLU266     -0.2457
    104  N         31.4310   29.1710   26.9090 N.3   269  LYS269     -0.1231
    105  CA        30.1320   28.5090   26.9470 C.3   269  LYS269      0.1693
    106  C         30.2310   27.0630   26.4580 C.2   269  LYS269      0.2591
    107  O         29.7740   26.1450   27.1400 O.2   269  LYS269     -0.2718
    108  CB        29.1200   29.2850   26.1040 C.3   269  LYS269      0.0285
    109  CG        27.7600   28.6110   25.9900 C.3   269  LYS269      0.0035
    110  CD        26.8940   29.2760   24.9400 C.3   269  LYS269      0.0206
    111  CE        27.4070   28.9850   23.5380 C.3   269  LYS269      0.1093
    112  NZ        26.6510   29.7630   22.5200 N.3   269  LYS269     -0.1314
    113  N         30.8320   26.8740   25.2820 N.am  270  ARG270     -0.1980
    114  CA        31.0180   25.5410   24.6960 C.3   270  ARG270      0.1597
    115  C         31.7740   24.6170   25.6460 C.2   270  ARG270      0.2287
    116  O         31.4030   23.4540   25.8170 O.2   270  ARG270     -0.2864
    117  CB        31.7770   25.6300   23.3720 C.3   270  ARG270      0.0334
    118  CG        30.9970   26.2090   22.2060 C.3   270  ARG270      0.0492
    119  CD        31.9590   26.5460   21.0740 C.3   270  ARG270      0.2205
    120  NE        31.2900   27.1300   19.9150 N.pl3 270  ARG270     -0.0865
    121  CZ        30.8540   26.4350   18.8670 C.cat 270  ARG270      0.5346
    122  NH1       31.0100   25.1170   18.8230 N.pl3 270  ARG270      0.1354
    123  NH2       30.2600   27.0620   17.8600 N.pl3 270  ARG270      0.1354
    124  N         29.8560   22.9700   28.5720 N.3   273  SER273     -0.1217
    125  CA        28.9550   21.8650   28.2460 C.3   273  SER273      0.1889
    126  C         29.5630   20.5110   28.6170 C.2   273  SER273      0.2288
    127  O         28.8460   19.5150   28.7300 O.2   273  SER273     -0.2866
    128  CB        28.5730   21.8930   26.7660 C.3   273  SER273      0.2089
    129  OG        27.6970   22.9740   26.4930 O.3   273  SER273     -0.2183
    130  N         19.9570   21.1730   17.3250 N.3   336  GLY336     -0.1210
    131  CA        20.4460   22.5380   17.4860 C.3   336  GLY336      0.1956
    132  C         21.6410   22.5410   18.4180 C.2   336  GLY336      0.2612
    133  O         21.6680   21.8010   19.4020 O.2   336  GLY336     -0.2717
    134  N         22.6270   23.3780   18.1070 N.am  337  GLY337     -0.1942
    135  CA        23.8940   23.3870   18.8370 C.3   337  GLY337      0.2014
    136  C         23.7850   23.6500   20.3270 C.2   337  GLY337      0.2639
    137  O         24.5480   23.0910   21.1210 O.2   337  GLY337     -0.2714
    138  N         22.8310   24.4960   20.7040 N.am  338  SER338     -0.1949
    139  CA        22.6610   24.9080   22.0960 C.3   338  SER338      0.1924
    140  C         22.0820   23.8140   22.9930 C.2   338  SER338      0.2314
    141  O         22.0980   23.9420   24.2160 O.2   338  SER338     -0.2863
    142  CB        21.7930   26.1660   22.1820 C.3   338  SER338      0.2116
    143  OG        22.3770   27.2480   21.4800 O.3   338  SER338     -0.2180
    144  N         23.3620   21.0900   23.5400 N.3   340  ARG340     -0.1231
    145  CA        24.4950   20.4520   24.2030 C.3   340  ARG340      0.1694
    146  C         24.6430   20.9170   25.6540 C.2   340  ARG340      0.2591
    147  O         25.3060   20.2560   26.4530 O.2   340  ARG340     -0.2718
    148  CB        25.7890   20.7170   23.4330 C.3   340  ARG340      0.0321
    149  CG        25.9510   19.8650   22.1910 C.3   340  ARG340      0.0489
    150  CD        27.4070   19.8030   21.7840 C.3   340  ARG340      0.2205
    151  NE        27.6100   19.0680   20.5390 N.pl3 340  ARG340     -0.0865
    152  CZ        27.5450   19.6120   19.3280 C.cat 340  ARG340      0.5346
    153  NH1       27.2770   20.9050   19.1850 N.pl3 340  ARG340      0.1354
    154  NH2       27.7530   18.8610   18.2580 N.pl3 340  ARG340      0.1354
    155  N         24.0280   22.0520   25.9860 N.am  341  ILE341     -0.1980
    156  CA        24.0430   22.5790   27.3540 C.3   341  ILE341      0.1595
    157  C         23.3040   21.6200   28.3000 C.2   341  ILE341      0.2287
    158  O         22.1060   21.3860   28.1300 O.2   341  ILE341     -0.2864
    159  CB        23.4220   24.0030   27.4400 C.3   341  ILE341      0.0276
    160  CG1       24.1600   24.9750   26.5080 C.3   341  ILE341      0.0022
    161  CG2       23.4370   24.5130   28.8850 C.3   341  ILE341      0.0022
    162  CD1       23.4250   26.2880   26.2460 C.3   341  ILE341      0.0001
    163  N         23.8260   17.2110   17.2190 N.3   363  PRO363     -0.2102
    164  CA        22.6980   18.1490   17.1250 C.3   363  PRO363      0.1504
    165  C         22.9100   19.2980   16.1310 C.2   363  PRO363      0.2575
    166  O         21.9280   19.8810   15.6590 O.2   363  PRO363     -0.2718
    167  CB        22.5640   18.6860   18.5540 C.3   363  PRO363      0.0282
    168  CG        23.9180   18.5080   19.1570 C.3   363  PRO363      0.0208
    169  CD        24.4510   17.2420   18.5550 C.3   363  PRO363      0.0893
    170  N         24.1750   19.5940   15.8200 N.am  364  ASP364     -0.1974
    171  CA        24.5570   20.5950   14.8140 C.3   364  ASP364      0.1708
    172  C         24.2740   20.1030   13.4070 C.2   364  ASP364      0.2293
    173  O         24.2100   20.8980   12.4620 O.2   364  ASP364     -0.2864
    174  CB        26.0650   20.8680   14.8680 C.3   364  ASP364      0.1436
    175  CG        26.5420   21.3170   16.2260 C.2   364  ASP364      0.3671
    176  OD1       25.7080   21.5800   17.1130 O.co2 364  ASP364     -0.2456
    177  OD2       27.7710   21.4080   16.4010 O.co2 364  ASP364     -0.2456
@<TRIPOS>BOND
     1     1     2    1
     2     3     2    1
     3     3     4    2
     4     2     5    1
     5     5     6    1
     6     9    10    1
     7    12    11    2
     8     7     6   ar
     9     6     8   ar
    10    10    11    1
    11    11    13   am
    12    29    30    2
    13    29    28    1
    14    41    42    2
    15    41    40    1
    16    40    39    1
    17    40    43    1
    18    13    14    1
    19    16    15    2
    20    14    15    1
    21    14    17    1
    22    28    27    1
    23    28    31    1
    24    15    20   am
    25    23    22    2
    26    27    22   am
    27    43    45    1
    28    43    44    1
    29    18    17    1
    30    22    21    1
    31    20    21    1
    32    17    19    1
    33    31    32    1
    34    21    24    1
    35    33    32   ar
    36    33    35   ar
    37   173   172    2
    38    44    46    1
    39    32    34   ar
    40    35    37   ar
    41   172   171    1
    42    24    25    1
    43    24    26    1
    44    34    36   ar
    45    37    36   ar
    46    37    38    1
    47    54    52   ar
    48   171   174    1
    49   171   170    1
    50    73    71    1
    51   174   175    1
    52    72    71    1
    53   166   165    2
    54    71    68    1
    55   170   165   am
    56    52    53   ar
    57    52    51    1
    58   165   164    1
    59   175   177   ar
    60   175   176   ar
    61    51    48    1
    62    63    64    1
    63    63    61   am
    64    64    65    1
    65    67    68    1
    66    67    65   am
    67   164   163    1
    68   164   167    1
    69    68    69    1
    70   163   169    1
    71    86    84   ar
    72    59    60    1
    73    59    57   am
    74    65    66    2
    75   130   131    1
    76   131   132    1
    77    60    61    1
    78    61    62    2
    79    56    57    1
    80    56    55    1
    81    84    85   ar
    82    84    83    1
    83   123   121    1
    84    69    70    2
    85   134   132   am
    86   134   135    1
    87   154   152    1
    88    57    58    2
    89    83    82    1
    90    48    49    1
    91    48    47    1
    92   132   133    2
    93   167   168    1
    94   169   168    1
    95    50    49    2
    96   103   101   ar
    97   102   101   ar
    98   122   121    1
    99   135   136    1
   100   121   120    2
   101   153   152    1
   102   101   100    1
   103   152   151    2
   104    82    79    1
   105   120   119    1
   106   136   138   am
   107   136   137    2
   108   151   150    1
   109   138   139    1
   110   100    99    1
   111    79    78    1
   112    79    80    1
   113    78    76   am
   114   119   118    1
   115    74    75    1
   116   143   142    1
   117    99    96    1
   118    94    92   ar
   119   150   149    1
   120    75    76    1
   121    76    77    2
   122   139   142    1
   123   139   140    1
   124    80    81    2
   125   149   148    1
   126   118   117    1
   127   112   111    1
   128    92    91    1
   129    92    93   ar
   130   140   141    2
   131    96    97    1
   132    96    95    1
   133    97    98    2
   134   117   114    1
   135   148   145    1
   136    91    88    1
   137   111   110    1
   138   144   145    1
   139   145   146    1
   140   114   113    1
   141   114   115    1
   142   110   109    1
   143    88    87    1
   144    88    89    1
   145   113   106   am
   146    89    90    2
   147   115   116    2
   148   146   155   am
   149   146   147    2
   150   155   156    1
   151   109   108    1
   152   108   105    1
   153   162   160    1
   154   106   105    1
   155   106   107    2
   156   129   128    1
   157   160   159    1
   158   128   125    1
   159   104   105    1
   160   156   159    1
   161   156   157    1
   162   159   161    1
   163   158   157    2
   164   125   124    1
   165   125   126    1
   166   126   127    2
