@<TRIPOS>MOLECULE
tmp/3qfxA01.pdb
 139 133 0 0 0
SMALL
GASTEIGER

@<TRIPOS>ATOM
      1  N        -22.4390   28.1730    2.8070 N.3    10  VAL10      -0.1231
      2  CA       -22.9710   27.0200    3.5180 C.3    10  VAL10       0.1692
      3  C        -22.5430   27.2890    4.9560 C.2    10  VAL10       0.2592
      4  O        -21.3570   27.4900    5.2330 O.2    10  VAL10      -0.2718
      5  CB       -22.3660   25.6970    3.0150 C.3    10  VAL10       0.0266
      6  CG1      -22.9490   24.5230    3.8040 C.3    10  VAL10       0.0020
      7  CG2      -22.6640   25.5310    1.5210 C.3    10  VAL10       0.0020
      8  N        -23.5090   27.3170    5.8650 N.am   11  VAL11      -0.1966
      9  CA       -23.2180   27.6230    7.2540 C.3    11  VAL11       0.1727
     10  C        -24.2240   26.9830    8.2050 C.2    11  VAL11       0.2616
     11  O        -25.3320   26.6170    7.8050 O.2    11  VAL11      -0.2715
     12  CB       -23.2250   29.1700    7.4650 C.3    11  VAL11       0.0290
     13  CG1      -24.5880   29.7420    7.0840 C.3    11  VAL11       0.0023
     14  CG2      -22.8830   29.5250    8.9040 C.3    11  VAL11       0.0023
     15  N        -23.8130   26.8380    9.4590 N.am   12  ALA12      -0.1977
     16  CA       -24.6590   26.2880   10.5130 C.3    12  ALA12       0.1597
     17  C        -24.5540   27.2950   11.6530 C.2    12  ALA12       0.2287
     18  O        -23.4760   27.4920   12.2060 O.2    12  ALA12      -0.2864
     19  CB       -24.1390   24.9290   10.9610 C.3    12  ALA12       0.0319
     20  N        -16.7370   24.1280   16.3190 N.3    25  ILE25      -0.1245
     21  CA       -18.1900   24.2650   16.3660 C.3    25  ILE25       0.1561
     22  C        -18.5880   23.5480   17.6510 C.2    25  ILE25       0.2260
     23  O        -18.2780   22.3690   17.8370 O.2    25  ILE25      -0.2867
     24  CB       -18.8690   23.5880   15.1570 C.3    25  ILE25       0.0252
     25  CG1      -18.3130   24.1820   13.8560 C.3    25  ILE25       0.0019
     26  CG2      -20.3820   23.7910   15.2280 C.3    25  ILE25       0.0019
     27  CD1      -18.9080   23.5700   12.6010 C.3    25  ILE25       0.0001
     28  N        -26.1390   17.2870    9.9380 N.3    32  ASP32      -0.1225
     29  CA       -25.6490   18.4950    9.2760 C.3    32  ASP32       0.1805
     30  C        -24.3030   18.1890    8.6300 C.2    32  ASP32       0.2597
     31  O        -23.9820   18.7060    7.5620 O.2    32  ASP32      -0.2718
     32  CB       -25.5100   19.6540   10.2750 C.3    32  ASP32       0.1424
     33  CG       -24.8010   20.8740    9.6770 C.2    32  ASP32       0.3668
     34  OD1      -23.5960   21.0710    9.9620 O.co2  32  ASP32      -0.2456
     35  OD2      -25.4410   21.6390    8.9210 O.co2  32  ASP32      -0.2456
     36  N        -23.5190   17.3390    9.2820 N.am   33  MET33      -0.1979
     37  CA       -22.2260   16.9570    8.7390 C.3    33  MET33       0.1605
     38  C        -22.4470   16.2460    7.4040 C.2    33  MET33       0.2287
     39  O        -21.8210   16.5790    6.4040 O.2    33  MET33      -0.2864
     40  CB       -21.4960   16.0370    9.7110 C.3    33  MET33       0.0413
     41  CG       -21.2380   16.6750   11.0700 C.3    33  MET33       0.0598
     42  SD       -20.2940   15.6100   12.1920 S.3    33  MET33      -0.1393
     43  CE       -18.6020   16.0040   11.6610 C.3    33  MET33       0.0692
     44  N        -25.0930   16.3590    5.4440 N.3    35  TYR35      -0.1227
     45  CA       -25.6940   17.2730    4.4790 C.3    35  TYR35       0.1736
     46  C        -24.6470   18.2100    3.8830 C.2    35  TYR35       0.2595
     47  O        -24.6470   18.4870    2.6780 O.2    35  TYR35      -0.2718
     48  CB       -26.7970   18.1010    5.1410 C.3    35  TYR35       0.0548
     49  CG       -27.5480   18.9840    4.1710 C.ar   35  TYR35      -0.0200
     50  CD1      -28.2900   18.4260    3.1270 C.ar   35  TYR35      -0.0009
     51  CD2      -27.5290   20.3740    4.2990 C.ar   35  TYR35      -0.0009
     52  CE1      -28.9990   19.2280    2.2370 C.ar   35  TYR35       0.0417
     53  CE2      -28.2330   21.1880    3.4130 C.ar   35  TYR35       0.0417
     54  CZ       -28.9690   20.6090    2.3860 C.ar   35  TYR35       0.1957
     55  OH       -29.6930   21.4040    1.5200 O.3    35  TYR35      -0.2866
     56  N        -23.7650   18.7100    4.7410 N.am   36  PHE36      -0.1976
     57  CA       -22.7040   19.6000    4.3000 C.3    36  PHE36       0.1639
     58  C        -21.8350   18.8860    3.2730 C.2    36  PHE36       0.2290
     59  O        -21.4580   19.4650    2.2500 O.2    36  PHE36      -0.2864
     60  CB       -21.8340   20.0350    5.4880 C.3    36  PHE36       0.0560
     61  CG       -20.5470   20.7010    5.0790 C.ar   36  PHE36      -0.0200
     62  CD1      -19.4000   19.9430    4.8410 C.ar   36  PHE36      -0.0042
     63  CD2      -20.4940   22.0770    4.8740 C.ar   36  PHE36      -0.0042
     64  CE1      -18.2230   20.5490    4.4010 C.ar   36  PHE36      -0.0003
     65  CE2      -19.3270   22.6880    4.4330 C.ar   36  PHE36      -0.0003
     66  CZ       -18.1890   21.9220    4.1950 C.ar   36  PHE36      -0.0000
     67  N        -10.3450   27.9140    9.9200 N.3    64  THR64      -0.1218
     68  CA       -11.3570   26.8890    9.6890 C.3    64  THR64       0.1862
     69  C        -10.6770   25.6240    9.1680 C.2    64  THR64       0.2287
     70  O        -11.0670   24.5060    9.5060 O.2    64  THR64      -0.2866
     71  CB       -12.4330   27.4020    8.7020 C.3    64  THR64       0.1770
     72  OG1      -13.2110   28.4120    9.3560 O.3    64  THR64      -0.2211
     73  CG2      -13.3520   26.2770    8.2550 C.3    64  THR64       0.0375
     74  N         -9.3580   23.9850   12.0560 N.3    67  SER67      -0.1202
     75  CA       -10.4100   23.3690   12.8650 C.3    67  SER67       0.2020
     76  C        -10.7910   22.0090   12.2980 C.2    67  SER67       0.2619
     77  O        -11.4190   21.1930   12.9740 O.2    67  SER67      -0.2717
     78  CB       -11.6490   24.2650   12.9270 C.3    67  SER67       0.2103
     79  OG       -12.3500   24.2440   11.7020 O.3    67  SER67      -0.2182
     80  N        -10.4260   21.7710   11.0460 N.am   68  LEU68      -0.1966
     81  CA       -10.7320   20.4920   10.4240 C.3    68  LEU68       0.1713
     82  C         -9.9200   19.4010   11.1110 C.2    68  LEU68       0.2458
     83  O         -8.7020   19.5250   11.2510 O.2    68  LEU68      -0.2730
     84  CB       -10.3720   20.5150    8.9370 C.3    68  LEU68       0.0310
     85  CG       -11.4040   20.8160    7.8500 C.3    68  LEU68       0.0022
     86  CD1      -10.6720   20.9090    6.5180 C.3    68  LEU68       0.0001
     87  CD2      -12.4670   19.7220    7.7950 C.3    68  LEU68       0.0001
     88  N        -10.5840   18.3260   11.5750 N.am   69  PRO69      -0.2727
     89  CA        -9.7910   17.2770   12.2220 C.3    69  PRO69       0.1402
     90  C         -8.8310   16.7350   11.1500 C.2    69  PRO69       0.2269
     91  O         -9.2660   16.3620   10.0530 O.2    69  PRO69      -0.2865
     92  CB       -10.8540   16.2640   12.6490 C.3    69  PRO69       0.0296
     93  CG       -11.9590   16.4650   11.6330 C.3    69  PRO69       0.0237
     94  CD       -12.0130   17.9610   11.5430 C.3    69  PRO69       0.0939
     95  N        -10.8950   18.4250    2.6380 N.3    75  LEU75      -0.1245
     96  CA       -12.2460   17.9240    2.4000 C.3    75  LEU75       0.1561
     97  C        -12.2040   17.1720    1.0690 C.2    75  LEU75       0.2260
     98  O        -11.9000   17.7480    0.0290 O.2    75  LEU75      -0.2867
     99  CB       -13.2400   19.0930    2.3530 C.3    75  LEU75       0.0270
    100  CG       -13.4200   19.7920    3.7120 C.3    75  LEU75       0.0019
    101  CD1      -14.1710   21.1010    3.5420 C.3    75  LEU75       0.0001
    102  CD2      -14.1630   18.8640    4.6720 C.3    75  LEU75       0.0001
    103  N        -17.3390   28.3280    2.9730 N.3   138  ILE138     -0.1245
    104  CA       -17.7050   27.5740    4.1580 C.3   138  ILE138      0.1561
    105  C        -17.2120   28.1210    5.5050 C.2   138  ILE138      0.2260
    106  O        -17.2220   27.3990    6.5070 O.2   138  ILE138     -0.2867
    107  CB       -17.2630   26.0930    4.0070 C.3   138  ILE138      0.0252
    108  CG1      -15.7410   25.9800    4.0640 C.3   138  ILE138      0.0019
    109  CG2      -17.7300   25.5460    2.6500 C.3   138  ILE138      0.0019
    110  CD1      -15.2440   24.5660    4.2910 C.3   138  ILE138      0.0001
    111  N        -17.0710   34.9180    6.2220 N.3   144  TYR144     -0.1241
    112  CA       -18.4970   35.1660    6.0460 C.3   144  TYR144      0.1605
    113  C        -18.7580   36.6770    5.9530 C.2   144  TYR144      0.2264
    114  O        -19.5690   37.1300    5.1390 O.2   144  TYR144     -0.2867
    115  CB       -19.2800   34.5820    7.2250 C.3   144  TYR144      0.0534
    116  CG       -19.4220   33.0750    7.2040 C.ar  144  TYR144     -0.0201
    117  CD1      -19.5120   32.3520    8.3950 C.ar  144  TYR144     -0.0009
    118  CD2      -19.5160   32.3720    5.9960 C.ar  144  TYR144     -0.0009
    119  CE1      -19.6930   30.9740    8.3930 C.ar  144  TYR144      0.0417
    120  CE2      -19.7050   30.9870    5.9790 C.ar  144  TYR144      0.0417
    121  CZ       -19.7920   30.2960    7.1810 C.ar  144  TYR144      0.1957
    122  OH       -19.9840   28.9340    7.1910 O.3   144  TYR144     -0.2866
    123  N        -26.9810   28.4500    2.1650 N.3   160  HIS160     -0.1241
    124  CA       -27.5380   27.1930    2.6300 C.3   160  HIS160      0.1621
    125  C        -27.2100   27.1970    4.1180 C.2   160  HIS160      0.2264
    126  O        -26.0970   26.8630    4.5340 O.2   160  HIS160     -0.2867
    127  CB       -26.8630   26.0160    1.9160 C.3   160  HIS160      0.0745
    128  CG       -27.0230   26.0410    0.4260 C.ar  160  HIS160      0.0817
    129  ND1      -28.1750   25.6240   -0.2080 N.ar  160  HIS160     -0.2268
    130  CD2      -26.1940   26.4780   -0.5540 C.ar  160  HIS160      0.1154
    131  CE1      -28.0500   25.8060   -1.5120 C.ar  160  HIS160      0.1986
    132  NE2      -26.8580   26.3240   -1.7490 N.ar  160  HIS160     -0.2212
    133  N        -27.9690   26.0420    8.0700 N.3   162  THR162     -0.1218
    134  CA       -28.5460   25.0500    8.9450 C.3   162  THR162      0.1862
    135  C        -28.8590   25.8240   10.2230 C.2   162  THR162      0.2287
    136  O        -27.9510   26.3150   10.8970 O.2   162  THR162     -0.2866
    137  CB       -27.5630   23.9070    9.2500 C.3   162  THR162      0.1770
    138  OG1      -27.3170   23.1580    8.0520 O.3   162  THR162     -0.2211
    139  CG2      -28.1420   22.9820   10.3100 C.3   162  THR162      0.0375
@<TRIPOS>BOND
     1   132   131   ar
     2   132   130   ar
     3   131   129   ar
     4   130   128   ar
     5   129   128   ar
     6    98    97    2
     7   128   127    1
     8    97    96    1
     9    55    54    1
    10     7     5    1
    11   127   124    1
    12   123   124    1
    13    52    54   ar
    14    52    50   ar
    15    59    58    2
    16    99    96    1
    17    99   100    1
    18    54    53   ar
    19    96    95    1
    20   124   125    1
    21   109   107    1
    22    47    46    2
    23     1     2    1
    24   103   104    1
    25     5     2    1
    26     5     6    1
    27    50    49   ar
    28    58    57    1
    29    53    51   ar
    30     2     3    1
    31   101   100    1
    32   100   102    1
    33    46    45    1
    34    46    56   am
    35   107   108    1
    36   107   104    1
    37   108   110    1
    38   125   126    2
    39   104   105    1
    40    49    51   ar
    41    49    48    1
    42    66    64   ar
    43    66    65   ar
    44    57    56    1
    45    57    60    1
    46    64    62   ar
    47    65    63   ar
    48    45    48    1
    49    45    44    1
    50    62    61   ar
    51    63    61   ar
    52     3     4    2
    53     3     8   am
    54    61    60    1
    55   114   113    2
    56   105   106    2
    57     8     9    1
    58   113   112    1
    59   120   118   ar
    60   120   121   ar
    61   118   116   ar
    62   112   111    1
    63   112   115    1
    64    39    38    2
    65    86    85    1
    66    13    12    1
    67   121   122    1
    68   121   119   ar
    69   116   115    1
    70   116   117   ar
    71     9    12    1
    72     9    10    1
    73    38    37    1
    74    12    14    1
    75    31    30    2
    76    87    85    1
    77    11    10    2
    78    85    84    1
    79   138   137    1
    80   133   134    1
    81    10    15   am
    82    73    71    1
    83   119   117   ar
    84    30    29    1
    85    30    36   am
    86    71    72    1
    87    71    68    1
    88    37    36    1
    89    37    40    1
    90    35    33   ar
    91    84    81    1
    92   134   137    1
    93   134   135    1
    94    69    70    2
    95    69    68    1
    96   137   139    1
    97    29    28    1
    98    29    32    1
    99    15    16    1
   100    33    34   ar
   101    33    32    1
   102    68    67    1
   103    40    41    1
   104    91    90    2
   105   135   136    2
   106    81    80    1
   107    81    82    1
   108    16    19    1
   109    16    17    1
   110    80    76   am
   111    41    42    1
   112    82    83    2
   113    82    88   am
   114    90    89    1
   115    94    88    1
   116    94    93    1
   117    88    89    1
   118    93    92    1
   119    17    18    2
   120    43    42    1
   121    79    78    1
   122    74    75    1
   123    89    92    1
   124    76    75    1
   125    76    77    2
   126    27    25    1
   127    75    78    1
   128    25    24    1
   129    24    26    1
   130    24    21    1
   131    20    21    1
   132    21    22    1
   133    22    23    2
