@<TRIPOS>MOLECULE
tmp/3qfyB01.pdb
 128 123 0 0 0
SMALL
GASTEIGER

@<TRIPOS>ATOM
      1  N        -18.2190   65.5480   79.0990 N.3   351  ARG351     -0.1245
      2  CA       -17.2150   66.0740   78.1580 C.3   351  ARG351      0.1563
      3  C        -16.1690   65.0130   77.8730 C.2   351  ARG351      0.2260
      4  O        -14.9940   65.3530   77.6130 O.2   351  ARG351     -0.2867
      5  CB       -16.5070   67.3390   78.6770 C.3   351  ARG351      0.0307
      6  CG       -17.4710   68.4580   79.1420 C.3   351  ARG351      0.0489
      7  CD       -18.3590   69.0670   78.0080 C.3   351  ARG351      0.2205
      8  NE       -19.2960   69.9410   78.6980 N.pl3 351  ARG351     -0.0865
      9  CZ       -20.5300   69.5870   79.0460 C.cat 351  ARG351      0.5346
     10  NH1      -21.0640   68.3960   78.6460 N.pl3 351  ARG351      0.1354
     11  NH2      -21.2500   70.4440   79.7680 N.pl3 351  ARG351      0.1354
     12  N        -11.1650   62.7050   80.9200 N.3   362  ARG362     -0.1245
     13  CA       -12.4170   63.4130   81.2720 C.3   362  ARG362      0.1563
     14  C        -13.4640   62.3500   81.5490 C.2   362  ARG362      0.2260
     15  O        -13.7600   61.5350   80.6600 O.2   362  ARG362     -0.2867
     16  CB       -12.9290   64.2830   80.1070 C.3   362  ARG362      0.0307
     17  CG       -11.9720   65.2650   79.4530 C.3   362  ARG362      0.0489
     18  CD       -11.5570   66.4030   80.3380 C.3   362  ARG362      0.2205
     19  NE       -12.6650   67.2400   80.7940 N.pl3 362  ARG362     -0.0865
     20  CZ       -13.1500   68.2900   80.1330 C.cat 362  ARG362      0.5346
     21  NH1      -12.6570   68.6090   78.9440 N.pl3 362  ARG362      0.1354
     22  NH2      -14.1270   69.0300   80.6910 N.pl3 362  ARG362      0.1354
     23  N        -19.5350   69.9860   87.6490 N.3   367  ARG367     -0.1231
     24  CA       -20.0610   71.2470   87.1120 C.3   367  ARG367      0.1694
     25  C        -20.7670   71.0410   85.7770 C.2   367  ARG367      0.2592
     26  O        -21.7930   71.6710   85.4790 O.2   367  ARG367     -0.2718
     27  CB       -18.8640   72.1710   86.9070 C.3   367  ARG367      0.0321
     28  CG       -19.0770   73.2620   85.9860 C.3   367  ARG367      0.0489
     29  CD       -17.8010   73.9110   85.5230 C.3   367  ARG367      0.2205
     30  NE       -16.9760   74.4850   86.5950 N.pl3 367  ARG367     -0.0865
     31  CZ       -15.6540   74.3210   86.6270 C.cat 367  ARG367      0.5346
     32  NH1      -15.0660   73.6060   85.6900 N.pl3 367  ARG367      0.1354
     33  NH2      -14.9280   74.8390   87.5780 N.pl3 367  ARG367      0.1354
     34  N        -20.2000   70.1750   84.9520 N.am  368  ASP368     -0.1974
     35  CA       -20.6400   70.0250   83.5760 C.3   368  ASP368      0.1709
     36  C        -21.9380   69.2620   83.5450 C.2   368  ASP368      0.2293
     37  O        -22.8170   69.6190   82.7950 O.2   368  ASP368     -0.2864
     38  CB       -19.5770   69.2710   82.7660 C.3   368  ASP368      0.1436
     39  CG       -18.2170   69.8990   82.8790 C.2   368  ASP368      0.3671
     40  OD1      -17.9320   70.9110   82.1970 O.co2 368  ASP368     -0.2456
     41  OD2      -17.4300   69.4070   83.7110 O.co2 368  ASP368     -0.2456
     42  N        -24.9980   71.2360   84.9420 N.3   371  GLN371     -0.1245
     43  CA       -25.5040   72.2080   83.9900 C.3   371  GLN371      0.1566
     44  C        -26.1640   71.4770   82.8240 C.2   371  GLN371      0.2260
     45  O        -27.1350   71.9880   82.2280 O.2   371  GLN371     -0.2867
     46  CB       -24.3570   73.1350   83.5100 C.3   371  GLN371      0.0367
     47  CG       -24.0270   74.2230   84.4870 C.3   371  GLN371      0.0905
     48  CD       -22.7370   74.9210   84.1340 C.2   371  GLN371      0.2608
     49  OE1      -22.7580   76.0270   83.5400 O.2   371  GLN371     -0.2717
     50  NE2      -21.5980   74.2770   84.4390 N.am  371  GLN371     -0.0878
     51  N        -15.8410   78.7970   87.5470 N.3   488  TRP488     -0.1227
     52  CA       -16.3380   78.2980   86.2660 C.3   488  TRP488      0.1737
     53  C        -15.2140   78.2990   85.2390 C.2   488  TRP488      0.2595
     54  O        -15.1180   77.3890   84.4440 O.2   488  TRP488     -0.2718
     55  CB       -17.4680   79.1790   85.6940 C.3   488  TRP488      0.0564
     56  CG       -17.8780   78.7380   84.2940 C.ar  488  TRP488      0.0003
     57  CD1      -18.7660   77.7390   83.9690 C.ar  488  TRP488      0.0946
     58  CD2      -17.3710   79.2430   83.0430 C.ar  488  TRP488      0.0152
     59  NE1      -18.8470   77.6040   82.5920 N.ar  488  TRP488     -0.2442
     60  CE2      -18.0100   78.5220   82.0080 C.ar  488  TRP488      0.0810
     61  CE3      -16.4590   80.2550   82.6990 C.ar  488  TRP488      0.0012
     62  CZ2      -17.7730   78.7860   80.6610 C.ar  488  TRP488      0.0191
     63  CZ3      -16.2050   80.5030   81.3510 C.ar  488  TRP488      0.0001
     64  CH2      -16.8500   79.7600   80.3490 C.ar  488  TRP488      0.0015
     65  N        -14.3880   79.3380   85.2440 N.am  489  ASN489     -0.1960
     66  CA       -13.3200   79.4400   84.2820 C.3   489  ASN489      0.1819
     67  C        -12.1700   78.6060   84.8080 C.2   489  ASN489      0.2621
     68  O        -11.5100   79.0340   85.7700 O.2   489  ASN489     -0.2715
     69  CB       -12.8850   80.9180   84.1580 C.3   489  ASN489      0.1195
     70  CG       -11.9160   81.1540   83.0240 C.2   489  ASN489      0.2630
     71  OD1      -11.0090   80.3450   82.7870 O.2   489  ASN489     -0.2716
     72  ND2      -12.1290   82.2410   82.2790 N.am  489  ASN489     -0.0877
     73  N        -11.9530   77.4180   84.2280 N.am  490  ASP490     -0.1971
     74  CA       -10.8820   76.5020   84.6430 C.3   490  ASP490      0.1709
     75  C         -9.4550   77.0980   84.5550 C.2   490  ASP490      0.2293
     76  O         -8.5210   76.5620   85.1610 O.2   490  ASP490     -0.2864
     77  CB       -10.9220   75.2380   83.7680 C.3   490  ASP490      0.1436
     78  CG       -12.0150   74.2860   84.1560 C.2   490  ASP490      0.3671
     79  OD1      -12.4660   74.2920   85.3310 O.co2 490  ASP490     -0.2456
     80  OD2      -12.4030   73.4990   83.2920 O.co2 490  ASP490     -0.2456
     81  N         -9.6680   79.5770   72.9200 N.3   658  LYS658     -0.1231
     82  CA       -10.0680   78.9610   74.2020 C.3   658  LYS658      0.1693
     83  C        -10.2680   80.0750   75.2590 C.2   658  LYS658      0.2591
     84  O        -10.8990   81.0730   74.9640 O.2   658  LYS658     -0.2718
     85  CB        -9.0570   77.9200   74.6610 C.3   658  LYS658      0.0285
     86  CG        -9.0860   76.5760   73.8760 C.3   658  LYS658      0.0035
     87  CD       -10.2420   75.6470   74.3630 C.3   658  LYS658      0.0206
     88  CE        -9.8860   75.0620   75.6640 C.3   658  LYS658      0.1093
     89  NZ       -10.7790   73.8800   76.0330 N.3   658  LYS658     -0.1314
     90  N         -9.7280   79.9180   76.4720 N.am  659  GLU659     -0.1979
     91  CA       -10.0610   80.8640   77.5700 C.3   659  GLU659      0.1602
     92  C         -9.3660   82.2270   77.4420 C.2   659  GLU659      0.2287
     93  O         -9.6430   83.1870   78.2130 O.2   659  GLU659     -0.2864
     94  CB        -9.7650   80.2050   78.9400 C.3   659  GLU659      0.0415
     95  CG       -10.8560   79.2440   79.4030 C.3   659  GLU659      0.1163
     96  CD       -10.6470   77.7920   78.9430 C.2   659  GLU659      0.3649
     97  OE1       -9.7690   77.5170   78.0620 O.co2 659  GLU659     -0.2457
     98  OE2      -11.3740   76.9200   79.5000 O.co2 659  GLU659     -0.2457
     99  N        -16.1040   81.5020   74.0300 N.3   664  PHE664     -0.1241
    100  CA       -16.3560   80.2620   74.7910 C.3   664  PHE664      0.1605
    101  C        -17.8790   80.1640   74.8690 C.2   664  PHE664      0.2264
    102  O        -18.5110   80.8540   75.7010 O.2   664  PHE664     -0.2867
    103  CB       -15.6890   80.3200   76.1700 C.3   664  PHE664      0.0534
    104  CG       -14.9560   79.0700   76.5340 C.ar  664  PHE664     -0.0203
    105  CD1      -15.6070   78.0350   77.1720 C.ar  664  PHE664     -0.0042
    106  CD2      -13.6010   78.9240   76.2190 C.ar  664  PHE664     -0.0042
    107  CE1      -14.9380   76.8590   77.5060 C.ar  664  PHE664     -0.0003
    108  CE2      -12.9100   77.7410   76.5460 C.ar  664  PHE664     -0.0003
    109  CZ       -13.5830   76.6990   77.1770 C.ar  664  PHE664     -0.0000
    110  N        -20.3900   78.5330   75.7080 N.3   666  HIS666     -0.1241
    111  CA       -21.1450   78.1950   76.8940 C.3   666  HIS666      0.1621
    112  C        -21.5370   79.4600   77.6820 C.2   666  HIS666      0.2264
    113  O        -22.6080   79.5210   78.2800 O.2   666  HIS666     -0.2867
    114  CB       -20.2580   77.2600   77.7400 C.3   666  HIS666      0.0745
    115  CG       -20.8170   76.8900   79.0920 C.ar  666  HIS666      0.0817
    116  ND1      -21.1780   75.5950   79.4140 N.ar  666  HIS666     -0.2268
    117  CD2      -20.9890   77.6190   80.2240 C.ar  666  HIS666      0.1154
    118  CE1      -21.5970   75.5540   80.6730 C.ar  666  HIS666      0.1986
    119  NE2      -21.4820   76.7670   81.1900 N.ar  666  HIS666     -0.2212
    120  N        -17.7320   74.0000   71.5540 N.3   712  GLN712     -0.1245
    121  CA       -17.2430   74.7430   72.7450 C.3   712  GLN712      0.1566
    122  C        -16.6700   76.1220   72.4280 C.2   712  GLN712      0.2260
    123  O        -16.8920   77.0870   73.1290 O.2   712  GLN712     -0.2867
    124  CB       -16.1590   73.9360   73.4470 C.3   712  GLN712      0.0367
    125  CG       -15.4820   74.6720   74.5870 C.3   712  GLN712      0.0905
    126  CD       -14.2560   73.9380   74.9980 C.2   712  GLN712      0.2608
    127  OE1      -13.1510   74.1990   74.4650 O.2   712  GLN712     -0.2717
    128  NE2      -14.4350   72.9220   75.8730 N.am  712  GLN712     -0.0878
@<TRIPOS>BOND
     1   120   121    1
     2   122   121    1
     3   122   123    2
     4   121   124    1
     5    81    82    1
     6   124   125    1
     7    86    87    1
     8    86    85    1
     9    99   100    1
    10    82    85    1
    11    82    83    1
    12    87    88    1
    13   127   126    2
    14   125   126    1
    15   100   101    1
    16   100   103    1
    17   101   102    2
    18    84    83    2
    19   126   128   am
    20    83    90   am
    21    88    89    1
    22   110   111    1
    23   103   104    1
    24   106   104   ar
    25   106   108   ar
    26    90    91    1
    27   104   105   ar
    28   108   109   ar
    29   111   112    1
    30   111   114    1
    31   105   107   ar
    32   109   107   ar
    33    92    91    1
    34    92    93    2
    35    91    94    1
    36     4     3    2
    37   112   113    2
    38   114   115    1
    39     3     2    1
    40     7     8    1
    41     7     6    1
    42    97    96   ar
    43     2     5    1
    44     2     1    1
    45    10     9    1
    46     5     6    1
    47     8     9    2
    48    94    95    1
    49    96    95    1
    50    96    98   ar
    51    21    20    1
    52     9    11    1
    53   115   116   ar
    54   115   117   ar
    55   116   118   ar
    56    17    16    1
    57    17    18    1
    58    16    13    1
    59    20    22    1
    60    20    19    2
    61   117   119   ar
    62    18    19    1
    63    64    62   ar
    64    64    63   ar
    65    15    14    2
    66    62    60   ar
    67   118   119   ar
    68    12    13    1
    69    13    14    1
    70    63    61   ar
    71    60    59   ar
    72    60    58   ar
    73    40    39   ar
    74    45    44    2
    75    72    70   am
    76    59    57   ar
    77    61    58   ar
    78    38    39    1
    79    38    35    1
    80    71    70    2
    81    37    36    2
    82    44    43    1
    83    39    41   ar
    84    70    69    1
    85    58    56   ar
    86    80    78   ar
    87    46    43    1
    88    46    47    1
    89    49    48    2
    90    36    35    1
    91    35    34    1
    92    77    78    1
    93    77    74    1
    94    57    56   ar
    95    43    42    1
    96    48    50   am
    97    48    47    1
    98    78    79   ar
    99    69    66    1
   100    73    74    1
   101    73    67   am
   102    66    67    1
   103    66    65    1
   104    56    55    1
   105    54    53    2
   106    75    74    1
   107    75    76    2
   108    67    68    2
   109    34    25   am
   110    53    65   am
   111    53    52    1
   112    26    25    2
   113    29    28    1
   114    29    30    1
   115    32    31    1
   116    55    52    1
   117    25    24    1
   118    28    27    1
   119    52    51    1
   120    30    31    2
   121    31    33    1
   122    27    24    1
   123    24    23    1
