@<TRIPOS>MOLECULE
tmp/3qg0A00.pdb
 101 94 0 0 0
SMALL
GASTEIGER

@<TRIPOS>ATOM
      1  N          7.3590   54.4860   82.1950 N.3   362  ARG362     -0.1245
      2  CA         8.6410   54.0820   82.7920 C.3   362  ARG362      0.1563
      3  C          9.6690   55.1600   82.6620 C.2   362  ARG362      0.2260
      4  O          9.8930   55.6660   81.5750 O.2   362  ARG362     -0.2867
      5  CB         9.2440   52.8350   82.1300 C.3   362  ARG362      0.0307
      6  CG         8.3050   51.8570   81.4510 C.3   362  ARG362      0.0489
      7  CD         8.0480   50.6230   82.2800 C.3   362  ARG362      0.2205
      8  NE         9.2260   50.0260   82.9430 N.pl3 362  ARG362     -0.0865
      9  CZ         9.8590   48.9080   82.5500 C.cat 362  ARG362      0.5346
     10  NH1        9.4970   48.2540   81.4420 N.pl3 362  ARG362      0.1354
     11  NH2       10.8820   48.4490   83.2690 N.pl3 362  ARG362      0.1354
     12  N          4.8330   53.0120   88.4440 N.3   416  ILE416     -0.1245
     13  CA         4.7100   51.5930   88.1490 C.3   416  ILE416      0.1561
     14  C          4.8420   50.6810   89.3780 C.2   416  ILE416      0.2260
     15  O          5.2480   49.5180   89.2440 O.2   416  ILE416     -0.2867
     16  CB         5.6210   51.1130   86.9720 C.3   416  ILE416      0.0252
     17  CG1        7.0850   51.4780   87.2260 C.3   416  ILE416      0.0019
     18  CG2        5.0570   51.6100   85.6000 C.3   416  ILE416      0.0019
     19  CD1        8.0360   50.6140   86.5310 C.3   416  ILE416      0.0001
     20  N          8.2730   40.8010   88.2870 N.3   490  ASP490     -0.1225
     21  CA         7.2080   41.7640   88.4950 C.3   490  ASP490      0.1805
     22  C          5.8670   41.0620   88.4930 C.2   490  ASP490      0.2598
     23  O          4.9090   41.5750   89.0350 O.2   490  ASP490     -0.2718
     24  CB         7.2120   42.8100   87.3700 C.3   490  ASP490      0.1424
     25  CG         8.2440   43.9300   87.5790 C.2   490  ASP490      0.3668
     26  OD1        8.7880   44.0760   88.7010 O.co2 490  ASP490     -0.2456
     27  OD2        8.5010   44.7020   86.6150 O.co2 490  ASP490     -0.2456
     28  N          5.7780   39.8990   87.8750 N.am  491  CYS491     -0.1970
     29  CA         4.4880   39.2930   87.6870 C.3   491  CYS491      0.1712
     30  C          4.1330   38.2630   88.7530 C.2   491  CYS491      0.2296
     31  O          3.0460   37.6650   88.7220 O.2   491  CYS491     -0.2864
     32  CB         4.3690   38.7420   86.2690 C.3   491  CYS491      0.0983
     33  SG         4.1900   40.0930   85.0480 S.3   491  CYS491     -0.0798
     34  N          0.7360   46.1610   88.9460 N.3   506  GLN506     -0.1245
     35  CA         1.9230   46.8660   89.4350 C.3   506  GLN506      0.1566
     36  C          1.5580   48.0070   90.4070 C.2   506  GLN506      0.2260
     37  O          2.3560   48.3430   91.2810 O.2   506  GLN506     -0.2867
     38  CB         2.7700   47.3950   88.2680 C.3   506  GLN506      0.0367
     39  CG         3.0350   46.3920   87.1590 C.3   506  GLN506      0.0905
     40  CD         4.0210   45.3520   87.5900 C.2   506  GLN506      0.2608
     41  OE1        5.1400   45.6830   88.0130 O.2   506  GLN506     -0.2717
     42  NE2        3.6210   44.0710   87.4960 N.am  506  GLN506     -0.0878
     43  N         -0.0260   38.5750   88.3660 N.3   649  GLU649     -0.1245
     44  CA        -0.0670   38.8980   86.9580 C.3   649  GLU649      0.1567
     45  C          0.3940   37.7340   86.1100 C.2   649  GLU649      0.2260
     46  O          0.0160   37.6320   84.9550 O.2   649  GLU649     -0.2867
     47  CB         0.8010   40.1120   86.6710 C.3   649  GLU649      0.0388
     48  CG         0.8530   40.4770   85.2060 C.3   649  GLU649      0.1160
     49  CD         1.1990   41.9330   84.8950 C.2   649  GLU649      0.3649
     50  OE1        1.3130   42.7860   85.8190 O.co2 649  GLU649     -0.2457
     51  OE2        1.3430   42.2310   83.6840 O.co2 649  GLU649     -0.2457
     52  N         -0.8950   36.1950   81.3310 N.3   653  TYR653     -0.1241
     53  CA        -0.3770   36.0640   79.9560 C.3   653  TYR653      0.1605
     54  C         -0.6940   34.7040   79.3500 C.2   653  TYR653      0.2264
     55  O         -0.4960   33.6930   80.0070 O.2   653  TYR653     -0.2867
     56  CB         1.1480   36.2340   79.9010 C.3   653  TYR653      0.0534
     57  CG         1.6510   37.6410   80.0970 C.ar  653  TYR653     -0.0201
     58  CD1        2.2740   38.0050   81.2820 C.ar  653  TYR653     -0.0009
     59  CD2        1.4950   38.6240   79.0970 C.ar  653  TYR653     -0.0009
     60  CE1        2.7330   39.2880   81.4800 C.ar  653  TYR653      0.0417
     61  CE2        1.9620   39.9310   79.2860 C.ar  653  TYR653      0.0417
     62  CZ         2.5920   40.2380   80.4850 C.ar  653  TYR653      0.1957
     63  OH         3.0840   41.4930   80.7230 O.3   653  TYR653     -0.2866
     64  N          5.8840   36.4290   77.6100 N.3   658  LYS658     -0.1231
     65  CA         6.3280   37.1930   78.7860 C.3   658  LYS658      0.1693
     66  C          6.5730   36.2800   79.9860 C.2   658  LYS658      0.2591
     67  O          7.1970   35.2200   79.8740 O.2   658  LYS658     -0.2718
     68  CB         5.3570   38.3350   79.1410 C.3   658  LYS658      0.0285
     69  CG         5.1950   39.4550   78.0640 C.3   658  LYS658      0.0035
     70  CD         6.4720   40.2530   77.8020 C.3   658  LYS658      0.0206
     71  CE         7.0390   40.8680   79.0760 C.3   658  LYS658      0.1093
     72  NZ         6.4190   42.1350   79.4760 N.3   658  LYS658     -0.1314
     73  N          6.0860   36.6660   81.1430 N.am  659  GLU659     -0.1979
     74  CA         6.5000   35.9310   82.3190 C.3   659  GLU659      0.1602
     75  C          5.7970   34.5680   82.4570 C.2   659  GLU659      0.2287
     76  O          6.0420   33.8460   83.4100 O.2   659  GLU659     -0.2864
     77  CB         6.3990   36.8000   83.5890 C.3   659  GLU659      0.0415
     78  CG         7.4990   37.8570   83.7320 C.3   659  GLU659      0.1163
     79  CD         7.1170   39.2390   83.1610 C.2   659  GLU659      0.3649
     80  OE1        6.2230   39.3140   82.3070 O.co2 659  GLU659     -0.2457
     81  OE2        7.7080   40.2630   83.5570 O.co2 659  GLU659     -0.2457
     82  N         12.5000   34.8030   79.0660 N.3   664  PHE664     -0.1241
     83  CA        12.8780   36.1240   79.4960 C.3   664  PHE664      0.1605
     84  C         14.3870   36.1880   79.4650 C.2   664  PHE664      0.2264
     85  O         15.0380   35.8110   80.4220 O.2   664  PHE664     -0.2867
     86  CB        12.3370   36.4180   80.8780 C.3   664  PHE664      0.0534
     87  CG        11.4880   37.6240   80.9270 C.ar  664  PHE664     -0.0203
     88  CD1       12.0510   38.8820   81.1450 C.ar  664  PHE664     -0.0042
     89  CD2       10.1160   37.5240   80.7350 C.ar  664  PHE664     -0.0042
     90  CE1       11.2310   40.0510   81.1870 C.ar  664  PHE664     -0.0003
     91  CE2        9.2940   38.6710   80.7710 C.ar  664  PHE664     -0.0003
     92  CZ         9.8490   39.9320   81.0000 C.ar  664  PHE664     -0.0000
     93  N         14.0110   41.6220   75.2170 N.3   712  GLN712     -0.1245
     94  CA        13.6200   41.2270   76.5580 C.3   712  GLN712      0.1566
     95  C         12.9930   39.8500   76.5680 C.2   712  GLN712      0.2260
     96  O         13.2390   39.0740   77.5080 O.2   712  GLN712     -0.2867
     97  CB        12.7110   42.2580   77.2410 C.3   712  GLN712      0.0367
     98  CG        11.8490   41.6860   78.3380 C.3   712  GLN712      0.0905
     99  CD        10.7060   42.5960   78.7130 C.2   712  GLN712      0.2608
    100  OE1        9.6220   42.5130   78.1450 O.2   712  GLN712     -0.2717
    101  NE2       10.9390   43.4760   79.6920 N.am  712  GLN712     -0.0878
@<TRIPOS>BOND
     1    93    94    1
     2    94    95    1
     3    94    97    1
     4    95    96    2
     5    97    98    1
     6    64    65    1
     7    70    69    1
     8    70    71    1
     9    69    68    1
    10   100    99    2
    11    98    99    1
    12    99   101   am
    13    65    68    1
    14    65    66    1
    15    82    83    1
    16    71    72    1
    17    59    61   ar
    18    59    57   ar
    19    61    62   ar
    20    54    53    1
    21    54    55    2
    22    84    83    1
    23    84    85    2
    24    83    86    1
    25    67    66    2
    26    56    53    1
    27    56    57    1
    28    53    52    1
    29    66    73   am
    30    57    58   ar
    31    62    63    1
    32    62    60   ar
    33    89    91   ar
    34    89    87   ar
    35    91    92   ar
    36    86    87    1
    37    87    88   ar
    38    92    90   ar
    39    73    74    1
    40    88    90   ar
    41    58    60   ar
    42    10     9    1
    43     6     5    1
    44     6     7    1
    45     4     3    2
    46     5     2    1
    47     1     2    1
    48     7     8    1
    49    80    79   ar
    50    74    75    1
    51    74    77    1
    52    75    76    2
    53     9     8    2
    54     9    11    1
    55     3     2    1
    56    79    81   ar
    57    79    78    1
    58    77    78    1
    59    51    49   ar
    60    49    48    1
    61    49    50   ar
    62    46    45    2
    63    33    32    1
    64    48    47    1
    65    18    16    1
    66    45    44    1
    67    32    29    1
    68    19    17    1
    69    27    25   ar
    70    47    44    1
    71    44    43    1
    72    16    17    1
    73    16    13    1
    74    39    40    1
    75    39    38    1
    76    24    25    1
    77    24    21    1
    78    42    40   am
    79    25    26   ar
    80    40    41    2
    81    29    28    1
    82    29    30    1
    83    28    22   am
    84    13    12    1
    85    13    14    1
    86    38    35    1
    87    20    21    1
    88    22    21    1
    89    22    23    2
    90    31    30    2
    91    34    35    1
    92    15    14    2
    93    35    36    1
    94    36    37    2
