@<TRIPOS>MOLECULE
tmp/3qg0A01.pdb
 129 125 0 0 0
SMALL
GASTEIGER

@<TRIPOS>ATOM
      1  N         14.5980   51.4810   80.8260 N.3   351  ARG351     -0.1245
      2  CA        13.5760   50.7990   80.0830 C.3   351  ARG351      0.1563
      3  C         12.4800   51.7690   79.6360 C.2   351  ARG351      0.2260
      4  O         11.3170   51.3760   79.4790 O.2   351  ARG351     -0.2867
      5  CB        13.0000   49.6370   80.8930 C.3   351  ARG351      0.0307
      6  CG        14.0040   48.6890   81.5070 C.3   351  ARG351      0.0489
      7  CD        14.8230   47.8690   80.5050 C.3   351  ARG351      0.2205
      8  NE        15.7720   47.0060   81.2160 N.pl3 351  ARG351     -0.0865
      9  CZ        16.9960   47.3670   81.6160 C.cat 351  ARG351      0.5346
     10  NH1       17.4800   48.5730   81.3560 N.pl3 351  ARG351      0.1354
     11  NH2       17.7500   46.5090   82.2890 N.pl3 351  ARG351      0.1354
     12  N          7.3590   54.4860   82.1950 N.3   362  ARG362     -0.1245
     13  CA         8.6410   54.0820   82.7920 C.3   362  ARG362      0.1563
     14  C          9.6690   55.1600   82.6620 C.2   362  ARG362      0.2260
     15  O          9.8930   55.6660   81.5750 O.2   362  ARG362     -0.2867
     16  CB         9.2440   52.8350   82.1300 C.3   362  ARG362      0.0307
     17  CG         8.3050   51.8570   81.4510 C.3   362  ARG362      0.0489
     18  CD         8.0480   50.6230   82.2800 C.3   362  ARG362      0.2205
     19  NE         9.2260   50.0260   82.9430 N.pl3 362  ARG362     -0.0865
     20  CZ         9.8590   48.9080   82.5500 C.cat 362  ARG362      0.5346
     21  NH1        9.4970   48.2540   81.4420 N.pl3 362  ARG362      0.1354
     22  NH2       10.8820   48.4490   83.2690 N.pl3 362  ARG362      0.1354
     23  N         16.0470   48.7970   90.1970 N.3   367  ARG367     -0.1231
     24  CA        16.5840   47.5230   89.8020 C.3   367  ARG367      0.1694
     25  C         17.1910   47.6180   88.3920 C.2   367  ARG367      0.2592
     26  O         18.2840   47.0780   88.1260 O.2   367  ARG367     -0.2718
     27  CB        15.5070   46.4430   89.8950 C.3   367  ARG367      0.0321
     28  CG        15.3310   45.6560   88.6440 C.3   367  ARG367      0.0489
     29  CD        14.3450   44.5040   88.7370 C.3   367  ARG367      0.2205
     30  NE        13.3790   44.5110   89.8350 N.pl3 367  ARG367     -0.0865
     31  CZ        12.0620   44.6120   89.6640 C.cat 367  ARG367      0.5346
     32  NH1       11.5530   44.7830   88.4660 N.pl3 367  ARG367      0.1354
     33  NH2       11.2440   44.5510   90.6880 N.pl3 367  ARG367      0.1354
     34  N         16.5270   48.3470   87.4980 N.am  368  ASP368     -0.1974
     35  CA        16.9350   48.3280   86.0830 C.3   368  ASP368      0.1709
     36  C         18.2610   49.0350   85.8610 C.2   368  ASP368      0.2293
     37  O         19.1750   48.4750   85.2530 O.2   368  ASP368     -0.2864
     38  CB        15.8170   48.8280   85.1540 C.3   368  ASP368      0.1436
     39  CG        14.4770   48.1150   85.4210 C.2   368  ASP368      0.3671
     40  OD1       14.1810   47.0760   84.7630 O.co2 368  ASP368     -0.2456
     41  OD2       13.7260   48.5770   86.3280 O.co2 368  ASP368     -0.2456
     42  N         10.5360   52.7160   93.0820 N.3   403  HIS403     -0.1241
     43  CA        10.8340   51.6610   92.0940 C.3   403  HIS403      0.1621
     44  C         11.5420   52.2640   90.8780 C.2   403  HIS403      0.2264
     45  O         12.2620   51.5540   90.1460 O.2   403  HIS403     -0.2867
     46  CB         9.5540   50.9530   91.6600 C.3   403  HIS403      0.0745
     47  CG         9.7740   49.6850   90.8840 C.ar  403  HIS403      0.0817
     48  ND1       10.5710   48.6560   91.3390 N.ar  403  HIS403     -0.2268
     49  CD2        9.2490   49.2580   89.7050 C.ar  403  HIS403      0.1154
     50  CE1       10.5510   47.6670   90.4590 C.ar  403  HIS403      0.1986
     51  NE2        9.7520   48.0040   89.4620 N.ar  403  HIS403     -0.2212
     52  N         12.3160   40.2220   91.6930 N.3   488  TRP488     -0.1227
     53  CA        12.8140   40.4660   90.3390 C.3   488  TRP488      0.1737
     54  C         11.6990   40.2480   89.2970 C.2   488  TRP488      0.2595
     55  O         11.5890   40.9920   88.3100 O.2   488  TRP488     -0.2718
     56  CB        14.0440   39.6150   90.0010 C.3   488  TRP488      0.0564
     57  CG        14.4110   39.8190   88.5710 C.ar  488  TRP488      0.0003
     58  CD1       15.2110   40.7900   88.0690 C.ar  488  TRP488      0.0946
     59  CD2       13.9110   39.0830   87.4450 C.ar  488  TRP488      0.0152
     60  NE1       15.2710   40.6920   86.7050 N.ar  488  TRP488     -0.2442
     61  CE2       14.4810   39.6540   86.2920 C.ar  488  TRP488      0.0810
     62  CE3       13.0460   37.9850   87.3050 C.ar  488  TRP488      0.0012
     63  CZ2       14.2160   39.1850   85.0110 C.ar  488  TRP488      0.0191
     64  CZ3       12.7910   37.5030   86.0230 C.ar  488  TRP488      0.0001
     65  CH2       13.3750   38.1100   84.8920 C.ar  488  TRP488      0.0015
     66  N         10.8790   39.2280   89.5380 N.am  489  ASN489     -0.1960
     67  CA         9.7060   38.9470   88.7130 C.3   489  ASN489      0.1819
     68  C          8.5740   39.8200   89.1390 C.2   489  ASN489      0.2621
     69  O          7.9830   39.5950   90.2010 O.2   489  ASN489     -0.2715
     70  CB         9.2510   37.5050   88.8720 C.3   489  ASN489      0.1195
     71  CG         8.5250   36.9850   87.6640 C.2   489  ASN489      0.2630
     72  OD1        7.6240   37.6310   87.1390 O.2   489  ASN489     -0.2716
     73  ND2        8.9170   35.8010   87.2080 N.am  489  ASN489     -0.0877
     74  N          8.2730   40.8010   88.2870 N.am  490  ASP490     -0.1971
     75  CA         7.2080   41.7640   88.4950 C.3   490  ASP490      0.1709
     76  C          5.8670   41.0620   88.4930 C.2   490  ASP490      0.2293
     77  O          4.9090   41.5750   89.0350 O.2   490  ASP490     -0.2864
     78  CB         7.2120   42.8100   87.3700 C.3   490  ASP490      0.1436
     79  CG         8.2440   43.9300   87.5790 C.2   490  ASP490      0.3671
     80  OD1        8.7880   44.0760   88.7010 O.co2 490  ASP490     -0.2456
     81  OD2        8.5010   44.7020   86.6150 O.co2 490  ASP490     -0.2456
     82  N          5.8840   36.4290   77.6100 N.3   658  LYS658     -0.1231
     83  CA         6.3280   37.1930   78.7860 C.3   658  LYS658      0.1693
     84  C          6.5730   36.2800   79.9860 C.2   658  LYS658      0.2591
     85  O          7.1970   35.2200   79.8740 O.2   658  LYS658     -0.2718
     86  CB         5.3570   38.3350   79.1410 C.3   658  LYS658      0.0285
     87  CG         5.1950   39.4550   78.0640 C.3   658  LYS658      0.0035
     88  CD         6.4720   40.2530   77.8020 C.3   658  LYS658      0.0206
     89  CE         7.0390   40.8680   79.0760 C.3   658  LYS658      0.1093
     90  NZ         6.4190   42.1350   79.4760 N.3   658  LYS658     -0.1314
     91  N          6.0860   36.6660   81.1430 N.am  659  GLU659     -0.1979
     92  CA         6.5000   35.9310   82.3190 C.3   659  GLU659      0.1602
     93  C          5.7970   34.5680   82.4570 C.2   659  GLU659      0.2287
     94  O          6.0420   33.8460   83.4100 O.2   659  GLU659     -0.2864
     95  CB         6.3990   36.8000   83.5890 C.3   659  GLU659      0.0415
     96  CG         7.4990   37.8570   83.7320 C.3   659  GLU659      0.1163
     97  CD         7.1170   39.2390   83.1610 C.2   659  GLU659      0.3649
     98  OE1        6.2230   39.3140   82.3070 O.co2 659  GLU659     -0.2457
     99  OE2        7.7080   40.2630   83.5570 O.co2 659  GLU659     -0.2457
    100  N         12.5000   34.8030   79.0660 N.3   664  PHE664     -0.1241
    101  CA        12.8780   36.1240   79.4960 C.3   664  PHE664      0.1605
    102  C         14.3870   36.1880   79.4650 C.2   664  PHE664      0.2264
    103  O         15.0380   35.8110   80.4220 O.2   664  PHE664     -0.2867
    104  CB        12.3370   36.4180   80.8780 C.3   664  PHE664      0.0534
    105  CG        11.4880   37.6240   80.9270 C.ar  664  PHE664     -0.0203
    106  CD1       12.0510   38.8820   81.1450 C.ar  664  PHE664     -0.0042
    107  CD2       10.1160   37.5240   80.7350 C.ar  664  PHE664     -0.0042
    108  CE1       11.2310   40.0510   81.1870 C.ar  664  PHE664     -0.0003
    109  CE2        9.2940   38.6710   80.7710 C.ar  664  PHE664     -0.0003
    110  CZ         9.8490   39.9320   81.0000 C.ar  664  PHE664     -0.0000
    111  N         16.8540   38.0560   79.8870 N.3   666  HIS666     -0.1241
    112  CA        17.5120   38.5890   81.0870 C.3   666  HIS666      0.1621
    113  C         17.9590   37.4860   82.0660 C.2   666  HIS666      0.2264
    114  O         19.0840   37.4830   82.5300 O.2   666  HIS666     -0.2867
    115  CB        16.5400   39.5680   81.7580 C.3   666  HIS666      0.0745
    116  CG        17.1230   40.3770   82.8710 C.ar  666  HIS666      0.0817
    117  ND1       16.6500   41.6330   83.1860 N.ar  666  HIS666     -0.2268
    118  CD2       18.1010   40.1070   83.7710 C.ar  666  HIS666      0.1154
    119  CE1       17.3290   42.1120   84.2180 C.ar  666  HIS666      0.1986
    120  NE2       18.2130   41.2030   84.5950 N.ar  666  HIS666     -0.2212
    121  N         14.0110   41.6220   75.2170 N.3   712  GLN712     -0.1245
    122  CA        13.6200   41.2270   76.5580 C.3   712  GLN712      0.1566
    123  C         12.9930   39.8500   76.5680 C.2   712  GLN712      0.2260
    124  O         13.2390   39.0740   77.5080 O.2   712  GLN712     -0.2867
    125  CB        12.7110   42.2580   77.2410 C.3   712  GLN712      0.0367
    126  CG        11.8490   41.6860   78.3380 C.3   712  GLN712      0.0905
    127  CD        10.7060   42.5960   78.7130 C.2   712  GLN712      0.2608
    128  OE1        9.6220   42.5130   78.1450 O.2   712  GLN712     -0.2717
    129  NE2       10.9390   43.4760   79.6920 N.am  712  GLN712     -0.0878
@<TRIPOS>BOND
     1   121   122    1
     2   122   123    1
     3   122   125    1
     4   123   124    2
     5   125   126    1
     6    82    83    1
     7    88    87    1
     8    88    89    1
     9    87    86    1
    10   128   127    2
    11   126   127    1
    12   127   129   am
    13    83    86    1
    14    83    84    1
    15   100   101    1
    16    89    90    1
    17   102   101    1
    18   102   103    2
    19     4     3    2
    20   101   104    1
    21     3     2    1
    22    85    84    2
    23   111   112    1
    24    84    91   am
    25     2     1    1
    26     2     5    1
    27     7     8    1
    28     7     6    1
    29   107   109   ar
    30   107   105   ar
    31   109   110   ar
    32   104   105    1
    33     5     6    1
    34   105   106   ar
    35   110   108   ar
    36   112   115    1
    37   112   113    1
    38    91    92    1
    39   106   108   ar
    40     8     9    2
    41    10     9    1
    42    21    20    1
    43    17    16    1
    44    17    18    1
    45    15    14    2
    46     9    11    1
    47   115   116    1
    48   113   114    2
    49    16    13    1
    50    12    13    1
    51    18    19    1
    52    98    97   ar
    53    92    93    1
    54    92    95    1
    55    93    94    2
    56    20    19    2
    57    20    22    1
    58    14    13    1
    59   116   117   ar
    60   116   118   ar
    61    97    99   ar
    62    97    96    1
    63   117   119   ar
    64    95    96    1
    65   118   120   ar
    66   119   120   ar
    67    40    39   ar
    68    65    63   ar
    69    65    64   ar
    70    63    61   ar
    71    38    39    1
    72    38    35    1
    73    37    36    2
    74    39    41   ar
    75    36    35    1
    76    64    62   ar
    77    35    34    1
    78    61    60   ar
    79    61    59   ar
    80    81    79   ar
    81    60    58   ar
    82    72    71    2
    83    73    71   am
    84    62    59   ar
    85    78    79    1
    86    78    75    1
    87    59    57   ar
    88    34    25   am
    89    79    80   ar
    90    71    70    1
    91    58    57   ar
    92    26    25    2
    93    74    75    1
    94    74    68   am
    95    55    54    2
    96    25    24    1
    97    32    31    1
    98    76    75    1
    99    76    77    2
   100    57    56    1
   101    28    29    1
   102    28    27    1
   103    67    70    1
   104    67    68    1
   105    67    66    1
   106    29    30    1
   107    68    69    2
   108    54    66   am
   109    54    53    1
   110    51    49   ar
   111    51    50   ar
   112    31    30    2
   113    31    33    1
   114    49    47   ar
   115    24    27    1
   116    24    23    1
   117    56    53    1
   118    45    44    2
   119    53    52    1
   120    50    48   ar
   121    44    43    1
   122    47    48   ar
   123    47    46    1
   124    46    43    1
   125    43    42    1
