@<TRIPOS>MOLECULE
tmp/3qg2A02.pdb
 126 121 0 0 0
SMALL
GASTEIGER

@<TRIPOS>ATOM
      1  N         51.1820   12.3900   11.0110 N.3   283  ASP283     -0.1239
      2  CA        50.4790   13.6460   10.7470 C.3   283  ASP283      0.1674
      3  C         51.3930   14.7620   10.2260 C.2   283  ASP283      0.2266
      4  O         51.5690   14.9110    9.0180 O.2   283  ASP283     -0.2867
      5  CB        49.7400   14.1170   12.0120 C.3   283  ASP283      0.1410
      6  CG        50.6820   14.4860   13.1440 C.2   283  ASP283      0.3668
      7  OD1       51.4680   13.6150   13.5720 O.co2 283  ASP283     -0.2456
      8  OD2       50.6360   15.6480   13.6030 O.co2 283  ASP283     -0.2456
      9  N         37.0970   31.0890   15.8150 N.3   369  TYR369     -0.1241
     10  CA        35.9970   30.9180   16.7640 C.3   369  TYR369      0.1605
     11  C         35.1530   32.1480   17.0830 C.2   369  TYR369      0.2264
     12  O         33.9810   32.2270   16.6990 O.2   369  TYR369     -0.2867
     13  CB        36.5400   30.3450   18.0730 C.3   369  TYR369      0.0534
     14  CG        37.0720   28.9370   17.9480 C.ar  369  TYR369     -0.0201
     15  CD1       36.2080   27.8630   17.7450 C.ar  369  TYR369     -0.0009
     16  CD2       38.4420   28.6820   18.0110 C.ar  369  TYR369     -0.0009
     17  CE1       36.6920   26.5750   17.6060 C.ar  369  TYR369      0.0417
     18  CE2       38.9400   27.3930   17.8720 C.ar  369  TYR369      0.0417
     19  CZ        38.0560   26.3460   17.6680 C.ar  369  TYR369      0.1957
     20  OH        38.5350   25.0720   17.5120 O.3   369  TYR369     -0.2866
     21  N         44.5410   28.8180   11.7640 N.3   426  LEU426     -0.1231
     22  CA        44.4020   27.3770   11.5810 C.3   426  LEU426      0.1678
     23  C         42.9290   26.9940   11.6900 C.2   426  LEU426      0.2434
     24  O         42.1620   27.6440   12.4010 O.2   426  LEU426     -0.2733
     25  CB        45.2330   26.6010   12.6070 C.3   426  LEU426      0.0284
     26  CG        44.7790   26.5730   14.0620 C.3   426  LEU426      0.0019
     27  CD1       45.8110   25.7960   14.8850 C.3   426  LEU426      0.0001
     28  CD2       44.6400   27.9920   14.5920 C.3   426  LEU426      0.0001
     29  N         42.5110   25.9380   10.9740 N.am  427  PRO427     -0.2729
     30  CA        41.1170   25.4850   11.0040 C.3   427  PRO427      0.1401
     31  C         40.7460   25.0300   12.4130 C.2   427  PRO427      0.2269
     32  O         41.5450   24.3950   13.0970 O.2   427  PRO427     -0.2865
     33  CB        41.1020   24.3090   10.0180 C.3   427  PRO427      0.0296
     34  CG        42.3450   24.5060    9.1820 C.3   427  PRO427      0.0237
     35  CD        43.3380   25.0110   10.1850 C.3   427  PRO427      0.0939
     36  N         39.2460   23.0020   15.6630 N.3   429  CYS429     -0.1221
     37  CA        39.1800   21.5880   16.0090 C.3   429  CYS429      0.1808
     38  C         37.7860   21.2460   16.5100 C.2   429  CYS429      0.2601
     39  O         37.2920   20.1370   16.3020 O.2   429  CYS429     -0.2717
     40  CB        40.2150   21.2400   17.0800 C.3   429  CYS429      0.0970
     41  SG        41.8910   21.1110   16.4270 S.3   429  CYS429     -0.0800
     42  N         37.1640   22.2140   17.1730 N.am  430  HIS430     -0.1975
     43  CA        35.8200   22.0550   17.7070 C.3   430  HIS430      0.1656
     44  C         34.8910   22.6250   16.6550 C.2   430  HIS430      0.2291
     45  O         34.6410   23.8300   16.5980 O.2   430  HIS430     -0.2864
     46  CB        35.7190   22.8170   19.0160 C.3   430  HIS430      0.0771
     47  CG        36.8990   22.5930   19.9040 C.ar  430  HIS430      0.0820
     48  ND1       37.5550   23.6200   20.5450 N.ar  430  HIS430     -0.2267
     49  CD2       37.5770   21.4610   20.2130 C.ar  430  HIS430      0.1154
     50  CE1       38.5880   23.1340   21.2090 C.ar  430  HIS430      0.1986
     51  NE2       38.6250   21.8260   21.0240 N.ar  430  HIS430     -0.2212
     52  N         34.4770   17.1420   17.8120 N.3   448  GLN448     -0.1231
     53  CA        35.8710   17.5300   17.6220 C.3   448  GLN448      0.1698
     54  C         36.4790   16.6750   16.5070 C.2   448  GLN448      0.2592
     55  O         36.5910   15.4540   16.6420 O.2   448  GLN448     -0.2718
     56  CB        36.6450   17.3300   18.9310 C.3   448  GLN448      0.0381
     57  CG        37.9210   18.1290   19.0340 C.3   448  GLN448      0.0905
     58  CD        38.4870   18.1210   20.4370 C.2   448  GLN448      0.2608
     59  OE1       37.7380   18.0680   21.4170 O.2   448  GLN448     -0.2717
     60  NE2       39.8080   18.2010   20.5470 N.am  448  GLN448     -0.0878
     61  N         36.8660   17.3250   15.4120 N.am  449  ARG449     -0.1966
     62  CA        37.4410   16.6320   14.2580 C.3   449  ARG449      0.1729
     63  C         38.8290   16.0610   14.5310 C.2   449  ARG449      0.2616
     64  O         39.1890   14.9990   14.0220 O.2   449  ARG449     -0.2715
     65  CB        37.5370   17.5840   13.0590 C.3   449  ARG449      0.0348
     66  CG        38.5610   18.7010   13.2480 C.3   449  ARG449      0.0492
     67  CD        38.7550   19.5490   11.9920 C.3   449  ARG449      0.2205
     68  NE        39.7240   20.6150   12.2410 N.pl3 449  ARG449     -0.0865
     69  CZ        41.0410   20.4330   12.3210 C.cat 449  ARG449      0.5346
     70  NH1       41.5640   19.2250   12.1580 N.pl3 449  ARG449      0.1354
     71  NH2       41.8350   21.4550   12.5940 N.pl3 449  ARG449      0.1354
     72  N         39.6120   16.7760   15.3260 N.am  450  SER450     -0.1950
     73  CA        40.9680   16.3480   15.6260 C.3   450  SER450      0.1924
     74  C         41.1620   16.4160   17.1280 C.2   450  SER450      0.2314
     75  O         40.9200   17.4440   17.7510 O.2   450  SER450     -0.2863
     76  CB        41.9630   17.2500   14.9040 C.3   450  SER450      0.2116
     77  OG        43.2790   16.7670   15.0590 O.3   450  SER450     -0.2180
     78  N         43.8190   15.6940   20.3180 N.3   452  ASP452     -0.1239
     79  CA        45.0890   15.3680   20.9310 C.3   452  ASP452      0.1674
     80  C         44.7090   14.8340   22.3140 C.2   452  ASP452      0.2266
     81  O         44.4860   15.6050   23.2480 O.2   452  ASP452     -0.2867
     82  CB        45.9330   16.6370   21.0610 C.3   452  ASP452      0.1410
     83  CG        47.2270   16.4100   21.8180 C.2   452  ASP452      0.3668
     84  OD1       47.4320   15.2960   22.3450 O.co2 452  ASP452     -0.2456
     85  OD2       48.0390   17.3550   21.8900 O.co2 452  ASP452     -0.2456
     86  N         45.3860   18.1960   24.5640 N.3   456  GLY456     -0.1210
     87  CA        44.2020   18.9880   24.3040 C.3   456  GLY456      0.1956
     88  C         42.8920   18.5700   24.9260 C.2   456  GLY456      0.2611
     89  O         42.2490   19.3710   25.6110 O.2   456  GLY456     -0.2717
     90  N         42.4910   17.3240   24.6890 N.am  457  VAL457     -0.1979
     91  CA        41.2230   16.8230   25.1960 C.3   457  VAL457      0.1595
     92  C         40.9330   17.1700   26.6530 C.2   457  VAL457      0.2287
     93  O         39.8310   17.6210   26.9690 O.2   457  VAL457     -0.2864
     94  CB        41.1070   15.3010   24.9770 C.3   457  VAL457      0.0276
     95  CG1       39.7980   14.7830   25.5660 C.3   457  VAL457      0.0022
     96  CG2       41.1620   14.9980   23.4720 C.3   457  VAL457      0.0022
     97  N         39.8060   20.5770   26.5550 N.3   460  ASN460     -0.1240
     98  CA        38.6060   20.6980   25.7320 C.3   460  ASN460      0.1653
     99  C         37.3520   20.2670   26.4940 C.2   460  ASN460      0.2266
    100  O         36.3030   20.9100   26.3830 O.2   460  ASN460     -0.2867
    101  CB        38.7600   19.8740   24.4470 C.3   460  ASN460      0.1155
    102  CG        39.9490   20.3250   23.6030 C.2   460  ASN460      0.2627
    103  OD1       40.4180   19.5980   22.7210 O.2   460  ASN460     -0.2716
    104  ND2       40.4390   21.5280   23.8720 N.am  460  ASN460     -0.0877
    105  N         43.8430   10.9520   18.4360 N.3   490  HIS490     -0.1241
    106  CA        45.2100   10.4610   18.4080 C.3   490  HIS490      0.1621
    107  C         46.0110   10.7060   19.6590 C.2   490  HIS490      0.2264
    108  O         45.7080   11.5910   20.4610 O.2   490  HIS490     -0.2867
    109  CB        45.9510   11.0760   17.2260 C.3   490  HIS490      0.0745
    110  CG        45.7690   12.5540   17.1230 C.ar  490  HIS490      0.0817
    111  ND1       44.7030   13.1250   16.4610 N.ar  490  HIS490     -0.2268
    112  CD2       46.4770   13.5790   17.6550 C.ar  490  HIS490      0.1154
    113  CE1       44.7630   14.4390   16.5890 C.ar  490  HIS490      0.1986
    114  NE2       45.8290   14.7390   17.3100 N.ar  490  HIS490     -0.2212
    115  N         49.9820   11.3020   20.5370 N.3   492  TYR492     -0.1241
    116  CA        51.3100   11.5470   19.9800 C.3   492  TYR492      0.1605
    117  C         52.2780   10.5860   20.6490 C.2   492  TYR492      0.2264
    118  O         52.2000   10.3740   21.8580 O.2   492  TYR492     -0.2867
    119  CB        51.7480   12.9940   20.2320 C.3   492  TYR492      0.0534
    120  CG        51.1110   13.9950   19.2880 C.ar  492  TYR492     -0.0201
    121  CD1       51.4770   14.0410   17.9420 C.ar  492  TYR492     -0.0009
    122  CD2       50.1150   14.8660   19.7290 C.ar  492  TYR492     -0.0009
    123  CE1       50.8630   14.9260   17.0530 C.ar  492  TYR492      0.0417
    124  CE2       49.4950   15.7520   18.8520 C.ar  492  TYR492      0.0417
    125  CZ        49.8710   15.7780   17.5130 C.ar  492  TYR492      0.1957
    126  OH        49.2460   16.6400   16.6340 O.3   492  TYR492     -0.2866
@<TRIPOS>BOND
     1     4     3    2
     2    34    33    1
     3    34    35    1
     4    33    30    1
     5    35    29    1
     6     3     2    1
     7     2     1    1
     8     2     5    1
     9    29    30    1
    10    29    23   am
    11    30    31    1
    12    22    23    1
    13    22    21    1
    14    22    25    1
    15    23    24    2
    16    67    68    1
    17    67    66    1
    18     5     6    1
    19    70    69    1
    20    68    69    2
    21    69    71    1
    22    31    32    2
    23    25    26    1
    24    65    66    1
    25    65    62    1
    26     6     7   ar
    27     6     8   ar
    28    64    63    2
    29    26    28    1
    30    26    27    1
    31    62    63    1
    32    62    61    1
    33    63    72   am
    34    76    77    1
    35    76    73    1
    36    72    73    1
    37    61    54   am
    38    73    74    1
    39    36    37    1
    40     9    10    1
    41    37    38    1
    42    37    40    1
    43    39    38    2
    44    41    40    1
    45   111   113   ar
    46   111   110   ar
    47    54    55    2
    48    54    53    1
    49    38    42   am
    50   113   114   ar
    51    45    44    2
    52   126   125    1
    53    44    43    1
    54    12    11    2
    55    10    11    1
    56    10    13    1
    57   123   125   ar
    58   123   121   ar
    59   110   109    1
    60   110   112   ar
    61    74    75    2
    62    42    43    1
    63   109   106    1
    64   114   112   ar
    65    20    19    1
    66   125   124   ar
    67    17    19   ar
    68    17    15   ar
    69    53    52    1
    70    53    56    1
    71    19    18   ar
    72    43    46    1
    73    15    14   ar
    74    18    16   ar
    75   121   120   ar
    76    14    16   ar
    77    14    13    1
    78   106   105    1
    79   106   107    1
    80   124   122   ar
    81    56    57    1
    82    46    47    1
    83    57    58    1
    84   120   122   ar
    85   120   119    1
    86   107   108    2
    87    47    49   ar
    88    47    48   ar
    89   116   119    1
    90   116   115    1
    91   116   117    1
    92    49    51   ar
    93    78    79    1
    94    58    60   am
    95    58    59    2
    96    48    50   ar
    97   117   118    2
    98    79    82    1
    99    79    80    1
   100    51    50   ar
   101    82    83    1
   102    83    85   ar
   103    83    84   ar
   104    80    81    2
   105   103   102    2
   106    96    94    1
   107   102   104   am
   108   102   101    1
   109    87    86    1
   110    87    88    1
   111   101    98    1
   112    90    88   am
   113    90    91    1
   114    88    89    2
   115    94    91    1
   116    94    95    1
   117    91    92    1
   118    98    99    1
   119    98    97    1
   120   100    99    2
   121    92    93    2
