@<TRIPOS>MOLECULE
tmp/3qg2A00.pdb
 145 138 0 0 0
SMALL
GASTEIGER

@<TRIPOS>ATOM
      1  N         33.1400   -0.6550   56.5630 N.3    14  ILE14      -0.1231
      2  CA        32.5200    0.3340   55.6970 C.3    14  ILE14       0.1692
      3  C         32.6190    1.6650   56.4140 C.2    14  ILE14       0.2592
      4  O         32.3400    1.7570   57.6140 O.2    14  ILE14      -0.2718
      5  CB        31.0470   -0.0010   55.3970 C.3    14  ILE14       0.0266
      6  CG1       30.4760    1.0560   54.4480 C.3    14  ILE14       0.0019
      7  CG2       30.2460   -0.0960   56.7030 C.3    14  ILE14       0.0020
      8  CD1       29.1510    0.6620   53.8320 C.3    14  ILE14       0.0001
      9  N         33.0250    2.6940   55.6800 N.am   15  CYS15      -0.1956
     10  CA        33.2090    4.0110   56.2690 C.3    15  CYS15       0.1843
     11  C         32.9550    5.1370   55.2760 C.2    15  CYS15       0.2625
     12  O         32.7750    4.9050   54.0820 O.2    15  CYS15      -0.2714
     13  CB        34.6450    4.1330   56.7830 C.3    15  CYS15       0.0997
     14  SG        35.9070    4.0180   55.4490 S.3    15  CYS15      -0.0797
     15  N         32.9660    6.3590   55.7960 N.am   16  ALA16      -0.1977
     16  CA        32.7790    7.5700   55.0100 C.3    16  ALA16       0.1597
     17  C         33.7860    8.5750   55.5610 C.2    16  ALA16       0.2287
     18  O         33.7830    8.8650   56.7590 O.2    16  ALA16      -0.2864
     19  CB        31.3550    8.0990   55.1750 C.3    16  ALA16       0.0319
     20  N         28.8230   12.8610   63.1590 N.3    46  LEU46      -0.1245
     21  CA        29.4910   12.9430   61.8650 C.3    46  LEU46       0.1561
     22  C         29.9340   14.3870   61.6380 C.2    46  LEU46       0.2260
     23  O         29.3220   15.3200   62.1610 O.2    46  LEU46      -0.2867
     24  CB        28.5490   12.5040   60.7410 C.3    46  LEU46       0.0270
     25  CG        28.1060   11.0370   60.7200 C.3    46  LEU46       0.0019
     26  CD1       27.1630   10.8380   59.5540 C.3    46  LEU46       0.0001
     27  CD2       29.3110   10.1070   60.6070 C.3    46  LEU46       0.0001
     28  N         29.6950   16.1220   58.9910 N.3    48  TRP48      -0.1241
     29  CA        28.7250   16.7900   58.1310 C.3    48  TRP48       0.1605
     30  C         27.2850   16.6130   58.5970 C.2    48  TRP48       0.2264
     31  O         26.9630   15.6640   59.3150 O.2    48  TRP48      -0.2867
     32  CB        28.8820   16.2720   56.6920 C.3    48  TRP48       0.0550
     33  CG        28.8290   14.7630   56.5710 C.ar   48  TRP48       0.0003
     34  CD1       27.7060   13.9770   56.5000 C.ar   48  TRP48       0.0946
     35  CD2       29.9470   13.8620   56.5710 C.ar   48  TRP48       0.0152
     36  NE1       28.0590   12.6470   56.4590 N.ar   48  TRP48      -0.2442
     37  CE2       29.4270   12.5490   56.5050 C.ar   48  TRP48       0.0810
     38  CE3       31.3390   14.0370   56.6240 C.ar   48  TRP48       0.0012
     39  CZ2       30.2500   11.4180   56.4930 C.ar   48  TRP48       0.0191
     40  CZ3       32.1560   12.9170   56.6110 C.ar   48  TRP48       0.0001
     41  CH2       31.6100   11.6210   56.5470 C.ar   48  TRP48       0.0015
     42  N         25.0510    8.8940   50.7860 N.3    54  ASP54      -0.1225
     43  CA        25.9290    7.9730   51.4950 C.3    54  ASP54       0.1805
     44  C         25.1140    7.1080   52.4610 C.2    54  ASP54       0.2597
     45  O         25.4180    5.9290   52.6550 O.2    54  ASP54      -0.2718
     46  CB        27.0100    8.7180   52.2740 C.3    54  ASP54       0.1424
     47  CG        27.8230    7.7870   53.1500 C.2    54  ASP54       0.3668
     48  OD1       28.5280    6.9120   52.6040 O.co2  54  ASP54      -0.2456
     49  OD2       27.7420    7.9160   54.3880 O.co2  54  ASP54      -0.2456
     50  N         24.0880    7.6960   53.0740 N.am   55  MET55      -0.1979
     51  CA        23.2340    6.9440   53.9880 C.3    55  MET55       0.1605
     52  C         22.5470    5.8340   53.2100 C.2    55  MET55       0.2287
     53  O         22.4880    4.6890   53.6560 O.2    55  MET55      -0.2864
     54  CB        22.1700    7.8470   54.6160 C.3    55  MET55       0.0413
     55  CG        22.6460    8.6140   55.8380 C.3    55  MET55       0.0598
     56  SD        21.3420    9.6380   56.5740 S.3    55  MET55      -0.1393
     57  CE        20.1360    8.3670   57.0500 C.3    55  MET55       0.0692
     58  N         23.5100    4.4620   50.4190 N.3    57  TYR57      -0.1227
     59  CA        24.5210    3.4890   50.0310 C.3    57  TYR57       0.1736
     60  C         24.8530    2.6070   51.2310 C.2    57  TYR57       0.2595
     61  O         24.9040    1.3810   51.1260 O.2    57  TYR57      -0.2718
     62  CB        25.7900    4.2020   49.5720 C.3    57  TYR57       0.0548
     63  CG        26.9000    3.2580   49.1680 C.ar   57  TYR57      -0.0200
     64  CD1       26.8820    2.6230   47.9250 C.ar   57  TYR57      -0.0009
     65  CD2       27.9770    3.0100   50.0230 C.ar   57  TYR57      -0.0009
     66  CE1       27.9100    1.7720   47.5380 C.ar   57  TYR57       0.0417
     67  CE2       29.0110    2.1570   49.6450 C.ar   57  TYR57       0.0417
     68  CZ        28.9730    1.5470   48.4010 C.ar   57  TYR57       0.1957
     69  OH        30.0090    0.7380   48.0030 O.3    57  TYR57      -0.2866
     70  N         25.0890    3.2490   52.3690 N.am   58  PHE58      -0.1976
     71  CA        25.4130    2.5430   53.5970 C.3    58  PHE58       0.1639
     72  C         24.3370    1.5210   53.9460 C.2    58  PHE58       0.2290
     73  O         24.6380    0.3810   54.3020 O.2    58  PHE58      -0.2864
     74  CB        25.5430    3.5290   54.7560 C.3    58  PHE58       0.0560
     75  CG        25.6350    2.8690   56.0930 C.ar   58  PHE58      -0.0200
     76  CD1       26.8120    2.2510   56.4970 C.ar   58  PHE58      -0.0042
     77  CD2       24.5270    2.8260   56.9340 C.ar   58  PHE58      -0.0042
     78  CE1       26.8860    1.5920   57.7240 C.ar   58  PHE58      -0.0003
     79  CE2       24.5860    2.1750   58.1560 C.ar   58  PHE58      -0.0003
     80  CZ        25.7700    1.5530   58.5540 C.ar   58  PHE58      -0.0000
     81  N         29.8270   -2.0480   65.9640 N.3    94  MET94      -0.1245
     82  CA        30.2060   -0.6570   66.1480 C.3    94  MET94       0.1570
     83  C         30.6780   -0.3550   67.5640 C.2    94  MET94       0.2261
     84  O         30.3290   -1.0650   68.5110 O.2    94  MET94      -0.2867
     85  CB        29.0230    0.2540   65.7870 C.3    94  MET94       0.0387
     86  CG        27.8350    0.1410   66.7260 C.3    94  MET94       0.0595
     87  SD        26.3270    0.9610   66.1270 S.3    94  MET94      -0.1393
     88  CE        25.4510   -0.4170   65.4460 C.3    94  MET94       0.0692
     89  N         29.9080    5.2360   68.6300 N.3    98  ASN98      -0.1240
     90  CA        29.1240    5.2100   67.3990 C.3    98  ASN98       0.1653
     91  C         27.6620    4.9110   67.7150 C.2    98  ASN98       0.2266
     92  O         26.7510    5.5470   67.1780 O.2    98  ASN98      -0.2867
     93  CB        29.6720    4.1510   66.4470 C.3    98  ASN98       0.1155
     94  CG        30.3310    4.7620   65.2350 C.2    98  ASN98       0.2627
     95  OD1       30.8670    5.8630   65.3160 O.2    98  ASN98      -0.2716
     96  ND2       30.3030    4.0550   64.1080 N.am   98  ASN98      -0.0877
     97  N         25.7120    7.8630   68.9730 N.3   101  SER101     -0.1202
     98  CA        25.4840    8.9410   68.0210 C.3   101  SER101      0.2020
     99  C         24.2220    8.7040   67.1980 C.2   101  SER101      0.2618
    100  O         23.6610    9.6350   66.6330 O.2   101  SER101     -0.2717
    101  CB        26.6820    9.0840   67.0840 C.3   101  SER101      0.2103
    102  OG        26.7320    8.0110   66.1610 O.3   101  SER101     -0.2182
    103  N         23.7710    7.4590   67.1280 N.am  102  ILE102     -0.1979
    104  CA        22.5770    7.1510   66.3540 C.3   102  ILE102      0.1595
    105  C         21.3000    7.6390   67.0370 C.2   102  ILE102      0.2287
    106  O         21.1040    7.4270   68.2310 O.2   102  ILE102     -0.2864
    107  CB        22.4410    5.6280   66.1100 C.3   102  ILE102      0.0276
    108  CG1       23.6950    5.0880   65.4260 C.3   102  ILE102      0.0022
    109  CG2       21.2280    5.3470   65.2280 C.3   102  ILE102      0.0022
    110  CD1       23.7140    3.5740   65.3150 C.3   102  ILE102      0.0001
    111  N         19.8780   -0.5860   64.2930 N.3   109  LEU109     -0.1245
    112  CA        19.8190   -0.4660   62.8400 C.3   109  LEU109      0.1561
    113  C         18.9150   -1.5510   62.2470 C.2   109  LEU109      0.2260
    114  O         19.1670   -2.7460   62.4010 O.2   109  LEU109     -0.2867
    115  CB        21.2280   -0.5460   62.2460 C.3   109  LEU109      0.0270
    116  CG        22.1800    0.5740   62.6790 C.3   109  LEU109      0.0019
    117  CD1       23.4840    0.4500   61.9150 C.3   109  LEU109      0.0001
    118  CD2       21.5490    1.9310   62.4020 C.3   109  LEU109      0.0001
    119  N         31.2920   -0.9070   61.4770 N.3   154  LEU154     -0.1245
    120  CA        30.8580    0.4640   61.2010 C.3   154  LEU154      0.1561
    121  C         31.6600    1.5990   61.8350 C.2   154  LEU154      0.2260
    122  O         31.3300    2.7640   61.6260 O.2   154  LEU154     -0.2867
    123  CB        29.3910    0.6340   61.6180 C.3   154  LEU154      0.0270
    124  CG        28.4250   -0.5230   61.3550 C.3   154  LEU154      0.0019
    125  CD1       27.0160   -0.0980   61.7620 C.3   154  LEU154      0.0001
    126  CD2       28.4720   -0.9300   59.8850 C.3   154  LEU154      0.0001
    127  N         37.9030    0.7280   64.1010 N.3   160  TYR160     -0.1241
    128  CA        38.5340    0.4720   62.8080 C.3   160  TYR160      0.1605
    129  C         39.9950    0.1100   63.0480 C.2   160  TYR160      0.2264
    130  O         40.4900   -0.9090   62.5590 O.2   160  TYR160     -0.2867
    131  CB        38.4920    1.7070   61.9030 C.3   160  TYR160      0.0534
    132  CG        37.1450    2.0490   61.3130 C.ar  160  TYR160     -0.0201
    133  CD1       36.3920    1.0980   60.6260 C.ar  160  TYR160     -0.0009
    134  CD2       36.6480    3.3500   61.3910 C.ar  160  TYR160     -0.0009
    135  CE1       35.1700    1.4400   60.0260 C.ar  160  TYR160      0.0417
    136  CE2       35.4380    3.7000   60.7980 C.ar  160  TYR160      0.0417
    137  CZ        34.7060    2.7440   60.1190 C.ar  160  TYR160      0.1957
    138  OH        33.5130    3.1050   59.5410 O.3   160  TYR160     -0.2866
    139  N         33.7500    5.4540   51.4290 N.3   175  THR175     -0.1218
    140  CA        33.0700    6.5460   50.7480 C.3   175  THR175      0.1862
    141  C         33.9630    7.7790   50.8490 C.2   175  THR175      0.2287
    142  O         34.3770    8.1640   51.9400 O.2   175  THR175     -0.2866
    143  CB        31.7160    6.8870   51.3930 C.3   175  THR175      0.1770
    144  OG1       30.8000    5.8080   51.1880 O.3   175  THR175     -0.2211
    145  CG2       31.1390    8.1590   50.7670 C.3   175  THR175      0.0375
@<TRIPOS>BOND
     1    66    64   ar
     2    66    68   ar
     3    64    63   ar
     4    69    68    1
     5    68    67   ar
     6    63    62    1
     7    63    65   ar
     8    62    59    1
     9    67    65   ar
    10    59    58    1
    11    59    60    1
    12   140   141    1
    13   140   143    1
    14   140   139    1
    15   145   143    1
    16    42    43    1
    17   141   142    2
    18    61    60    2
    19   144   143    1
    20    60    70   am
    21    43    46    1
    22    43    44    1
    23    46    47    1
    24    70    71    1
    25    44    45    2
    26    44    50   am
    27    48    47   ar
    28    50    51    1
    29    47    49   ar
    30    52    53    2
    31    52    51    1
    32    71    72    1
    33    71    74    1
    34     8     6    1
    35    72    73    2
    36    51    54    1
    37    12    11    2
    38     6     5    1
    39    54    55    1
    40    74    75    1
    41    16    19    1
    42    16    17    1
    43    16    15    1
    44    11    15   am
    45    11    10    1
    46     5     2    1
    47     5     7    1
    48    14    13    1
    49    17    18    2
    50     9    10    1
    51     9     3   am
    52     2     3    1
    53     2     1    1
    54    55    56    1
    55    75    76   ar
    56    75    77   ar
    57    10    13    1
    58     3     4    2
    59    36    34   ar
    60    36    37   ar
    61    39    37   ar
    62    39    41   ar
    63    76    78   ar
    64    34    33   ar
    65    37    35   ar
    66    41    40   ar
    67    35    33   ar
    68    35    38   ar
    69    33    32    1
    70    56    57    1
    71    40    38   ar
    72    32    29    1
    73    77    79   ar
    74    78    80   ar
    75    29    30    1
    76    29    28    1
    77    79    80   ar
    78    30    31    2
    79   138   137    1
    80    26    25    1
    81   126   124    1
    82   135   137   ar
    83   135   133   ar
    84   137   136   ar
    85    27    25    1
    86   133   132   ar
    87    25    24    1
    88    24    21    1
    89   136   134   ar
    90   120   119    1
    91   120   123    1
    92   120   121    1
    93   132   134   ar
    94   132   131    1
    95   124   123    1
    96   124   125    1
    97   122   121    2
    98    22    21    1
    99    22    23    2
   100    21    20    1
   101   131   128    1
   102   117   116    1
   103   115   116    1
   104   115   112    1
   105   113   114    2
   106   113   112    1
   107   118   116    1
   108   130   129    2
   109   128   129    1
   110   128   127    1
   111   112   111    1
   112    96    94   am
   113   109   107    1
   114    94    95    2
   115    94    93    1
   116   110   108    1
   117   108   107    1
   118    88    87    1
   119    85    82    1
   120    85    86    1
   121    81    82    1
   122   107   104    1
   123    87    86    1
   124    82    83    1
   125   102   101    1
   126   104   105    1
   127   104   103    1
   128    93    90    1
   129   100    99    2
   130   105   106    2
   131   101    98    1
   132   103    99   am
   133    92    91    2
   134    99    98    1
   135    90    91    1
   136    90    89    1
   137    83    84    2
   138    98    97    1
