@<TRIPOS>MOLECULE
tmp/3qg6C00.pdb
 153 150 0 0 0
SMALL
GASTEIGER

@<TRIPOS>ATOM
      1  N         14.8670   15.4100   50.5250 N.3    32  ASN32      -0.1225
      2  CA        16.1530   14.7350   50.2800 C.3    32  ASN32       0.1785
      3  C         16.4740   14.4630   48.8160 C.2    32  ASN32       0.2597
      4  O         17.5180   14.8860   48.3240 O.2    32  ASN32      -0.2718
      5  CB        16.2040   13.4170   51.0560 C.3    32  ASN32       0.1169
      6  CG        16.4600   13.6230   52.5360 C.2    32  ASN32       0.2627
      7  OD1       15.6600   13.2130   53.3770 O.2    32  ASN32      -0.2716
      8  ND2       17.5820   14.2620   52.8600 N.am   32  ASN32      -0.0877
      9  N         15.5640   13.7610   48.1360 N.am   33  TYR33      -0.1962
     10  CA        15.8430   13.1720   46.8370 C.3    33  TYR33       0.1771
     11  C         15.7340   14.1660   45.6860 C.2    33  TYR33       0.2619
     12  O         15.0370   15.1710   45.7870 O.2    33  TYR33      -0.2715
     13  CB        14.9040   11.9840   46.5790 C.3    33  TYR33       0.0574
     14  CG        15.2830   10.7340   47.3340 C.ar   33  TYR33      -0.0198
     15  CD1       14.7930   10.4950   48.6130 C.ar   33  TYR33      -0.0009
     16  CD2       16.1300    9.7900   46.7700 C.ar   33  TYR33      -0.0009
     17  CE1       15.1390    9.3520   49.3110 C.ar   33  TYR33       0.0417
     18  CE2       16.4780    8.6330   47.4590 C.ar   33  TYR33       0.0417
     19  CZ        15.9820    8.4190   48.7250 C.ar   33  TYR33       0.1957
     20  OH        16.3290    7.2870   49.4210 O.3    33  TYR33      -0.2866
     21  N         16.4270   13.8620   44.5910 N.am   34  ALA34      -0.1977
     22  CA        16.1980   14.5510   43.3170 C.3    34  ALA34       0.1597
     23  C         15.1570   13.7940   42.5040 C.2    34  ALA34       0.2287
     24  O         14.7430   12.7010   42.8830 O.2    34  ALA34      -0.2864
     25  CB        17.4930   14.6960   42.5250 C.3    34  ALA34       0.0319
     26  N         14.2240   12.9070   38.4310 N.3    36  ASN36      -0.1240
     27  CA        14.7890   12.8760   37.0910 C.3    36  ASN36       0.1653
     28  C         13.8010   12.5480   35.9840 C.2    36  ASN36       0.2266
     29  O         12.7940   11.8690   36.1990 O.2    36  ASN36      -0.2867
     30  CB        15.8840   11.8230   37.0290 C.3    36  ASN36       0.1155
     31  CG        17.0630   12.0930   37.9360 C.2    36  ASN36       0.2627
     32  OD1       18.1870   12.2420   37.4700 O.2    36  ASN36      -0.2716
     33  ND2       16.8330   12.1320   39.2300 N.am   36  ASN36      -0.0877
     34  N         14.1820   10.8520   32.1710 N.3    38  ILE38      -0.1245
     35  CA        15.0070   10.0220   31.3300 C.3    38  ILE38       0.1561
     36  C         14.0790    9.5990   30.2020 C.2    38  ILE38       0.2260
     37  O         13.0130    9.0310   30.4320 O.2    38  ILE38      -0.2867
     38  CB        15.5800    8.7950   32.1220 C.3    38  ILE38       0.0252
     39  CG1       16.4880    9.2530   33.2700 C.3    38  ILE38       0.0019
     40  CG2       16.3070    7.7850   31.1890 C.3    38  ILE38       0.0019
     41  CD1       16.7220    8.2360   34.3290 C.3    38  ILE38       0.0001
     42  N         19.4220   10.4770   29.5890 N.3    48  TRP48      -0.1241
     43  CA        19.1410   11.2540   30.7860 C.3    48  TRP48       0.1605
     44  C         19.0070   12.7130   30.3820 C.2    48  TRP48       0.2264
     45  O         19.8180   13.2230   29.6010 O.2    48  TRP48      -0.2867
     46  CB        20.2540   11.0860   31.8060 C.3    48  TRP48       0.0550
     47  CG        20.0930   11.9470   33.0370 C.ar   48  TRP48       0.0003
     48  CD1       19.2340   11.7520   34.0740 C.ar   48  TRP48       0.0946
     49  CD2       20.8340   13.1270   33.3470 C.ar   48  TRP48       0.0152
     50  NE1       19.3850   12.7370   35.0060 N.ar   48  TRP48      -0.2442
     51  CE2       20.3710   13.5950   34.5870 C.ar   48  TRP48       0.0810
     52  CE3       21.8490   13.8320   32.6930 C.ar   48  TRP48       0.0012
     53  CZ2       20.8970   14.7390   35.1970 C.ar   48  TRP48       0.0191
     54  CZ3       22.3660   14.9640   33.2930 C.ar   48  TRP48       0.0001
     55  CH2       21.8910   15.4050   34.5340 C.ar   48  TRP48       0.0015
     56  N         17.5470   16.6810   36.2660 N.3    51  PHE51      -0.1241
     57  CA        16.8440   16.5190   37.5360 C.3    51  PHE51       0.1605
     58  C         16.5500   17.8370   38.2230 C.2    51  PHE51       0.2264
     59  O         17.1390   18.8650   37.8930 O.2    51  PHE51      -0.2867
     60  CB        17.5430   15.5230   38.4920 C.3    51  PHE51       0.0534
     61  CG        18.8470   15.9740   39.1180 C.ar   51  PHE51      -0.0203
     62  CD1       20.0360   15.3120   38.8190 C.ar   51  PHE51      -0.0042
     63  CD2       18.8840   17.0050   40.0530 C.ar   51  PHE51      -0.0042
     64  CE1       21.2440   15.7030   39.4040 C.ar   51  PHE51      -0.0003
     65  CE2       20.0880   17.3980   40.6380 C.ar   51  PHE51      -0.0003
     66  CZ        21.2690   16.7360   40.3080 C.ar   51  PHE51      -0.0000
     67  N         16.2910   19.0650   42.2230 N.3    53  SER53      -0.1202
     68  CA        16.6260   18.7100   43.5960 C.3    53  SER53       0.2020
     69  C         15.3940   18.8130   44.5370 C.2    53  SER53       0.2619
     70  O         14.3200   19.2580   44.1360 O.2    53  SER53      -0.2717
     71  CB        17.7370   19.6360   44.1030 C.3    53  SER53       0.2103
     72  OG        17.1830   20.8210   44.6530 O.3    53  SER53      -0.2182
     73  N         15.5460   18.4070   45.7960 N.am   54  SER54      -0.1937
     74  CA        14.4290   18.5340   46.7370 C.3    54  SER54       0.2055
     75  C         14.1990   20.0080   47.1110 C.2    54  SER54       0.2643
     76  O         13.1290   20.3790   47.5510 O.2    54  SER54      -0.2714
     77  CB        14.6540   17.6660   47.9660 C.3    54  SER54       0.2130
     78  OG        15.9250   17.9160   48.5260 O.3    54  SER54      -0.2179
     79  N         15.2000   20.8440   46.8680 N.am   55  TYR55      -0.1973
     80  CA        15.1710   22.2720   47.1870 C.3    55  TYR55       0.1639
     81  C         15.0380   23.1600   45.9280 C.2    55  TYR55       0.2290
     82  O         15.3980   24.3350   45.9470 O.2    55  TYR55      -0.2864
     83  CB        16.4010   22.6410   48.0260 C.3    55  TYR55       0.0560
     84  CG        17.7080   22.1260   47.4710 C.ar   55  TYR55      -0.0198
     85  CD1       18.1720   20.8440   47.7920 C.ar   55  TYR55      -0.0009
     86  CD2       18.4890   22.9150   46.6300 C.ar   55  TYR55      -0.0009
     87  CE1       19.3750   20.3600   47.2790 C.ar   55  TYR55       0.0417
     88  CE2       19.7040   22.4530   46.1330 C.ar   55  TYR55       0.0417
     89  CZ        20.1350   21.1740   46.4470 C.ar   55  TYR55       0.1957
     90  OH        21.3360   20.7410   45.9450 O.3    55  TYR55      -0.2866
     91  N         16.4420   23.1460   42.7860 N.3    57  THR57      -0.1203
     92  CA        17.5200   23.4870   41.8370 C.3    57  THR57       0.1994
     93  C         17.6270   22.4200   40.7750 C.2    57  THR57       0.2619
     94  O         17.3210   21.2620   41.0250 O.2    57  THR57      -0.2717
     95  CB        18.8710   23.7550   42.5260 C.3    57  THR57       0.1784
     96  OG1       19.3630   22.5510   43.1410 O.3    57  THR57      -0.2211
     97  CG2       18.7350   24.8690   43.5430 C.3    57  THR57       0.0376
     98  N         18.0390   22.8150   39.5820 N.am   58  THR58      -0.1938
     99  CA        18.0740   21.8930   38.4680 C.3    58  THR58       0.2028
    100  C         19.4950   21.5990   38.0000 C.2    58  THR58       0.2642
    101  O         20.4270   22.3690   38.2670 O.2    58  THR58      -0.2714
    102  CB        17.2340   22.4090   37.2920 C.3    58  THR58       0.1808
    103  OG1       17.7250   23.6890   36.8940 O.3    58  THR58      -0.2208
    104  CG2       15.7140   22.5020   37.6400 C.3    58  THR58       0.0379
    105  N         19.6340   20.4480   37.3290 N.am   59  THR59      -0.1950
    106  CA        20.8720   19.9800   36.7160 C.3    59  THR59       0.1897
    107  C         20.4670   19.2970   35.4130 C.2    59  THR59       0.2313
    108  O         19.7030   18.3380   35.4370 O.2    59  THR59      -0.2863
    109  CB        21.5900   18.9930   37.6310 C.3    59  THR59       0.1794
    110  OG1       21.9220   19.6690   38.8360 O.3    59  THR59      -0.2208
    111  CG2       22.8610   18.4210   36.9730 C.3    59  THR59       0.0378
    112  N         11.3560    9.4720   37.3050 N.3    97  THR97      -0.1218
    113  CA        11.8920    8.6190   38.3450 C.3    97  THR97       0.1862
    114  C         12.2950    9.5460   39.4840 C.2    97  THR97       0.2287
    115  O         12.3000   10.7760   39.3270 O.2    97  THR97      -0.2866
    116  CB        13.1260    7.8050   37.8180 C.3    97  THR97       0.1770
    117  OG1       13.7500    7.0890   38.8880 O.3    97  THR97      -0.2211
    118  CG2       14.1760    8.7090   37.1420 C.3    97  THR97       0.0375
    119  N         15.3900    8.7480   41.9070 N.3    99  GLU99      -0.1231
    120  CA        16.7980    8.6330   41.5560 C.3    99  GLU99       0.1699
    121  C         17.1340    7.2380   41.0110 C.2    99  GLU99       0.2593
    122  O         18.0850    6.5990   41.4490 O.2    99  GLU99      -0.2718
    123  CB        17.6610    8.9860   42.7670 C.3    99  GLU99       0.0402
    124  CG        17.6390   10.4790   43.0720 C.3    99  GLU99       0.1161
    125  CD        18.7810   10.9180   43.9530 C.2    99  GLU99       0.3649
    126  OE1       19.8440   10.2800   43.8780 O.co2  99  GLU99      -0.2457
    127  OE2       18.6190   11.9100   44.6970 O.co2  99  GLU99      -0.2457
    128  N         16.3430    6.7780   40.0470 N.am  100  GLY100     -0.1942
    129  CA        16.5090    5.4510   39.4510 C.3   100  GLY100      0.2014
    130  C         15.9950    4.3080   40.3030 C.2   100  GLY100      0.2638
    131  O         16.0520    3.1480   39.8950 O.2   100  GLY100     -0.2714
    132  N         15.4860    4.6360   41.4900 N.am  101  ASP101     -0.1971
    133  CA        14.9860    3.6360   42.4290 C.3   101  ASP101      0.1709
    134  C         13.4840    3.3730   42.2340 C.2   101  ASP101      0.2293
    135  O         13.0340    2.2230   42.2980 O.2   101  ASP101     -0.2864
    136  CB        15.3570    3.9800   43.8920 C.3   101  ASP101      0.1436
    137  CG        15.0470    5.4350   44.3250 C.2   101  ASP101      0.3671
    138  OD1       14.5380    6.2370   43.5110 O.co2 101  ASP101     -0.2456
    139  OD2       15.3370    5.7640   45.5030 O.co2 101  ASP101     -0.2456
    140  N         10.1670    4.4850   39.5840 N.3   103  TRP103     -0.1241
    141  CA         9.8990    4.9130   38.2180 C.3   103  TRP103      0.1605
    142  C          8.4120    4.9350   37.9680 C.2   103  TRP103      0.2264
    143  O          7.6820    4.1250   38.5500 O.2   103  TRP103     -0.2867
    144  CB        10.5090    3.9030   37.2290 C.3   103  TRP103      0.0550
    145  CG        12.0150    3.8150   37.2010 C.ar  103  TRP103      0.0003
    146  CD1       12.8200    3.2060   38.1160 C.ar  103  TRP103      0.0946
    147  CD2       12.8860    4.2830   36.1490 C.ar  103  TRP103      0.0152
    148  NE1       14.1440    3.3130   37.7300 N.ar  103  TRP103     -0.2442
    149  CE2       14.2090    3.9730   36.5300 C.ar  103  TRP103      0.0810
    150  CE3       12.6730    4.9430   34.9280 C.ar  103  TRP103      0.0012
    151  CZ2       15.3110    4.2880   35.7310 C.ar  103  TRP103      0.0191
    152  CZ3       13.7750    5.2730   34.1440 C.ar  103  TRP103      0.0001
    153  CH2       15.0740    4.9360   34.5450 C.ar  103  TRP103      0.0015
@<TRIPOS>BOND
     1    42    43    1
     2    45    44    2
     3    36    37    2
     4    36    35    1
     5    44    43    1
     6    43    46    1
     7    40    38    1
     8    35    38    1
     9    35    34    1
    10    46    47    1
    11    38    39    1
    12    52    54   ar
    13    52    49   ar
    14    47    49   ar
    15    47    48   ar
    16    39    41    1
    17    54    55   ar
    18    49    51   ar
    19    48    50   ar
    20   152   153   ar
    21   152   150   ar
    22    55    53   ar
    23   153   151   ar
    24    51    50   ar
    25    51    53   ar
    26   150   147   ar
    27   107   108    2
    28   107   106    1
    29   151   149   ar
    30    28    29    2
    31    28    27    1
    32   147   149   ar
    33   147   145   ar
    34    56    57    1
    35   149   148   ar
    36   106   105    1
    37   106   109    1
    38   103   102    1
    39   111   109    1
    40    30    27    1
    41    30    31    1
    42    27    26    1
    43   118   116    1
    44   145   144    1
    45   145   146   ar
    46   144   141    1
    47   102   104    1
    48   102    99    1
    49   112   113    1
    50   105   100   am
    51    32    31    2
    52    57    58    1
    53    57    60    1
    54   109   110    1
    55   148   146   ar
    56   116   113    1
    57   116   117    1
    58    59    58    2
    59    31    33   am
    60   142   141    1
    61   142   143    2
    62   100   101    2
    63   100    99    1
    64   141   140    1
    65   113   114    1
    66    99    98    1
    67    60    61    1
    68    62    61   ar
    69    62    64   ar
    70    61    63   ar
    71   115   114    2
    72    64    66   ar
    73   129   128    1
    74   129   130    1
    75    98    93   am
    76   131   130    2
    77   128   121   am
    78    63    65   ar
    79   130   132   am
    80    66    65   ar
    81    93    94    2
    82    93    92    1
    83   121   122    2
    84   121   120    1
    85   132   133    1
    86   120   119    1
    87   120   123    1
    88    92    95    1
    89    92    91    1
    90    67    68    1
    91   134   135    2
    92   134   133    1
    93   133   136    1
    94    23    24    2
    95    23    22    1
    96    25    22    1
    97    95    96    1
    98    95    97    1
    99   123   124    1
   100   124   125    1
   101    22    21    1
   102   138   137   ar
   103    68    71    1
   104    68    69    1
   105   126   125   ar
   106   136   137    1
   107   125   127   ar
   108    71    72    1
   109    70    69    2
   110   137   139   ar
   111    69    73   am
   112    21    11   am
   113    11    12    2
   114    11    10    1
   115    73    74    1
   116    81    82    2
   117    81    80    1
   118    90    89    1
   119    88    89   ar
   120    88    86   ar
   121    89    87   ar
   122    13    10    1
   123    13    14    1
   124    86    84   ar
   125    74    75    1
   126    74    77    1
   127    16    14   ar
   128    16    18   ar
   129    10     9    1
   130    79    75   am
   131    79    80    1
   132    75    76    2
   133    80    83    1
   134    87    85   ar
   135    14    15   ar
   136    18    19   ar
   137    84    85   ar
   138    84    83    1
   139    77    78    1
   140     9     3   am
   141     4     3    2
   142    15    17   ar
   143    19    17   ar
   144    19    20    1
   145     3     2    1
   146     2     1    1
   147     2     5    1
   148     5     6    1
   149     6     8   am
   150     6     7    2
