@<TRIPOS>MOLECULE
tmp/3qg6D00.pdb
 103 101 0 0 0
SMALL
GASTEIGER

@<TRIPOS>ATOM
      1  N         30.0590    5.1820   40.8370 N.3    37  TYR37      -0.1241
      2  CA        28.6450    5.2490   40.4440 C.3    37  TYR37       0.1605
      3  C         28.4150    4.5690   39.1040 C.2    37  TYR37       0.2264
      4  O         28.1830    5.2310   38.0940 O.2    37  TYR37      -0.2867
      5  CB        28.1730    6.7060   40.4230 C.3    37  TYR37       0.0534
      6  CG        28.1200    7.2970   41.8000 C.ar   37  TYR37      -0.0201
      7  CD1       26.9820    7.1700   42.5800 C.ar   37  TYR37      -0.0009
      8  CD2       29.2170    7.9390   42.3500 C.ar   37  TYR37      -0.0009
      9  CE1       26.9210    7.6960   43.8560 C.ar   37  TYR37       0.0417
     10  CE2       29.1760    8.4450   43.6500 C.ar   37  TYR37       0.0417
     11  CZ        28.0170    8.3210   44.3910 C.ar   37  TYR37       0.1957
     12  OH        27.9360    8.8140   45.6690 O.3    37  TYR37      -0.2866
     13  N         25.9900    1.5680   37.7890 N.3    39  HIS39      -0.1241
     14  CA        24.7580    0.8920   38.1760 C.3    39  HIS39       0.1621
     15  C         24.2810   -0.0010   37.0240 C.2    39  HIS39       0.2264
     16  O         24.7360    0.1480   35.8810 O.2    39  HIS39      -0.2867
     17  CB        23.6920    1.9290   38.5800 C.3    39  HIS39       0.0745
     18  CG        24.2690    3.1850   39.1650 C.ar   39  HIS39       0.0817
     19  ND1       24.8150    3.2280   40.4320 N.ar   39  HIS39      -0.2268
     20  CD2       24.4120    4.4260   38.6370 C.ar   39  HIS39       0.1154
     21  CE1       25.2490    4.4540   40.6600 C.ar   39  HIS39       0.1986
     22  NE2       25.0230    5.2020   39.5900 N.ar   39  HIS39      -0.2212
     23  N         20.5900   -1.6820   35.4340 N.3    41  PHE41      -0.1241
     24  CA        19.1350   -1.7160   35.3860 C.3    41  PHE41       0.1605
     25  C         18.7010   -2.8620   34.4640 C.2    41  PHE41       0.2264
     26  O         19.4320   -3.2050   33.5420 O.2    41  PHE41      -0.2867
     27  CB        18.5920   -0.3920   34.8290 C.3    41  PHE41       0.0534
     28  CG        18.8650    0.8190   35.6880 C.ar   41  PHE41      -0.0203
     29  CD1       20.0550    1.5170   35.5750 C.ar   41  PHE41      -0.0042
     30  CD2       17.9020    1.2910   36.5850 C.ar   41  PHE41      -0.0042
     31  CE1       20.2990    2.6430   36.3710 C.ar   41  PHE41      -0.0003
     32  CE2       18.1420    2.4070   37.3730 C.ar   41  PHE41      -0.0003
     33  CZ        19.3430    3.0810   37.2630 C.ar   41  PHE41      -0.0000
     34  N         16.0980   -0.8430   38.8930 N.3    51  LEU51      -0.1245
     35  CA        17.4660   -0.8780   39.4140 C.3    51  LEU51       0.1561
     36  C         17.7830   -2.2540   39.9880 C.2    51  LEU51       0.2260
     37  O         17.0380   -2.7740   40.8200 O.2    51  LEU51      -0.2867
     38  CB        17.6530    0.1970   40.4890 C.3    51  LEU51       0.0270
     39  CG        19.0350    0.3660   41.1010 C.3    51  LEU51       0.0019
     40  CD1       20.0380    0.7590   40.0280 C.3    51  LEU51       0.0001
     41  CD2       18.9700    1.4120   42.2070 C.3    51  LEU51       0.0001
     42  N         23.6480   -0.9570   42.1070 N.3    54  TYR54      -0.1227
     43  CA        24.1650    0.4050   42.1430 C.3    54  TYR54       0.1736
     44  C         25.4870    0.4680   42.9090 C.2    54  TYR54       0.2595
     45  O         25.8400   -0.4490   43.6520 O.2    54  TYR54      -0.2718
     46  CB        23.1490    1.3440   42.8050 C.3    54  TYR54       0.0548
     47  CG        22.9920    1.1070   44.2900 C.ar   54  TYR54      -0.0200
     48  CD1       22.1630    0.1020   44.7760 C.ar   54  TYR54      -0.0009
     49  CD2       23.6820    1.8770   45.2050 C.ar   54  TYR54      -0.0009
     50  CE1       22.0220   -0.1210   46.1390 C.ar   54  TYR54       0.0417
     51  CE2       23.5530    1.6660   46.5710 C.ar   54  TYR54       0.0417
     52  CZ        22.7200    0.6690   47.0320 C.ar   54  TYR54       0.1957
     53  OH        22.5990    0.4660   48.3840 O.3    54  TYR54      -0.2866
     54  N         26.1980    1.5750   42.7380 N.am   55  LYS55      -0.1980
     55  CA        27.5040    1.7600   43.3470 C.3    55  LYS55       0.1596
     56  C         28.4080    0.5550   43.1010 C.2    55  LYS55       0.2287
     57  O         29.0410    0.0400   44.0190 O.2    55  LYS55      -0.2864
     58  CB        27.3670    2.0390   44.8460 C.3    55  LYS55       0.0298
     59  CG        26.6850    3.3670   45.1640 C.3    55  LYS55       0.0038
     60  CD        27.2060    3.9680   46.4580 C.3    55  LYS55       0.0206
     61  CE        26.3890    5.1640   46.8580 C.3    55  LYS55       0.1093
     62  NZ        26.7380    5.6220   48.2100 N.3    55  LYS55      -0.1314
     63  N         20.2010   -3.6230   45.0770 N.3    60  PHE60      -0.1241
     64  CA        19.0590   -2.7960   45.4800 C.3    60  PHE60       0.1605
     65  C         18.0190   -3.6650   46.2060 C.2    60  PHE60       0.2264
     66  O         17.9960   -4.8850   46.0380 O.2    60  PHE60      -0.2867
     67  CB        18.4640   -2.1030   44.2450 C.3    60  PHE60       0.0534
     68  CG        17.3410   -1.1220   44.5330 C.ar   60  PHE60      -0.0203
     69  CD1       17.5630    0.0120   45.3190 C.ar   60  PHE60      -0.0042
     70  CD2       16.0810   -1.3050   43.9620 C.ar   60  PHE60      -0.0042
     71  CE1       16.5390    0.9210   45.5700 C.ar   60  PHE60      -0.0003
     72  CE2       15.0560   -0.3950   44.1980 C.ar   60  PHE60      -0.0003
     73  CZ        15.2860    0.7210   45.0080 C.ar   60  PHE60      -0.0000
     74  N         26.7350    7.6340   36.7720 N.3    96  THR96      -0.1218
     75  CA        26.2160    8.8860   37.3370 C.3    96  THR96       0.1862
     76  C         27.3290    9.6190   38.1310 C.2    96  THR96       0.2287
     77  O         27.0560   10.4910   38.9600 O.2    96  THR96      -0.2866
     78  CB        24.9600    8.6660   38.2440 C.3    96  THR96       0.1770
     79  OG1       25.3300    7.9990   39.4560 O.3    96  THR96      -0.2211
     80  CG2       23.8620    7.8890   37.5310 C.3    96  THR96       0.0375
     81  N         24.7960   12.1650   33.0460 N.3   101  TYR101     -0.1241
     82  CA        24.6580   10.7380   33.3230 C.3   101  TYR101      0.1605
     83  C         24.4350   10.0580   31.9760 C.2   101  TYR101      0.2264
     84  O         23.6810   10.5600   31.1480 O.2   101  TYR101     -0.2867
     85  CB        23.4650   10.4470   34.2500 C.3   101  TYR101      0.0534
     86  CG        23.4400   11.1780   35.5800 C.ar  101  TYR101     -0.0201
     87  CD1       24.5980   11.6810   36.1520 C.ar  101  TYR101     -0.0009
     88  CD2       22.2550   11.3180   36.2830 C.ar  101  TYR101     -0.0009
     89  CE1       24.5720   12.3270   37.3640 C.ar  101  TYR101      0.0417
     90  CE2       22.2170   11.9530   37.4950 C.ar  101  TYR101      0.0417
     91  CZ        23.3820   12.4570   38.0410 C.ar  101  TYR101      0.1957
     92  OH        23.3400   13.0890   39.2590 O.3   101  TYR101     -0.2866
     93  N         24.0460    6.0620   29.7860 N.3   103  PHE103     -0.1241
     94  CA        23.6730    4.6570   29.7820 C.3   103  PHE103      0.1605
     95  C         24.3530    3.9150   28.6440 C.2   103  PHE103      0.2264
     96  O         24.6580    4.5130   27.6140 O.2   103  PHE103     -0.2867
     97  CB        22.1680    4.5550   29.5710 C.3   103  PHE103      0.0534
     98  CG        21.3670    5.0890   30.7090 C.ar  103  PHE103     -0.0203
     99  CD1       20.9350    4.2490   31.7260 C.ar  103  PHE103     -0.0042
    100  CD2       20.9990    6.4230   30.7500 C.ar  103  PHE103     -0.0042
    101  CE1       20.1800    4.7390   32.7780 C.ar  103  PHE103     -0.0003
    102  CE2       20.2530    6.9250   31.8070 C.ar  103  PHE103     -0.0003
    103  CZ        19.8320    6.0680   32.8200 C.ar  103  PHE103     -0.0000
@<TRIPOS>BOND
     1    96    95    2
     2    95    94    1
     3    97    94    1
     4    97    98    1
     5    94    93    1
     6    98   100   ar
     7    98    99   ar
     8   100   102   ar
     9    84    83    2
    10    99   101   ar
    11   102   103   ar
    12    83    82    1
    13   101   103   ar
    14    81    82    1
    15    82    85    1
    16    26    25    2
    17    85    86    1
    18    25    24    1
    19    27    24    1
    20    27    28    1
    21    24    23    1
    22    29    28   ar
    23    29    31   ar
    24    86    87   ar
    25    86    88   ar
    26    28    30   ar
    27    16    15    2
    28    87    89   ar
    29    88    90   ar
    30    31    33   ar
    31    30    32   ar
    32    74    75    1
    33    15    14    1
    34    33    32   ar
    35    75    76    1
    36    75    78    1
    37    89    91   ar
    38    90    91   ar
    39    80    78    1
    40    13    14    1
    41    91    92    1
    42     4     3    2
    43    76    77    2
    44    14    17    1
    45    78    79    1
    46    17    18    1
    47    20    18   ar
    48    20    22   ar
    49    34    35    1
    50     3     2    1
    51    18    19   ar
    52    35    36    1
    53    35    38    1
    54    22    21   ar
    55    36    37    2
    56    40    39    1
    57     5     2    1
    58     5     6    1
    59    19    21   ar
    60     2     1    1
    61    38    39    1
    62    39    41    1
    63     6     8   ar
    64     6     7   ar
    65    42    43    1
    66    43    46    1
    67    43    44    1
    68     8    10   ar
    69     7     9   ar
    70    54    44   am
    71    54    55    1
    72    46    47    1
    73    44    45    2
    74    56    55    1
    75    56    57    2
    76    55    58    1
    77    10    11   ar
    78     9    11   ar
    79    70    72   ar
    80    70    68   ar
    81    72    73   ar
    82    67    68    1
    83    67    64    1
    84    47    48   ar
    85    47    49   ar
    86    11    12    1
    87    68    69   ar
    88    48    50   ar
    89    58    59    1
    90    73    71   ar
    91    63    64    1
    92    59    60    1
    93    49    51   ar
    94    69    71   ar
    95    64    65    1
    96    66    65    2
    97    50    52   ar
    98    60    61    1
    99    51    52   ar
   100    61    62    1
   101    52    53    1
