@<TRIPOS>MOLECULE
tmp/3qg6B00.pdb
 139 136 0 0 0
SMALL
GASTEIGER

@<TRIPOS>ATOM
      1  N         17.4370   -7.4050  -47.7420 N.3    32  ASN32      -0.1225
      2  CA        17.2040   -8.6430  -46.9920 C.3    32  ASN32       0.1785
      3  C         16.9450   -8.4400  -45.5040 C.2    32  ASN32       0.2597
      4  O         15.9120   -8.8650  -44.9820 O.2    32  ASN32      -0.2718
      5  CB        18.3890   -9.6020  -47.1700 C.3    32  ASN32       0.1169
      6  CG        18.4300  -10.2340  -48.5490 C.2    32  ASN32       0.2627
      7  OD1       17.4100  -10.6780  -49.0800 O.2    32  ASN32      -0.2716
      8  ND2       19.6200  -10.2900  -49.1310 N.am   32  ASN32      -0.0877
      9  N         17.8860   -7.7880  -44.8300 N.am   33  TYR33      -0.1962
     10  CA        17.9580   -7.8310  -43.3740 C.3    33  TYR33       0.1771
     11  C         16.9850   -6.8660  -42.6830 C.2    33  TYR33       0.2619
     12  O         16.6070   -5.8280  -43.2350 O.2    33  TYR33      -0.2715
     13  CB        19.3840   -7.5390  -42.9070 C.3    33  TYR33       0.0574
     14  CG        20.3360   -8.7040  -43.0470 C.ar   33  TYR33      -0.0198
     15  CD1       20.4150   -9.6820  -42.0630 C.ar   33  TYR33      -0.0009
     16  CD2       21.1610   -8.8270  -44.1610 C.ar   33  TYR33      -0.0009
     17  CE1       21.2780  -10.7510  -42.1840 C.ar   33  TYR33       0.0417
     18  CE2       22.0310   -9.9020  -44.2940 C.ar   33  TYR33       0.0417
     19  CZ        22.0890  -10.8550  -43.2980 C.ar   33  TYR33       0.1957
     20  OH        22.9490  -11.9160  -43.4060 O.3    33  TYR33      -0.2866
     21  N         16.5770   -7.2340  -41.4730 N.am   34  ALA34      -0.1977
     22  CA        15.9250   -6.3020  -40.5600 C.3    34  ALA34       0.1597
     23  C         16.9790   -5.5120  -39.7980 C.2    34  ALA34       0.2287
     24  O         18.1410   -5.9070  -39.7490 O.2    34  ALA34      -0.2864
     25  CB        15.0460   -7.0480  -39.5980 C.3    34  ALA34       0.0319
     26  N         17.5950   -3.4940  -36.0710 N.3    36  ASN36      -0.1240
     27  CA        16.9880   -3.5990  -34.7460 C.3    36  ASN36       0.1653
     28  C         17.4950   -2.5520  -33.7550 C.2    36  ASN36       0.2266
     29  O         18.5990   -2.0290  -33.9050 O.2    36  ASN36      -0.2867
     30  CB        17.2170   -5.0010  -34.1710 C.3    36  ASN36       0.1155
     31  CG        16.3780   -6.0770  -34.8640 C.2    36  ASN36       0.2627
     32  OD1       15.4060   -6.5710  -34.3010 O.2    36  ASN36      -0.2716
     33  ND2       16.7650   -6.4480  -36.0810 N.am   36  ASN36      -0.0877
     34  N         17.9840   -2.1390  -29.5490 N.3    38  ILE38      -0.1245
     35  CA        18.0270   -2.8740  -28.2930 C.3    38  ILE38       0.1561
     36  C         18.6060   -1.9780  -27.2070 C.2    38  ILE38       0.2260
     37  O         19.6090   -1.3060  -27.4210 O.2    38  ILE38      -0.2867
     38  CB        18.9040   -4.1450  -28.4310 C.3    38  ILE38       0.0252
     39  CG1       18.2000   -5.1830  -29.3070 C.3    38  ILE38       0.0019
     40  CG2       19.2260   -4.7340  -27.0640 C.3    38  ILE38       0.0019
     41  CD1       19.1410   -6.1490  -29.9770 C.3    38  ILE38       0.0001
     42  N         14.9630   -5.8030  -26.1110 N.3    48  TRP48      -0.1241
     43  CA        14.6990   -5.6290  -27.5340 C.3    48  TRP48       0.1605
     44  C         13.5050   -4.7160  -27.6960 C.2    48  TRP48       0.2264
     45  O         12.4790   -4.9160  -27.0450 O.2    48  TRP48      -0.2867
     46  CB        14.4060   -6.9710  -28.2000 C.3    48  TRP48       0.0550
     47  CG        14.0080   -6.8580  -29.6390 C.ar   48  TRP48       0.0003
     48  CD1       14.8320   -6.6190  -30.6960 C.ar   48  TRP48       0.0946
     49  CD2       12.6850   -7.0070  -30.1840 C.ar   48  TRP48       0.0152
     50  NE1       14.1100   -6.6080  -31.8620 N.ar   48  TRP48      -0.2442
     51  CE2       12.7890   -6.8440  -31.5780 C.ar   48  TRP48       0.0810
     52  CE3       11.4190   -7.2560  -29.6260 C.ar   48  TRP48       0.0012
     53  CZ2       11.6760   -6.9330  -32.4300 C.ar   48  TRP48       0.0191
     54  CZ3       10.3180   -7.3440  -30.4750 C.ar   48  TRP48       0.0001
     55  CH2       10.4540   -7.1840  -31.8560 C.ar   48  TRP48       0.0015
     56  N         12.1660   -3.7320  -34.7420 N.3    51  PHE51      -0.1241
     57  CA        12.9080   -3.6880  -35.9890 C.3    51  PHE51       0.1605
     58  C         12.1280   -3.0550  -37.1330 C.2    51  PHE51       0.2264
     59  O         10.9020   -2.8990  -37.0500 O.2    51  PHE51      -0.2867
     60  CB        13.4870   -5.0560  -36.3740 C.3    51  PHE51       0.0534
     61  CG        12.4930   -6.1000  -36.8470 C.ar   51  PHE51      -0.0203
     62  CD1       12.2870   -7.2600  -36.1060 C.ar   51  PHE51      -0.0042
     63  CD2       11.8440   -5.9800  -38.0700 C.ar   51  PHE51      -0.0042
     64  CE1       11.4110   -8.2380  -36.5510 C.ar   51  PHE51      -0.0003
     65  CE2       10.9600   -6.9640  -38.5050 C.ar   51  PHE51      -0.0003
     66  CZ        10.7560   -8.0870  -37.7490 C.ar   51  PHE51      -0.0000
     67  N         12.0550   -3.7250  -41.2990 N.3    53  SER53      -0.1202
     68  CA        12.3990   -4.6470  -42.3950 C.3    53  SER53       0.2020
     69  C         13.2080   -3.9510  -43.4870 C.2    53  SER53       0.2619
     70  O         13.3470   -2.7330  -43.4880 O.2    53  SER53      -0.2717
     71  CB        11.1280   -5.1940  -43.0370 C.3    53  SER53       0.2103
     72  OG        10.5700   -6.2340  -42.2650 O.3    53  SER53      -0.2182
     73  N         13.7230   -4.7180  -44.4390 N.am   54  SER54      -0.1937
     74  CA        14.4350   -4.1050  -45.5560 C.3    54  SER54       0.2055
     75  C         13.4110   -3.4150  -46.4650 C.2    54  SER54       0.2643
     76  O         13.7770   -2.5580  -47.2640 O.2    54  SER54      -0.2714
     77  CB        15.2810   -5.1340  -46.3110 C.3    54  SER54       0.2130
     78  OG        14.4970   -6.2290  -46.7430 O.3    54  SER54      -0.2179
     79  N         12.1240   -3.7720  -46.2890 N.am   55  TYR55      -0.1973
     80  CA        10.9840   -3.2400  -47.0570 C.3    55  TYR55       0.1639
     81  C         10.1720   -2.1660  -46.3160 C.2    55  TYR55       0.2290
     82  O          9.0610   -1.8330  -46.7220 O.2    55  TYR55      -0.2864
     83  CB        10.0870   -4.3960  -47.5400 C.3    55  TYR55       0.0560
     84  CG        10.7130   -5.1340  -48.7070 C.ar   55  TYR55      -0.0198
     85  CD1       10.6020   -4.6410  -50.0080 C.ar   55  TYR55      -0.0009
     86  CD2       11.4610   -6.2910  -48.5070 C.ar   55  TYR55      -0.0009
     87  CE1       11.1950   -5.2950  -51.0820 C.ar   55  TYR55       0.0417
     88  CE2       12.0520   -6.9590  -49.5700 C.ar   55  TYR55       0.0417
     89  CZ        11.9180   -6.4560  -50.8600 C.ar   55  TYR55       0.1957
     90  OH        12.5050   -7.1130  -51.9240 O.3    55  TYR55      -0.2866
     91  N          8.7720   -2.0820  -43.2690 N.3    57  THR57      -0.1218
     92  CA         7.7210   -2.4520  -42.3110 C.3    57  THR57       0.1862
     93  C          8.3190   -2.6890  -40.9350 C.2    57  THR57       0.2287
     94  O          9.4520   -3.1370  -40.8230 O.2    57  THR57      -0.2866
     95  CB         6.8800   -3.6600  -42.7800 C.3    57  THR57       0.1770
     96  OG1        7.6980   -4.8260  -42.8550 O.3    57  THR57      -0.2211
     97  CG2        6.2380   -3.3880  -44.1360 C.3    57  THR57       0.0375
     98  N          8.1620   -3.9420  -36.6670 N.3    59  THR59      -0.1218
     99  CA         7.7300   -4.9270  -35.6730 C.3    59  THR59       0.1862
    100  C          8.2700   -4.4430  -34.3340 C.2    59  THR59       0.2287
    101  O          9.4790   -4.3240  -34.1740 O.2    59  THR59      -0.2866
    102  CB         8.2590   -6.3240  -36.0050 C.3    59  THR59       0.1770
    103  OG1        7.7890   -6.7040  -37.2970 O.3    59  THR59      -0.2211
    104  CG2        7.8080   -7.3470  -34.9820 C.3    59  THR59       0.0375
    105  N         20.9470   -7.7490  -37.3820 N.3    99  GLU99      -0.1231
    106  CA        20.1930   -8.8150  -36.7300 C.3    99  GLU99       0.1699
    107  C         21.0190   -9.5390  -35.6580 C.2    99  GLU99       0.2593
    108  O         21.0940  -10.7590  -35.6430 O.2    99  GLU99      -0.2718
    109  CB        19.6590   -9.7810  -37.7800 C.3    99  GLU99       0.0402
    110  CG        18.5090   -9.1930  -38.5750 C.3    99  GLU99       0.1161
    111  CD        17.7120  -10.2450  -39.3200 C.2    99  GLU99       0.3649
    112  OE1       17.6540  -11.3970  -38.8370 O.co2  99  GLU99      -0.2457
    113  OE2       17.1330   -9.9230  -40.3800 O.co2  99  GLU99      -0.2457
    114  N         21.6270   -8.7660  -34.7620 N.am  100  GLY100     -0.1942
    115  CA        22.5080   -9.3000  -33.7140 C.3   100  GLY100      0.2014
    116  C         23.8980   -9.7060  -34.1990 C.2   100  GLY100      0.2638
    117  O         24.7600  -10.0770  -33.4040 O.2   100  GLY100     -0.2714
    118  N         24.1220   -9.6330  -35.5060 N.am  101  ASP101     -0.1971
    119  CA        25.3940  -10.0170  -36.0930 C.3   101  ASP101      0.1709
    120  C         26.3930   -8.8400  -36.1190 C.2   101  ASP101      0.2293
    121  O         27.5770   -9.0130  -35.8180 O.2   101  ASP101     -0.2864
    122  CB        25.1980  -10.6640  -37.4840 C.3   101  ASP101      0.1436
    123  CG        24.2970   -9.8870  -38.4360 C.2   101  ASP101      0.3671
    124  OD1       23.8210   -8.7970  -38.0690 O.co2 101  ASP101     -0.2456
    125  OD2       24.0690  -10.3880  -39.5580 O.co2 101  ASP101     -0.2456
    126  N         26.7690   -4.7330  -34.7010 N.3   103  TRP103     -0.1241
    127  CA        26.2960   -3.8100  -33.7040 C.3   103  TRP103      0.1605
    128  C         27.0820   -2.5140  -33.7840 C.2   103  TRP103      0.2264
    129  O         28.2410   -2.5260  -34.1790 O.2   103  TRP103     -0.2867
    130  CB        26.5620   -4.3790  -32.3130 C.3   103  TRP103      0.0550
    131  CG        25.8570   -5.6470  -31.9530 C.ar  103  TRP103      0.0003
    132  CD1       26.1370   -6.9100  -32.4000 C.ar  103  TRP103      0.0946
    133  CD2       24.8010   -5.7810  -30.9890 C.ar  103  TRP103      0.0152
    134  NE1       25.2790   -7.8090  -31.8040 N.ar  103  TRP103     -0.2442
    135  CE2       24.4540   -7.1420  -30.9340 C.ar  103  TRP103      0.0810
    136  CE3       24.1240   -4.8750  -30.1610 C.ar  103  TRP103      0.0012
    137  CZ2       23.4720   -7.6220  -30.0820 C.ar  103  TRP103      0.0191
    138  CZ3       23.1370   -5.3500  -29.3210 C.ar  103  TRP103      0.0001
    139  CH2       22.8130   -6.7090  -29.2920 C.ar  103  TRP103      0.0015
@<TRIPOS>BOND
     1    90    89    1
     2    87    89   ar
     3    87    85   ar
     4    89    88   ar
     5    85    84   ar
     6    88    86   ar
     7     8     6   am
     8     7     6    2
     9    84    86   ar
    10    84    83    1
    11     6     5    1
    12     1     2    1
    13    83    80    1
    14    76    75    2
    15     5     2    1
    16    80    81    1
    17    80    79    1
    18     2     3    1
    19    78    77    1
    20    82    81    2
    21    75    79   am
    22    75    74    1
    23    77    74    1
    24    74    73    1
    25     3     4    2
    26     3     9   am
    27     9    10    1
    28    73    69   am
    29    18    16   ar
    30    18    19   ar
    31    16    14   ar
    32    97    95    1
    33    70    69    2
    34    69    68    1
    35    20    19    1
    36    10    13    1
    37    10    11    1
    38    19    17   ar
    39    91    92    1
    40    12    11    2
    41    14    13    1
    42    14    15   ar
    43    71    68    1
    44    71    72    1
    45    96    95    1
    46    95    92    1
    47    11    21   am
    48    68    67    1
    49    92    93    1
    50    17    15   ar
    51    21    22    1
    52    93    94    2
    53    22    23    1
    54    22    25    1
    55   113   111   ar
    56    23    24    2
    57   125   123   ar
    58   111   112   ar
    59   111   110    1
    60   110   109    1
    61    65    63   ar
    62    65    66   ar
    63   123   124   ar
    64   123   122    1
    65    63    61   ar
    66   109   106    1
    67    66    64   ar
    68   122   119    1
    69   105   106    1
    70   103   102    1
    71    58    59    2
    72    58    57    1
    73    61    60    1
    74    61    62   ar
    75   106   107    1
    76    98    99    1
    77    64    62   ar
    78    60    57    1
    79   120   119    1
    80   120   121    2
    81   119   118    1
    82    33    31   am
    83    26    27    1
    84   102    99    1
    85   102   104    1
    86    57    56    1
    87    99   100    1
    88   107   108    2
    89   107   114   am
    90   118   116   am
    91    31    32    2
    92    31    30    1
    93   114   115    1
    94    27    30    1
    95    27    28    1
    96   126   127    1
    97   100   101    2
    98   116   115    1
    99   116   117    2
   100   129   128    2
   101    29    28    2
   102   128   127    1
   103   127   130    1
   104    53    55   ar
   105    53    51   ar
   106   132   131   ar
   107   132   134   ar
   108   130   131    1
   109   131   133   ar
   110    50    51   ar
   111    50    48   ar
   112    55    54   ar
   113   134   135   ar
   114    51    49   ar
   115   133   135   ar
   116   133   136   ar
   117   135   137   ar
   118    48    47   ar
   119    54    52   ar
   120    49    47   ar
   121    49    52   ar
   122   136   138   ar
   123   137   139   ar
   124    41    39    1
   125    47    46    1
   126    34    35    1
   127   138   139   ar
   128    39    38    1
   129    38    35    1
   130    38    40    1
   131    35    36    1
   132    46    43    1
   133    44    43    1
   134    44    45    2
   135    43    42    1
   136    37    36    2
