@<TRIPOS>MOLECULE
tmp/3qg6A00.pdb
 109 106 0 0 0
SMALL
GASTEIGER

@<TRIPOS>ATOM
      1  N         15.5710  -20.8800  -32.3310 N.3    37  TYR37      -0.1241
      2  CA        16.2330  -19.5880  -32.2970 C.3    37  TYR37       0.1605
      3  C         16.6160  -19.2070  -30.8640 C.2    37  TYR37       0.2264
      4  O         16.0950  -18.2380  -30.3080 O.2    37  TYR37      -0.2867
      5  CB        15.3580  -18.5260  -32.9670 C.3    37  TYR37       0.0534
      6  CG        15.2060  -18.7640  -34.4480 C.ar   37  TYR37      -0.0201
      7  CD1       16.0050  -18.0950  -35.3670 C.ar   37  TYR37      -0.0009
      8  CD2       14.2840  -19.6900  -34.9330 C.ar   37  TYR37      -0.0009
      9  CE1       15.8710  -18.3170  -36.7290 C.ar   37  TYR37       0.0417
     10  CE2       14.1510  -19.9270  -36.2980 C.ar   37  TYR37       0.0417
     11  CZ        14.9460  -19.2370  -37.1910 C.ar   37  TYR37       0.1957
     12  OH        14.8070  -19.4790  -38.5380 O.3    37  TYR37      -0.2866
     13  N         20.0400  -18.2030  -28.9020 N.3    39  HIS39      -0.1241
     14  CA        21.3850  -17.7160  -29.2170 C.3    39  HIS39       0.1621
     15  C         22.1390  -17.3110  -27.9500 C.2    39  HIS39       0.2264
     16  O         21.5260  -17.1050  -26.8810 O.2    39  HIS39      -0.2867
     17  CB        21.2870  -16.5080  -30.1450 C.3    39  HIS39       0.0745
     18  CG        20.0800  -16.5100  -31.0210 C.ar   39  HIS39       0.0817
     19  ND1       19.9660  -17.3320  -32.1180 N.ar   39  HIS39      -0.2268
     20  CD2       18.9510  -15.7670  -30.9670 C.ar   39  HIS39       0.1154
     21  CE1       18.8030  -17.0950  -32.6990 C.ar   39  HIS39       0.1986
     22  NE2       18.1660  -16.1500  -32.0240 N.ar   39  HIS39      -0.2212
     23  N         25.1950  -14.5030  -26.6090 N.3    41  PHE41      -0.1241
     24  CA        26.0070  -13.3060  -26.8360 C.3    41  PHE41       0.1605
     25  C         27.0150  -13.1380  -25.6910 C.2    41  PHE41       0.2264
     26  O         26.7730  -13.6020  -24.5800 O.2    41  PHE41      -0.2867
     27  CB        25.1270  -12.0480  -26.9080 C.3    41  PHE41       0.0534
     28  CG        24.1840  -12.0100  -28.0790 C.ar   41  PHE41      -0.0203
     29  CD1       22.9260  -12.5880  -27.9950 C.ar   41  PHE41      -0.0042
     30  CD2       24.5490  -11.3730  -29.2660 C.ar   41  PHE41      -0.0042
     31  CE1       22.0590  -12.5540  -29.0840 C.ar   41  PHE41      -0.0003
     32  CE2       23.6840  -11.3370  -30.3650 C.ar   41  PHE41      -0.0003
     33  CZ        22.4430  -11.9260  -30.2710 C.ar   41  PHE41      -0.0000
     34  N         27.7290  -11.7350  -30.9250 N.3    51  LEU51      -0.1245
     35  CA        27.1010  -13.0390  -31.1130 C.3    51  LEU51       0.1561
     36  C         28.1460  -14.1500  -31.1110 C.2    51  LEU51       0.2260
     37  O         29.1130  -14.0830  -31.8560 O.2    51  LEU51      -0.2867
     38  CB        26.3090  -13.0680  -32.4220 C.3    51  LEU51       0.0270
     39  CG        25.5490  -14.3650  -32.7300 C.3    51  LEU51       0.0019
     40  CD1       24.4450  -14.6130  -31.7240 C.3    51  LEU51       0.0001
     41  CD2       24.9750  -14.3050  -34.1230 C.3    51  LEU51       0.0001
     42  N         24.3920  -19.2670  -32.2520 N.3    54  TYR54      -0.1227
     43  CA        23.0850  -18.8990  -32.7760 C.3    54  TYR54       0.1736
     44  C         22.3290  -20.1190  -33.3030 C.2    54  TYR54       0.2595
     45  O         22.9320  -21.1260  -33.6740 O.2    54  TYR54      -0.2718
     46  CB        23.2390  -17.8460  -33.8720 C.3    54  TYR54       0.0548
     47  CG        23.8770  -18.3510  -35.1430 C.ar   54  TYR54      -0.0200
     48  CD1       25.2270  -18.1530  -35.3960 C.ar   54  TYR54      -0.0009
     49  CD2       23.1290  -19.0120  -36.0970 C.ar   54  TYR54      -0.0009
     50  CE1       25.8130  -18.6080  -36.5690 C.ar   54  TYR54       0.0417
     51  CE2       23.7010  -19.4690  -37.2720 C.ar   54  TYR54       0.0417
     52  CZ        25.0440  -19.2620  -37.5030 C.ar   54  TYR54       0.1957
     53  OH        25.6270  -19.7210  -38.6620 O.3    54  TYR54      -0.2866
     54  N         21.0070  -20.0150  -33.3400 N.am   55  LYS55      -0.1980
     55  CA        20.1470  -21.1480  -33.6850 C.3    55  LYS55       0.1596
     56  C         20.6240  -22.3980  -32.9350 C.2    55  LYS55       0.2287
     57  O         20.8870  -23.4420  -33.5300 O.2    55  LYS55      -0.2864
     58  CB        20.0820  -21.3690  -35.2090 C.3    55  LYS55       0.0298
     59  CG        19.4450  -20.2140  -36.0070 C.3    55  LYS55       0.0038
     60  CD        19.0440  -20.6760  -37.3930 C.3    55  LYS55       0.0206
     61  CE        18.9790  -19.5390  -38.4000 C.3    55  LYS55       0.1093
     62  NZ        18.6930  -20.0400  -39.7710 N.3    55  LYS55      -0.1314
     63  N         29.1560  -18.4980  -34.5690 N.3    60  PHE60      -0.1241
     64  CA        29.2080  -17.3230  -35.4500 C.3    60  PHE60       0.1605
     65  C         30.6300  -17.1730  -36.0080 C.2    60  PHE60       0.2264
     66  O         31.5780  -17.7340  -35.4580 O.2    60  PHE60      -0.2867
     67  CB        28.7370  -16.0660  -34.6900 C.3    60  PHE60       0.0534
     68  CG        28.6240  -14.8100  -35.5270 C.ar   60  PHE60      -0.0203
     69  CD1       27.7510  -14.7430  -36.6170 C.ar   60  PHE60      -0.0042
     70  CD2       29.3700  -13.6800  -35.2000 C.ar   60  PHE60      -0.0042
     71  CE1       27.6450  -13.5810  -37.3900 C.ar   60  PHE60      -0.0003
     72  CE2       29.2700  -12.5040  -35.9680 C.ar   60  PHE60      -0.0003
     73  CZ        28.3990  -12.4610  -37.0650 C.ar   60  PHE60      -0.0000
     74  N         19.6330  -15.6320  -25.5940 N.3    94  SER94      -0.1217
     75  CA        18.6840  -14.8450  -26.3700 C.3    94  SER94       0.1889
     76  C         17.7490  -15.8110  -27.0570 C.2    94  SER94       0.2288
     77  O         18.1910  -16.8500  -27.5410 O.2    94  SER94      -0.2866
     78  CB        19.4410  -14.0290  -27.4280 C.3    94  SER94       0.2089
     79  OG        18.5840  -13.4120  -28.3830 O.3    94  SER94      -0.2183
     80  N         14.7610  -15.7650  -30.1270 N.3    96  THR96      -0.1218
     81  CA        14.0800  -14.9620  -31.1470 C.3    96  THR96       0.1862
     82  C         13.0230  -15.7630  -31.9260 C.2    96  THR96       0.2287
     83  O         12.6500  -15.3710  -33.0240 O.2    96  THR96      -0.2866
     84  CB        15.0810  -14.2390  -32.0790 C.3    96  THR96       0.1770
     85  OG1       15.7790  -15.1980  -32.8900 O.3    96  THR96      -0.2211
     86  CG2       16.0640  -13.3420  -31.2850 C.3    96  THR96       0.0375
     87  N         11.2310  -10.6580  -28.7810 N.3   101  TYR101     -0.1241
     88  CA        12.5190  -11.3050  -28.5420 C.3   101  TYR101      0.1605
     89  C         12.9510  -10.9450  -27.1260 C.2   101  TYR101      0.2264
     90  O         12.8270   -9.7970  -26.7130 O.2   101  TYR101     -0.2867
     91  CB        13.6070  -10.8430  -29.5420 C.3   101  TYR101      0.0534
     92  CG        13.2590  -10.9480  -31.0150 C.ar  101  TYR101     -0.0201
     93  CD1       12.3590  -11.8960  -31.4760 C.ar  101  TYR101     -0.0009
     94  CD2       13.8450  -10.0980  -31.9450 C.ar  101  TYR101     -0.0009
     95  CE1       12.0440  -11.9920  -32.8300 C.ar  101  TYR101      0.0417
     96  CE2       13.5260  -10.1790  -33.2960 C.ar  101  TYR101      0.0417
     97  CZ        12.6330  -11.1320  -33.7320 C.ar  101  TYR101      0.1957
     98  OH        12.3060  -11.2270  -35.0580 O.3   101  TYR101     -0.2866
     99  N         15.8590  -11.7390  -23.6400 N.3   103  PHE103     -0.1241
    100  CA        17.1950  -12.1070  -23.2070 C.3   103  PHE103      0.1605
    101  C         17.1670  -12.5740  -21.7770 C.2   103  PHE103      0.2264
    102  O         16.2850  -12.1840  -21.0040 O.2   103  PHE103     -0.2867
    103  CB        18.1000  -10.8830  -23.2540 C.3   103  PHE103      0.0534
    104  CG        18.3450  -10.3450  -24.6320 C.ar  103  PHE103     -0.0203
    105  CD1       19.4700  -10.7380  -25.3530 C.ar  103  PHE103     -0.0042
    106  CD2       17.4840   -9.4030  -25.1890 C.ar  103  PHE103     -0.0042
    107  CE1       19.7240  -10.2040  -26.6270 C.ar  103  PHE103     -0.0003
    108  CE2       17.7270   -8.8710  -26.4600 C.ar  103  PHE103     -0.0003
    109  CZ        18.8460   -9.2710  -27.1800 C.ar  103  PHE103     -0.0000
@<TRIPOS>BOND
     1    62    61    1
     2    53    52    1
     3    12    11    1
     4    61    60    1
     5    52    51   ar
     6    52    50   ar
     7    60    59    1
     8    71    73   ar
     9    71    69   ar
    10    51    49   ar
    11    11     9   ar
    12    11    10   ar
    13    73    72   ar
    14     9     7   ar
    15    69    68   ar
    16    50    48   ar
    17    10     8   ar
    18    49    47   ar
    19    65    66    2
    20    65    64    1
    21    59    58    1
    22    72    70   ar
    23    68    70   ar
    24    68    67    1
    25    64    67    1
    26    64    63    1
    27    48    47   ar
    28     7     6   ar
    29    58    55    1
    30    47    46    1
    31    98    97    1
    32     8     6   ar
    33     6     5    1
    34    41    39    1
    35    46    43    1
    36    97    96   ar
    37    97    95   ar
    38    55    54    1
    39    55    56    1
    40    45    44    2
    41    57    56    2
    42    54    44   am
    43    44    43    1
    44    96    94   ar
    45    83    82    2
    46     5     2    1
    47    85    84    1
    48    95    93   ar
    49    43    42    1
    50    39    38    1
    51    39    40    1
    52    21    19   ar
    53    21    22   ar
    54    38    35    1
    55     1     2    1
    56     2     3    1
    57    19    18   ar
    58    84    86    1
    59    84    81    1
    60    22    20   ar
    61    94    92   ar
    62    82    81    1
    63    37    36    2
    64    93    92   ar
    65    81    80    1
    66    35    36    1
    67    35    34    1
    68    18    20   ar
    69    18    17    1
    70    92    91    1
    71     3     4    2
    72    32    33   ar
    73    32    30   ar
    74    33    31   ar
    75    17    14    1
    76    91    88    1
    77    30    28   ar
    78    14    13    1
    79    14    15    1
    80    31    29   ar
    81    87    88    1
    82    88    89    1
    83    79    78    1
    84    28    29   ar
    85    28    27    1
    86    15    16    2
    87    77    76    2
    88    78    75    1
    89   109   107   ar
    90   109   108   ar
    91    89    90    2
    92    76    75    1
    93    27    24    1
    94    24    23    1
    95    24    25    1
    96   107   105   ar
    97   108   106   ar
    98    75    74    1
    99    25    26    2
   100   105   104   ar
   101   106   104   ar
   102   104   103    1
   103    99   100    1
   104   103   100    1
   105   100   101    1
   106   101   102    2
