@<TRIPOS>MOLECULE
tmp/3qg7B00.pdb
 98 95 0 0 0
SMALL
GASTEIGER

@<TRIPOS>ATOM
      1  N          5.9190   69.6660   -2.5480 N.3    37  TYR37      -0.1241
      2  CA         6.3620   68.3050   -2.2430 C.3    37  TYR37       0.1605
      3  C          5.3330   67.5960   -1.3990 C.2    37  TYR37       0.2264
      4  O          5.5700   67.2870   -0.2400 O.2    37  TYR37      -0.2867
      5  CB         7.7220   68.3080   -1.5470 C.3    37  TYR37       0.0534
      6  CG         8.8040   68.9300   -2.4120 C.ar   37  TYR37      -0.0201
      7  CD1        9.5850   68.1470   -3.2470 C.ar   37  TYR37      -0.0009
      8  CD2        9.0110   70.3030   -2.4210 C.ar   37  TYR37      -0.0009
      9  CE1       10.5570   68.7090   -4.0480 C.ar   37  TYR37       0.0417
     10  CE2        9.9820   70.8740   -3.2220 C.ar   37  TYR37       0.0417
     11  CZ        10.7510   70.0700   -4.0350 C.ar   37  TYR37       0.1957
     12  OH        11.7210   70.6210   -4.8390 O.3    37  TYR37      -0.2866
     13  N          2.9870   64.1640   -1.5300 N.3    39  HIS39      -0.1241
     14  CA         3.0960   62.8710   -2.2230 C.3    39  HIS39       0.1621
     15  C          2.1060   61.8430   -1.7130 C.2    39  HIS39       0.2264
     16  O          1.5880   61.9560   -0.6100 O.2    39  HIS39      -0.2867
     17  CB         4.5240   62.3210   -2.1020 C.3    39  HIS39       0.0745
     18  CG         5.5680   63.3890   -1.9900 C.ar   39  HIS39       0.0817
     19  ND1        6.0620   64.0630   -3.0850 N.ar   39  HIS39      -0.2268
     20  CD2        6.1870   63.9240   -0.9100 C.ar   39  HIS39       0.1154
     21  CE1        6.9490   64.9580   -2.6850 C.ar   39  HIS39       0.1986
     22  NE2        7.0430   64.8950   -1.3700 N.ar   39  HIS39      -0.2212
     23  N          1.0450   57.6360   -1.2600 N.3    41  PHE41      -0.1241
     24  CA         1.4220   56.2290   -1.1730 C.3    41  PHE41       0.1605
     25  C          0.2310   55.3390   -0.9330 C.2    41  PHE41       0.2264
     26  O         -0.7990   55.7460   -0.3880 O.2    41  PHE41      -0.2867
     27  CB         2.4130   55.9710   -0.0350 C.3    41  PHE41       0.0534
     28  CG         3.5530   56.9340    0.0190 C.ar   41  PHE41      -0.0203
     29  CD1        3.3850   58.1880    0.5710 C.ar   41  PHE41      -0.0042
     30  CD2        4.7990   56.5690   -0.4440 C.ar   41  PHE41      -0.0042
     31  CE1        4.4290   59.0700    0.6350 C.ar   41  PHE41      -0.0003
     32  CE2        5.8530   57.4430   -0.3840 C.ar   41  PHE41      -0.0003
     33  CZ         5.6710   58.6960    0.1560 C.ar   41  PHE41      -0.0000
     34  N          4.9630   54.2550   -3.4800 N.3    51  LEU51      -0.1245
     35  CA         4.7600   55.5690   -4.0780 C.3    51  LEU51       0.1561
     36  C          3.8740   55.4890   -5.3040 C.2    51  LEU51       0.2260
     37  O          4.1200   54.7150   -6.2240 O.2    51  LEU51      -0.2867
     38  CB         6.1090   56.2070   -4.4400 C.3    51  LEU51       0.0270
     39  CG         6.0620   57.6600   -4.9200 C.3    51  LEU51       0.0019
     40  CD1        5.4840   58.5700   -3.8400 C.3    51  LEU51       0.0001
     41  CD2        7.4440   58.1110   -5.3570 C.3    51  LEU51       0.0001
     42  N          3.9350   61.7390   -6.6920 N.3    54  TYR54      -0.1227
     43  CA         4.9080   62.6230   -6.0520 C.3    54  TYR54       0.1736
     44  C          4.8230   64.0330   -6.6110 C.2    54  TYR54       0.2595
     45  O          4.3960   64.2600   -7.7390 O.2    54  TYR54      -0.2718
     46  CB         6.3330   62.0620   -6.1830 C.3    54  TYR54       0.0548
     47  CG         6.8880   62.1070   -7.5890 C.ar   54  TYR54      -0.0200
     48  CD1        6.6490   61.0740   -8.4850 C.ar   54  TYR54      -0.0009
     49  CD2        7.6480   63.1900   -8.0200 C.ar   54  TYR54      -0.0009
     50  CE1        7.1490   61.1190   -9.7610 C.ar   54  TYR54       0.0417
     51  CE2        8.1490   63.2430   -9.2890 C.ar   54  TYR54       0.0417
     52  CZ         7.9000   62.2020  -10.1590 C.ar   54  TYR54       0.1957
     53  OH         8.3930   62.2450  -11.4390 O.3    54  TYR54      -0.2866
     54  N          5.2200   64.9770   -5.7770 N.am   55  LYS55      -0.1980
     55  CA         5.1600   66.3990   -6.1060 C.3    55  LYS55       0.1596
     56  C          3.7920   66.7830   -6.6500 C.2    55  LYS55       0.2287
     57  O          3.6610   67.5410   -7.6120 O.2    55  LYS55      -0.2864
     58  CB         6.2700   66.7950   -7.0800 C.3    55  LYS55       0.0298
     59  CG         7.6610   66.7060   -6.4740 C.3    55  LYS55       0.0038
     60  CD         8.7000   67.3760   -7.3570 C.3    55  LYS55       0.0206
     61  CE         9.2890   66.4060   -8.3730 C.3    55  LYS55       0.1093
     62  NZ        10.1140   67.1330   -9.3920 N.3    55  LYS55      -0.1314
     63  N          1.8300   62.4320    2.2700 N.3    94  SER94      -0.1217
     64  CA         2.9900   62.9390    3.0100 C.3    94  SER94       0.1889
     65  C          3.4670   64.2700    2.4630 C.2    94  SER94       0.2288
     66  O          3.1620   64.6500    1.3280 O.2    94  SER94      -0.2866
     67  CB         4.1380   61.9280    2.9770 C.3    94  SER94       0.2089
     68  OG         4.8570   62.0060    1.7520 O.3    94  SER94      -0.2183
     69  N          7.0600   66.9020    2.3270 N.3    96  THR96      -0.1218
     70  CA         8.5100   67.0290    2.4710 C.3    96  THR96       0.1862
     71  C          9.0020   68.4210    2.1140 C.2    96  THR96       0.2287
     72  O         10.1640   68.6360    1.7890 O.2    96  THR96      -0.2866
     73  CB         9.2500   65.9840    1.6310 C.3    96  THR96       0.1770
     74  OG1        8.8950   66.1410    0.2550 O.3    96  THR96      -0.2211
     75  CG2        8.8900   64.5780    2.0970 C.3    96  THR96       0.0375
     76  N          9.4510   65.8110    8.1890 N.3   101  TYR101     -0.1241
     77  CA         8.5540   65.2000    7.2080 C.3   101  TYR101      0.1605
     78  C          7.4610   64.4590    7.9500 C.2   101  TYR101      0.2264
     79  O          7.7210   63.7210    8.9030 O.2   101  TYR101     -0.2867
     80  CB         9.2970   64.2470    6.2610 C.3   101  TYR101      0.0534
     81  CG        10.3920   64.9300    5.4910 C.ar  101  TYR101     -0.0201
     82  CD1       10.3070   66.2860    5.2210 C.ar  101  TYR101     -0.0009
     83  CD2       11.5110   64.2320    5.0530 C.ar  101  TYR101     -0.0009
     84  CE1       11.2960   66.9350    4.5260 C.ar  101  TYR101      0.0417
     85  CE2       12.5100   64.8730    4.3520 C.ar  101  TYR101      0.0417
     86  CZ        12.3960   66.2280    4.0930 C.ar  101  TYR101      0.1957
     87  OH        13.3820   66.8910    3.4010 O.3   101  TYR101     -0.2866
     88  N          3.4580   62.4250    7.7960 N.3   103  PHE103     -0.1241
     89  CA         2.4610   61.6250    7.0860 C.3   103  PHE103      0.1605
     90  C          1.0620   61.8400    7.6140 C.2   103  PHE103      0.2264
     91  O          0.8470   62.0470    8.8020 O.2   103  PHE103     -0.2867
     92  CB         2.7630   60.1360    7.2320 C.3   103  PHE103      0.0534
     93  CG         4.0730   59.7140    6.6610 C.ar  103  PHE103     -0.0203
     94  CD1        4.1620   59.2850    5.3480 C.ar  103  PHE103     -0.0042
     95  CD2        5.2130   59.7110    7.4460 C.ar  103  PHE103     -0.0042
     96  CE1        5.3670   58.8770    4.8200 C.ar  103  PHE103     -0.0003
     97  CE2        6.4220   59.3040    6.9280 C.ar  103  PHE103     -0.0003
     98  CZ         6.4970   58.8810    5.6100 C.ar  103  PHE103     -0.0000
@<TRIPOS>BOND
     1    53    52    1
     2    52    50   ar
     3    52    51   ar
     4    50    48   ar
     5    62    61    1
     6    51    49   ar
     7    48    47   ar
     8    61    60    1
     9    49    47   ar
    10    45    44    2
    11    57    56    2
    12    47    46    1
    13    60    59    1
    14    58    59    1
    15    58    55    1
    16    42    43    1
    17    56    55    1
    18    44    43    1
    19    44    54   am
    20    37    36    2
    21    46    43    1
    22    55    54    1
    23    41    39    1
    24    36    35    1
    25    39    38    1
    26    39    40    1
    27    12    11    1
    28    38    35    1
    29    35    34    1
    30     9    11   ar
    31     9     7   ar
    32    11    10   ar
    33     7     6   ar
    34    10     8   ar
    35    19    21   ar
    36    19    18   ar
    37    21    22   ar
    38     1     2    1
    39     8     6   ar
    40     6     5    1
    41     2     5    1
    42     2     3    1
    43    14    17    1
    44    14    15    1
    45    14    13    1
    46    17    18    1
    47    18    20   ar
    48    15    16    2
    49     3     4    2
    50    22    20   ar
    51    23    24    1
    52    24    25    1
    53    24    27    1
    54    25    26    2
    55    30    32   ar
    56    30    28   ar
    57    32    33   ar
    58    27    28    1
    59    28    29   ar
    60    33    31   ar
    61    74    73    1
    62    29    31   ar
    63    66    65    2
    64    73    75    1
    65    73    70    1
    66    68    67    1
    67    72    71    2
    68    71    70    1
    69    63    64    1
    70    69    70    1
    71    65    64    1
    72    67    64    1
    73    87    86    1
    74    86    85   ar
    75    86    84   ar
    76    85    83   ar
    77    84    82   ar
    78    96    94   ar
    79    96    98   ar
    80    83    81   ar
    81    82    81   ar
    82    94    93   ar
    83    81    80    1
    84    98    97   ar
    85    80    77    1
    86    93    92    1
    87    93    95   ar
    88    97    95   ar
    89    89    92    1
    90    89    90    1
    91    89    88    1
    92    77    78    1
    93    77    76    1
    94    90    91    2
    95    78    79    2
