@<TRIPOS>MOLECULE
tmp/3qg7A00.pdb
 80 78 0 0 0
SMALL
GASTEIGER

@<TRIPOS>ATOM
      1  N         20.0480   60.2560    5.8480 N.3    52  ILE52      -0.1245
      2  CA        21.4510   60.5400    5.6050 C.3    52  ILE52       0.1561
      3  C         21.6010   60.8760    4.1260 C.2    52  ILE52       0.2260
      4  O         21.2110   60.1060    3.2390 O.2    52  ILE52      -0.2867
      5  CB        22.4070   59.3890    6.0680 C.3    52  ILE52       0.0252
      6  CG1       23.8620   59.8210    5.8750 C.3    52  ILE52       0.0019
      7  CG2       22.1290   58.0570    5.3500 C.3    52  ILE52       0.0019
      8  CD1       24.8500   59.0790    6.7600 C.3    52  ILE52       0.0001
      9  N         26.8200   62.0540    3.3330 N.3    56  GLY56      -0.1210
     10  CA        27.0920   61.4040    4.6150 C.3    56  GLY56       0.1956
     11  C         26.6530   62.2770    5.7680 C.2    56  GLY56       0.2613
     12  O         26.9430   62.0100    6.9310 O.2    56  GLY56      -0.2717
     13  N         25.9570   63.3440    5.4170 N.am   57  THR57      -0.1938
     14  CA        25.4090   64.2660    6.4120 C.3    57  THR57       0.2028
     15  C         23.9630   63.9230    6.6840 C.2    57  THR57       0.2642
     16  O         23.2390   63.4530    5.7980 O.2    57  THR57      -0.2714
     17  CB        25.5400   65.7360    5.9630 C.3    57  THR57       0.1808
     18  OG1       24.9950   65.8950    4.6510 O.3    57  THR57      -0.2208
     19  CG2       27.0000   66.1630    5.9440 C.3    57  THR57       0.0379
     20  N         23.5640   64.1520    7.9310 N.am   58  THR58      -0.1950
     21  CA        22.2500   63.7160    8.4370 C.3    58  THR58       0.1897
     22  C         21.2980   64.8220    8.8530 C.2    58  THR58       0.2313
     23  O         21.6890   65.8970    9.2950 O.2    58  THR58      -0.2863
     24  CB        22.4030   62.7820    9.6500 C.3    58  THR58       0.1794
     25  OG1       23.0440   63.4880   10.7150 O.3    58  THR58      -0.2208
     26  CG2       23.2050   61.5450    9.2870 C.3    58  THR58       0.0378
     27  N         17.5360   65.0190   11.0550 N.3    60  TYR60      -0.1241
     28  CA        16.6480   64.3040   11.9830 C.3    60  TYR60       0.1605
     29  C         15.3590   65.0220   12.3450 C.2    60  TYR60       0.2264
     30  O         15.2190   66.2460   12.2410 O.2    60  TYR60      -0.2867
     31  CB        17.3780   64.0160   13.2890 C.3    60  TYR60       0.0534
     32  CG        18.6670   63.2370   13.1700 C.ar   60  TYR60      -0.0201
     33  CD1       18.7000   61.9860   12.5850 C.ar   60  TYR60      -0.0009
     34  CD2       19.8470   63.7420   13.7040 C.ar   60  TYR60      -0.0009
     35  CE1       19.8820   61.2700   12.5160 C.ar   60  TYR60       0.0417
     36  CE2       21.0230   63.0410   13.6380 C.ar   60  TYR60       0.0417
     37  CZ        21.0410   61.8060   13.0450 C.ar   60  TYR60       0.1957
     38  OH        22.2260   61.1110   12.9760 O.3    60  TYR60      -0.2866
     39  N         18.6220   58.7410   18.7790 N.3    68  PHE68      -0.1227
     40  CA        19.1000   57.9870   17.6310 C.3    68  PHE68       0.1736
     41  C         19.9620   58.7740   16.6950 C.2    68  PHE68       0.2596
     42  O         20.0540   59.9930   16.7410 O.2    68  PHE68      -0.2718
     43  CB        17.9310   57.4150   16.8350 C.3    68  PHE68       0.0547
     44  CG        17.0930   58.4530   16.1480 C.ar   68  PHE68      -0.0202
     45  CD1       16.0310   59.0600   16.8120 C.ar   68  PHE68      -0.0042
     46  CD2       17.3410   58.8050   14.8310 C.ar   68  PHE68      -0.0042
     47  CE1       15.2460   60.0100   16.1790 C.ar   68  PHE68      -0.0003
     48  CE2       16.5560   59.7560   14.1900 C.ar   68  PHE68      -0.0003
     49  CZ        15.5120   60.3600   14.8670 C.ar   68  PHE68      -0.0000
     50  N         20.5910   58.0080   15.8330 N.am   69  SER69      -0.1938
     51  CA        21.3730   58.5550   14.7360 C.3    69  SER69       0.2055
     52  C         21.3490   57.6340   13.5490 C.2    69  SER69       0.2643
     53  O         20.8720   56.5010   13.6170 O.2    69  SER69      -0.2714
     54  CB        22.8090   58.8140   15.1610 C.3    69  SER69       0.2130
     55  OG        23.2780   57.7800   16.0010 O.3    69  SER69      -0.2179
     56  N         21.8580   58.1680   12.4580 N.am   70  ILE70      -0.1963
     57  CA        21.9680   57.4360   11.2070 C.3    70  ILE70       0.1727
     58  C         23.3820   57.5160   10.6820 C.2    70  ILE70       0.2616
     59  O         23.9990   58.5740   10.6110 O.2    70  ILE70      -0.2715
     60  CB        20.9940   57.9620   10.1380 C.3    70  ILE70       0.0290
     61  CG1       19.5750   58.0650   10.6990 C.3    70  ILE70       0.0022
     62  CG2       21.0060   57.0560    8.9150 C.3    70  ILE70       0.0023
     63  CD1       18.5440   58.5120    9.6750 C.3    70  ILE70       0.0001
     64  N         23.8850   56.3480   10.3420 N.am   71  THR71      -0.1951
     65  CA        25.2320   56.2100    9.8060 C.3    71  THR71       0.1897
     66  C         25.2490   55.2940    8.5960 C.2    71  THR71       0.2313
     67  O         24.2650   54.6310    8.2620 O.2    71  THR71      -0.2863
     68  CB        26.1810   55.6410   10.8630 C.3    71  THR71       0.1794
     69  OG1       25.8190   54.2840   11.1400 O.3    71  THR71      -0.2208
     70  CG2       26.1050   56.4450   12.1450 C.3    71  THR71       0.0378
     71  N         19.4850   54.3690   20.7460 N.3    84  HIS84      -0.1241
     72  CA        20.4490   54.5090   21.8440 C.3    84  HIS84       0.1621
     73  C         19.9770   53.9360   23.1690 C.2    84  HIS84       0.2264
     74  O         20.7780   53.4330   23.9570 O.2    84  HIS84      -0.2867
     75  CB        20.8750   55.9660   22.0040 C.3    84  HIS84       0.0745
     76  CG        21.7360   56.4480   20.8790 C.ar   84  HIS84       0.0817
     77  ND1       21.6900   57.7400   20.3940 N.ar   84  HIS84      -0.2268
     78  CD2       22.6490   55.7940   20.1230 C.ar   84  HIS84       0.1154
     79  CE1       22.5500   57.8630   19.3970 C.ar   84  HIS84       0.1986
     80  NE2       23.1410   56.6950   19.2100 N.ar   84  HIS84      -0.2212
@<TRIPOS>BOND
     1     4     3    2
     2     9    10    1
     3     3     2    1
     4    10    11    1
     5    18    17    1
     6     7     5    1
     7    13    11   am
     8    13    14    1
     9     2     1    1
    10     2     5    1
    11    11    12    2
    12    16    15    2
    13     6     5    1
    14     6     8    1
    15    19    17    1
    16    17    14    1
    17    14    15    1
    18    15    20   am
    19    20    21    1
    20    67    66    2
    21    21    22    1
    22    21    24    1
    23    66    65    1
    24    22    23    2
    25    62    60    1
    26    26    24    1
    27    24    25    1
    28    63    61    1
    29    65    64    1
    30    65    68    1
    31    60    61    1
    32    60    57    1
    33    64    58   am
    34    59    58    2
    35    58    57    1
    36    68    69    1
    37    68    70    1
    38    27    28    1
    39    57    56    1
    40    28    29    1
    41    28    31    1
    42    30    29    2
    43    56    52   am
    44    35    33   ar
    45    35    37   ar
    46    33    32   ar
    47    38    37    1
    48    37    36   ar
    49    32    31    1
    50    32    34   ar
    51    52    53    2
    52    52    51    1
    53    36    34   ar
    54    48    46   ar
    55    48    49   ar
    56    51    54    1
    57    51    50    1
    58    46    44   ar
    59    49    47   ar
    60    54    55    1
    61    50    41   am
    62    44    45   ar
    63    44    43    1
    64    47    45   ar
    65    41    42    2
    66    41    40    1
    67    43    40    1
    68    40    39    1
    69    80    79   ar
    70    80    78   ar
    71    79    77   ar
    72    78    76   ar
    73    77    76   ar
    74    71    72    1
    75    76    75    1
    76    72    75    1
    77    72    73    1
    78    73    74    2
