@<TRIPOS>MOLECULE
tmp/3qgdB01.pdb
 210 203 0 0 0
SMALL
GASTEIGER

@<TRIPOS>ATOM
      1  N         22.2560   -3.4220   56.7500 N.3   152  VAL152     -0.1231
      2  CA        21.7300   -2.7680   57.9610 C.3   152  VAL152      0.1692
      3  C         22.8080   -2.1370   58.8600 C.2   152  VAL152      0.2592
      4  O         22.4890   -1.2270   59.6280 O.2   152  VAL152     -0.2718
      5  CB        20.6780   -3.6020   58.7630 C.3   152  VAL152      0.0266
      6  CG1       19.5340   -4.0830   57.8710 C.3   152  VAL152      0.0020
      7  CG2       21.3240   -4.7670   59.5010 C.3   152  VAL152      0.0020
      8  N         24.0680   -2.6020   58.7410 N.am  153  SER153     -0.1952
      9  CA        25.2130   -2.1060   59.5100 C.3   153  SER153      0.1924
     10  C         25.9310   -0.9280   58.8500 C.2   153  SER153      0.2314
     11  O         26.5750   -0.1390   59.5500 O.2   153  SER153     -0.2863
     12  CB        26.2380   -3.2180   59.7240 C.3   153  SER153      0.2116
     13  OG        25.6740   -4.3630   60.3390 O.3   153  SER153     -0.2180
     14  N         21.8500    9.9090   61.5560 N.3   164  TYR164     -0.1227
     15  CA        21.6750    8.5300   62.0090 C.3   164  TYR164      0.1736
     16  C         22.0690    8.4280   63.4960 C.2   164  TYR164      0.2596
     17  O         23.2540    8.4510   63.8220 O.2   164  TYR164     -0.2718
     18  CB        22.4850    7.5490   61.1430 C.3   164  TYR164      0.0548
     19  CG        22.2480    6.1130   61.5480 C.ar  164  TYR164     -0.0200
     20  CD1       20.9600    5.6070   61.6700 C.ar  164  TYR164     -0.0009
     21  CD2       23.3100    5.2650   61.8370 C.ar  164  TYR164     -0.0009
     22  CE1       20.7340    4.2960   62.0740 C.ar  164  TYR164      0.0417
     23  CE2       23.0960    3.9370   62.1990 C.ar  164  TYR164      0.0417
     24  CZ        21.8080    3.4570   62.3150 C.ar  164  TYR164      0.1957
     25  OH        21.5920    2.1570   62.7060 O.3   164  TYR164     -0.2866
     26  N         21.0710    8.3860   64.3700 N.am  165  GLY165     -0.1942
     27  CA        21.2650    8.3910   65.8100 C.3   165  GLY165      0.2014
     28  C         22.0000    7.2190   66.4230 C.2   165  GLY165      0.2639
     29  O         22.6450    7.4040   67.4630 O.2   165  GLY165     -0.2714
     30  N         21.9100    6.0090   65.8240 N.am  166  PHE166     -0.1959
     31  CA        22.5690    4.8210   66.3960 C.3   166  PHE166      0.1771
     32  C         24.0930    4.7290   66.3070 C.2   166  PHE166      0.2619
     33  O         24.6940    3.7880   66.8490 O.2   166  PHE166     -0.2715
     34  CB        21.8810    3.5060   65.9950 C.3   166  PHE166      0.0574
     35  CG        20.4440    3.3970   66.4550 C.ar  166  PHE166     -0.0200
     36  CD1       20.1320    3.2810   67.8120 C.ar  166  PHE166     -0.0042
     37  CD2       19.4110    3.3590   65.5350 C.ar  166  PHE166     -0.0042
     38  CE1       18.7970    3.1650   68.2380 C.ar  166  PHE166     -0.0003
     39  CE2       18.0860    3.2290   65.9570 C.ar  166  PHE166     -0.0003
     40  CZ        17.7830    3.1430   67.3080 C.ar  166  PHE166     -0.0000
     41  N         24.7200    5.6940   65.6480 N.am  167  GLN167     -0.1963
     42  CA        26.1840    5.7450   65.5480 C.3   167  GLN167      0.1733
     43  C         26.7600    6.4050   66.8160 C.2   167  GLN167      0.2616
     44  O         27.9730    6.3740   67.0210 O.2   167  GLN167     -0.2715
     45  CB        26.6210    6.5280   64.2900 C.3   167  GLN167      0.0408
     46  CG        26.3550    8.0190   64.3980 C.3   167  GLN167      0.0908
     47  CD        26.6010    8.7530   63.1230 C.2   167  GLN167      0.2608
     48  OE1       27.7450    8.9890   62.7180 O.2   167  GLN167     -0.2717
     49  NE2       25.5310    9.1800   62.4960 N.am  167  GLN167     -0.0878
     50  N         25.8830    7.0420   67.6330 N.am  168  TYR168     -0.1960
     51  CA        26.2920    7.8140   68.7990 C.3   168  TYR168      0.1771
     52  C         26.1720    7.1290   70.1240 C.2   168  TYR168      0.2620
     53  O         25.1950    6.4240   70.3950 O.2   168  TYR168     -0.2715
     54  CB        25.5360    9.1570   68.8730 C.3   168  TYR168      0.0574
     55  CG        25.6390   10.0210   67.6390 C.ar  168  TYR168     -0.0198
     56  CD1       26.8730   10.4560   67.1700 C.ar  168  TYR168     -0.0009
     57  CD2       24.5010   10.4830   66.9950 C.ar  168  TYR168     -0.0009
     58  CE1       26.9720   11.2820   66.0530 C.ar  168  TYR168      0.0417
     59  CE2       24.5870   11.3150   65.8810 C.ar  168  TYR168      0.0417
     60  CZ        25.8250   11.7160   65.4190 C.ar  168  TYR168      0.1957
     61  OH        25.9240   12.5250   64.3210 O.3   168  TYR168     -0.2866
     62  N         27.1480    7.4220   70.9890 N.am  169  SER169     -0.1936
     63  CA        27.1310    7.0580   72.4000 C.3   169  SER169      0.2040
     64  C         26.2710    8.1820   73.0590 C.2   169  SER169      0.2485
     65  O         26.1040    9.2160   72.4140 O.2   169  SER169     -0.2729
     66  CB        28.5460    7.1090   72.9680 C.3   169  SER169      0.2129
     67  OG        29.0680    8.4310   72.9520 O.3   169  SER169     -0.2179
     68  N         25.7400    8.0740   74.3080 N.am  170  PRO170     -0.2726
     69  CA        24.9930    9.2180   74.8680 C.3   170  PRO170      0.1402
     70  C         25.7870   10.5420   74.8850 C.2   170  PRO170      0.2269
     71  O         25.1860   11.6000   74.6420 O.2   170  PRO170     -0.2865
     72  CB        24.5990    8.7460   76.2720 C.3   170  PRO170      0.0296
     73  CG        24.6060    7.2540   76.1720 C.3   170  PRO170      0.0237
     74  CD        25.7430    6.9370   75.2530 C.3   170  PRO170      0.0939
     75  N         25.7320   11.9520   71.4060 N.3   173  ARG173     -0.1245
     76  CA        24.3690   12.4200   71.1410 C.3   173  ARG173      0.1563
     77  C         24.1790   13.8070   71.7790 C.2   173  ARG173      0.2260
     78  O         23.6580   14.7090   71.1130 O.2   173  ARG173     -0.2867
     79  CB        23.3090   11.4270   71.6560 C.3   173  ARG173      0.0307
     80  CG        21.8760   11.9350   71.5040 C.3   173  ARG173      0.0489
     81  CD        20.8100   10.9780   72.0300 C.3   173  ARG173      0.2205
     82  NE        19.4630   11.5220   71.8140 N.pl3 173  ARG173     -0.0865
     83  CZ        18.6950   11.2240   70.7700 C.cat 173  ARG173      0.5346
     84  NH1       19.1150   10.3610   69.8520 N.pl3 173  ARG173      0.1354
     85  NH2       17.5070   11.7990   70.6270 N.pl3 173  ARG173      0.1354
     86  N         14.8340   -1.8230   62.7620 N.3   261  SER261     -0.1217
     87  CA        15.5040   -0.5950   63.1780 C.3   261  SER261      0.1889
     88  C         15.9630    0.2600   61.9860 C.2   261  SER261      0.2288
     89  O         15.6480    1.4520   61.9480 O.2   261  SER261     -0.2866
     90  CB        16.6730   -0.9130   64.1050 C.3   261  SER261      0.2089
     91  OG        17.2840    0.2800   64.5610 O.3   261  SER261     -0.2183
     92  N         16.3410    7.9630   65.5270 N.3   289  CYS289     -0.1235
     93  CA        16.5940    6.6480   66.1560 C.3   289  CYS289      0.1677
     94  C         15.3150    5.8660   65.9880 C.2   289  CYS289      0.2270
     95  O         14.4200    6.0320   66.8130 O.2   289  CYS289     -0.2867
     96  CB        16.9290    6.7950   67.6350 C.3   289  CYS289      0.0956
     97  SG        18.5630    7.4700   67.9500 S.3   289  CYS289     -0.0801
     98  N         14.1980   10.3950   72.7530 N.3   339  CYS339     -0.1235
     99  CA        14.6810    9.0830   73.2040 C.3   339  CYS339      0.1677
    100  C         14.4460    9.0040   74.7320 C.2   339  CYS339      0.2270
    101  O         15.3290    8.5810   75.4930 O.2   339  CYS339     -0.2867
    102  CB        16.1390    8.8260   72.8090 C.3   339  CYS339      0.0956
    103  SG        16.3560    8.3080   71.0850 S.3   339  CYS339     -0.0801
    104  N         14.6010   11.2320   76.8510 N.3   341  SER341     -0.1217
    105  CA        15.6320   11.9910   77.5380 C.3   341  SER341      0.1889
    106  C         15.6650   13.4680   77.2660 C.2   341  SER341      0.2288
    107  O         15.2410   13.9300   76.2150 O.2   341  SER341     -0.2866
    108  CB        16.9940   11.4050   77.1920 C.3   341  SER341      0.2089
    109  OG        17.0190   10.0140   77.4550 O.3   341  SER341     -0.2183
    110  N         22.8140   13.7580   79.2400 N.3   357  LEU357     -0.1245
    111  CA        21.4600   13.3030   79.0110 C.3   357  LEU357      0.1561
    112  C         20.8830   12.6620   80.2780 C.2   357  LEU357      0.2260
    113  O         21.5320   11.8320   80.9250 O.2   357  LEU357     -0.2867
    114  CB        21.5690   12.2780   77.8950 C.3   357  LEU357      0.0270
    115  CG        20.5610   12.3240   76.7890 C.3   357  LEU357      0.0019
    116  CD1       20.5640   13.6370   76.0470 C.3   357  LEU357      0.0001
    117  CD2       20.9010   11.2810   75.8070 C.3   357  LEU357      0.0001
    118  N         24.5470    2.1710   82.5140 N.3   386  ILE386     -0.1231
    119  CA        25.3750    2.4170   81.3360 C.3   386  ILE386      0.1692
    120  C         24.9520    3.7050   80.5860 C.2   386  ILE386      0.2592
    121  O         25.7880    4.5760   80.3370 O.2   386  ILE386     -0.2718
    122  CB        25.3810    1.1540   80.4330 C.3   386  ILE386      0.0266
    123  CG1       26.2100    0.0210   81.1030 C.3   386  ILE386      0.0019
    124  CG2       25.9020    1.4560   79.0000 C.3   386  ILE386      0.0020
    125  CD1       25.9210   -1.3760   80.6570 C.3   386  ILE386      0.0001
    126  N         23.6620    3.8310   80.2680 N.am  387  MET387     -0.1965
    127  CA        23.1380    4.9490   79.4920 C.3   387  MET387      0.1736
    128  C         23.0050    6.2580   80.2340 C.2   387  MET387      0.2616
    129  O         23.1540    7.3170   79.6130 O.2   387  MET387     -0.2715
    130  CB        21.8240    4.5570   78.7840 C.3   387  MET387      0.0427
    131  CG        22.0000    3.3920   77.7960 C.3   387  MET387      0.0599
    132  SD        23.2190    3.6740   76.4470 S.3   387  MET387     -0.1393
    133  CE        22.1940    4.6740   75.2720 C.3   387  MET387      0.0692
    134  N         22.6930    6.1920   81.5360 N.am  388  TYR388     -0.1974
    135  CA        22.5090    7.3650   82.3670 C.3   388  TYR388      0.1639
    136  C         23.5540    7.5130   83.4750 C.2   388  TYR388      0.2290
    137  O         23.3070    8.1820   84.4690 O.2   388  TYR388     -0.2864
    138  CB        21.0850    7.4250   82.9040 C.3   388  TYR388      0.0560
    139  CG        20.0530    7.5360   81.8190 C.ar  388  TYR388     -0.0198
    140  CD1       19.8480    8.7370   81.1450 C.ar  388  TYR388     -0.0009
    141  CD2       19.2870    6.4300   81.4420 C.ar  388  TYR388     -0.0009
    142  CE1       18.9030    8.8390   80.1340 C.ar  388  TYR388      0.0417
    143  CE2       18.3310    6.5240   80.4400 C.ar  388  TYR388      0.0417
    144  CZ        18.1440    7.7310   79.7920 C.ar  388  TYR388      0.1957
    145  OH        17.2150    7.8050   78.8040 O.3   388  TYR388     -0.2866
    146  N         20.1620   -2.5280   75.0480 N.3   420  ILE420     -0.1231
    147  CA        20.2080   -1.0810   74.8150 C.3   420  ILE420      0.1692
    148  C         19.5500   -0.8140   73.4410 C.2   420  ILE420      0.2592
    149  O         20.1860   -1.0230   72.3900 O.2   420  ILE420     -0.2718
    150  CB        21.6470   -0.4530   74.9480 C.3   420  ILE420      0.0266
    151  CG1       22.3990   -0.7920   76.2780 C.3   420  ILE420      0.0019
    152  CG2       21.6620    1.0350   74.5840 C.3   420  ILE420      0.0020
    153  CD1       22.0940   -0.1520   77.5720 C.3   420  ILE420      0.0001
    154  N         18.2630   -0.3770   73.4780 N.am  421  TYR421     -0.1962
    155  CA        17.3800   -0.0680   72.3370 C.3   421  TYR421      0.1774
    156  C         17.0260   -1.2930   71.4850 C.2   421  TYR421      0.2659
    157  O         15.8420   -1.5670   71.2740 O.2   421  TYR421     -0.2711
    158  CB        17.8510    1.1670   71.5040 C.3   421  TYR421      0.0574
    159  CG        17.5340    2.4750   72.2000 C.ar  421  TYR421     -0.0198
    160  CD1       16.3300    3.1350   71.9690 C.ar  421  TYR421     -0.0009
    161  CD2       18.3900    2.9970   73.1670 C.ar  421  TYR421     -0.0009
    162  CE1       16.0010    4.3060   72.6560 C.ar  421  TYR421      0.0417
    163  CE2       18.0630    4.1510   73.8770 C.ar  421  TYR421      0.0417
    164  CZ        16.8680    4.8080   73.6140 C.ar  421  TYR421      0.1957
    165  OH        16.5420    5.9500   74.3120 O.3   421  TYR421     -0.2866
    166  N         18.0530   -2.0290   71.0570 N.am  422  GLY422     -0.1716
    167  CA        17.9200   -3.2010   70.2110 C.2   422  GLY422      0.1480
    168  C         19.1890   -4.0020   69.9900 C.2   422  GLY422      0.2820
    169  O         19.2600   -4.7770   69.0370 O.2   422  GLY422     -0.2669
    170  N         20.1990   -3.8130   70.8250 N.am  423  ALA423     -0.1943
    171  CA        21.4290   -4.5880   70.8410 C.3   423  ALA423      0.1600
    172  C         21.5100   -5.2250   72.2290 C.2   423  ALA423      0.2287
    173  O         21.2780   -4.5240   73.2230 O.2   423  ALA423     -0.2864
    174  CB        22.6300   -3.6820   70.6040 C.3   423  ALA423      0.0319
    175  N         23.9240   -7.0350   75.0590 N.3   425  TYR425     -0.1241
    176  CA        25.3270   -7.0630   75.4600 C.3   425  TYR425      0.1605
    177  C         25.4520   -7.9030   76.7440 C.2   425  TYR425      0.2264
    178  O         24.6220   -7.7860   77.6550 O.2   425  TYR425     -0.2867
    179  CB        25.8390   -5.6400   75.7490 C.3   425  TYR425      0.0534
    180  CG        25.7510   -4.6380   74.6310 C.ar  425  TYR425     -0.0201
    181  CD1       26.8140   -4.4470   73.7590 C.ar  425  TYR425     -0.0009
    182  CD2       24.6440   -3.7980   74.5090 C.ar  425  TYR425     -0.0009
    183  CE1       26.7600   -3.4750   72.7580 C.ar  425  TYR425      0.0417
    184  CE2       24.5830   -2.8220   73.5230 C.ar  425  TYR425      0.0417
    185  CZ        25.6370   -2.6690   72.6420 C.ar  425  TYR425      0.1957
    186  OH        25.5560   -1.6980   71.6790 O.3   425  TYR425     -0.2866
    187  N         27.6190   -8.1720   79.8680 N.3   427  ILE427     -0.1245
    188  CA        28.5310   -7.2770   80.5710 C.3   427  ILE427      0.1561
    189  C         28.8210   -7.7150   81.9910 C.2   427  ILE427      0.2260
    190  O         27.8980   -7.9860   82.7480 O.2   427  ILE427     -0.2867
    191  CB        27.9230   -5.8420   80.5190 C.3   427  ILE427      0.0252
    192  CG1       27.9110   -5.2940   79.0940 C.3   427  ILE427      0.0019
    193  CG2       28.6170   -4.8660   81.4620 C.3   427  ILE427      0.0019
    194  CD1       26.8460   -4.3560   78.8510 C.3   427  ILE427      0.0001
    195  N         33.5700    1.0610   80.5170 N.3   435  ILE435     -0.1245
    196  CA        32.3990    1.2930   79.6680 C.3   435  ILE435      0.1561
    197  C         31.9660    2.7710   79.7800 C.2   435  ILE435      0.2260
    198  O         31.8540    3.4610   78.7580 O.2   435  ILE435     -0.2867
    199  CB        31.2360    0.3000   79.9720 C.3   435  ILE435      0.0252
    200  CG1       31.6230   -1.1340   79.5550 C.3   435  ILE435      0.0019
    201  CG2       29.9400    0.7400   79.2740 C.3   435  ILE435      0.0019
    202  CD1       30.8440   -2.2650   80.1790 C.3   435  ILE435      0.0001
    203  N         31.7660    5.7790   76.8390 N.3   439  LEU439     -0.1245
    204  CA        30.4700    6.3250   76.4310 C.3   439  LEU439      0.1561
    205  C         30.2010    7.7510   76.8880 C.2   439  LEU439      0.2260
    206  O         29.4670    8.4690   76.2010 O.2   439  LEU439     -0.2867
    207  CB        29.3110    5.4220   76.8860 C.3   439  LEU439      0.0270
    208  CG        29.3640    3.9270   76.5140 C.3   439  LEU439      0.0019
    209  CD1       28.1240    3.2340   76.9560 C.3   439  LEU439      0.0001
    210  CD2       29.5330    3.7180   75.0150 C.3   439  LEU439      0.0001
@<TRIPOS>BOND
     1     1     2    1
     2     6     5    1
     3     2     5    1
     4     2     3    1
     5     8     3   am
     6     8     9    1
     7     5     7    1
     8    10     9    1
     9    10    11    2
    10     3     4    2
    11     9    12    1
    12    12    13    1
    13    18    19    1
    14    18    15    1
    15    19    20   ar
    16    19    21   ar
    17    14    15    1
    18    20    22   ar
    19    21    23   ar
    20    89    88    2
    21    88    87    1
    22    15    16    1
    23    22    24   ar
    24    23    24   ar
    25    24    25    1
    26    49    47   am
    27    48    47    2
    28    86    87    1
    29    47    46    1
    30    87    90    1
    31    16    17    2
    32    16    26   am
    33    90    91    1
    34    45    46    1
    35    45    42    1
    36    61    60    1
    37    26    27    1
    38    60    59   ar
    39    60    58   ar
    40    92    93    1
    41    37    39   ar
    42    37    35   ar
    43    42    41    1
    44    42    43    1
    45    41    32   am
    46    27    28    1
    47    30    31    1
    48    30    28   am
    49    59    57   ar
    50    39    40   ar
    51    94    93    1
    52    94    95    2
    53    34    31    1
    54    34    35    1
    55    58    56   ar
    56    93    96    1
    57    32    31    1
    58    32    33    2
    59    28    29    2
    60    35    36   ar
    61    43    44    2
    62    43    50   am
    63    57    55   ar
    64    56    55   ar
    65    40    38   ar
    66    50    51    1
    67    96    97    1
    68    55    54    1
    69    36    38   ar
    70    51    54    1
    71    51    52    1
    72   169   168    2
    73    84    83    1
    74   168   167    1
    75   168   170   am
    76    52    53    2
    77    52    62   am
    78   167   166    2
    79   174   171    1
    80    85    83    1
    81    83    82    2
    82   170   171    1
    83   171   172    1
    84    62    63    1
    85   166   156    1
    86   103   102    1
    87    78    77    2
    88    76    75    1
    89    76    79    1
    90    76    77    1
    91   157   156    2
    92   156   155    1
    93    80    79    1
    94    80    81    1
    95   158   159    1
    96   158   155    1
    97   186   185    1
    98    82    81    1
    99   160   159   ar
   100   160   162   ar
   101   159   161   ar
   102   172   173    2
   103   155   154    1
   104   149   148    2
   105    63    66    1
   106    63    64    1
   107    65    64    2
   108   185   183   ar
   109   185   184   ar
   110   162   164   ar
   111    98    99    1
   112   183   181   ar
   113   102    99    1
   114    67    66    1
   115    64    68   am
   116   161   163   ar
   117    99   100    1
   118   148   154   am
   119   148   147    1
   120   184   182   ar
   121   164   163   ar
   122   164   165    1
   123   181   180   ar
   124    68    69    1
   125    68    74    1
   126   182   180   ar
   127   152   150    1
   128   180   179    1
   129    71    70    2
   130   100   101    2
   131   147   150    1
   132   147   146    1
   133    69    70    1
   134    69    72    1
   135   150   151    1
   136   210   208    1
   137   175   176    1
   138    74    73    1
   139   133   132    1
   140   176   179    1
   141   176   177    1
   142   117   115    1
   143   116   115    1
   144    73    72    1
   145   206   205    2
   146   107   106    2
   147   151   153    1
   148   204   203    1
   149   204   207    1
   150   204   205    1
   151   132   131    1
   152   208   207    1
   153   208   209    1
   154   177   178    2
   155   115   114    1
   156   104   105    1
   157   108   109    1
   158   108   105    1
   159   106   105    1
   160   131   130    1
   161   114   111    1
   162   198   197    2
   163   130   127    1
   164   145   144    1
   165   194   192    1
   166   124   122    1
   167   111   110    1
   168   111   112    1
   169   192   191    1
   170   201   199    1
   171   127   128    1
   172   127   126    1
   173   200   199    1
   174   200   202    1
   175   129   128    2
   176   196   197    1
   177   196   199    1
   178   196   195    1
   179   144   142   ar
   180   144   143   ar
   181   187   188    1
   182   142   140   ar
   183   128   134   am
   184   126   120   am
   185   112   113    2
   186   121   120    2
   187   122   123    1
   188   122   119    1
   189   143   141   ar
   190   191   188    1
   191   191   193    1
   192   188   189    1
   193   120   119    1
   194   125   123    1
   195   140   139   ar
   196   119   118    1
   197   141   139   ar
   198   134   135    1
   199   139   138    1
   200   189   190    2
   201   135   138    1
   202   135   136    1
   203   136   137    2
