@<TRIPOS>MOLECULE
tmp/3qgfA01.pdb
 251 243 0 0 0
SMALL
GASTEIGER

@<TRIPOS>ATOM
      1  N         15.5680    2.9800   28.4520 N.3   156  VAL156     -0.1245
      2  CA        16.4980    3.1360   27.3240 C.3   156  VAL156      0.1561
      3  C         16.3210    4.4360   26.5420 C.2   156  VAL156      0.2260
      4  O         17.2460    4.8480   25.8460 O.2   156  VAL156     -0.2867
      5  CB        16.5720    1.8940   26.3950 C.3   156  VAL156      0.0252
      6  CG1       16.9130    0.6360   27.1920 C.3   156  VAL156      0.0019
      7  CG2       15.2880    1.7070   25.5860 C.3   156  VAL156      0.0019
      8  N         26.0150   11.8700   24.8070 N.3   168  TYR168     -0.1227
      9  CA        25.1430   10.8730   24.2120 C.3   168  TYR168      0.1736
     10  C         24.7930   11.3090   22.7770 C.2   168  TYR168      0.2596
     11  O         24.0330   12.2630   22.5770 O.2   168  TYR168     -0.2718
     12  CB        23.8810   10.6750   25.0760 C.3   168  TYR168      0.0548
     13  CG        22.9090    9.6510   24.5220 C.ar  168  TYR168     -0.0200
     14  CD1       23.2930    8.3290   24.3360 C.ar  168  TYR168     -0.0009
     15  CD2       21.5890    9.9990   24.2190 C.ar  168  TYR168     -0.0009
     16  CE1       22.4200    7.3930   23.7910 C.ar  168  TYR168      0.0417
     17  CE2       20.6840    9.0520   23.7370 C.ar  168  TYR168      0.0417
     18  CZ        21.1070    7.7470   23.5290 C.ar  168  TYR168      0.1957
     19  OH        20.2550    6.7980   23.0430 O.3   168  TYR168     -0.2866
     20  N         25.3760   10.6040   21.8150 N.am  169  GLY169     -0.1942
     21  CA        25.2320   10.8670   20.3900 C.3   169  GLY169      0.2014
     22  C         23.8700   10.7070   19.7450 C.2   169  GLY169      0.2639
     23  O         23.5930   11.3920   18.7730 O.2   169  GLY169     -0.2714
     24  N         23.0140    9.8130   20.2420 N.am  170  PHE170     -0.1959
     25  CA        21.7060    9.5440   19.6360 C.3   170  PHE170      0.1771
     26  C         20.6290   10.6060   19.7770 C.2   170  PHE170      0.2619
     27  O         19.6570   10.5920   19.0330 O.2   170  PHE170     -0.2715
     28  CB        21.1970    8.1470   19.9850 C.3   170  PHE170      0.0574
     29  CG        22.0490    7.0350   19.3970 C.ar  170  PHE170     -0.0200
     30  CD1       22.1690    6.8840   18.0140 C.ar  170  PHE170     -0.0042
     31  CD2       22.6900    6.1230   20.2210 C.ar  170  PHE170     -0.0042
     32  CE1       22.9520    5.8660   17.4730 C.ar  170  PHE170     -0.0003
     33  CE2       23.4730    5.0980   19.6790 C.ar  170  PHE170     -0.0003
     34  CZ        23.5990    4.9720   18.3070 C.ar  170  PHE170     -0.0000
     35  N         20.8240   11.5570   20.6590 N.am  171  GLN171     -0.1963
     36  CA        19.8940   12.6640   20.8340 C.3   171  GLN171      0.1733
     37  C         20.0430   13.7200   19.6940 C.2   171  GLN171      0.2616
     38  O         19.2500   14.6630   19.6310 O.2   171  GLN171     -0.2715
     39  CB        20.2000   13.3440   22.1880 C.3   171  GLN171      0.0408
     40  CG        21.5530   14.0410   22.1930 C.3   171  GLN171      0.0908
     41  CD        21.8310   14.7480   23.4830 C.2   171  GLN171      0.2608
     42  OE1       21.2670   15.8050   23.7640 O.2   171  GLN171     -0.2717
     43  NE2       22.7640   14.2220   24.2580 N.am  171  GLN171     -0.0878
     44  N         21.0830   13.6020   18.8540 N.am  172  TYR172     -0.1960
     45  CA        21.4170   14.6160   17.8470 C.3   172  TYR172      0.1771
     46  C         20.9810   14.3590   16.4260 C.2   172  TYR172      0.2620
     47  O         21.0320   13.2250   15.9590 O.2   172  TYR172     -0.2715
     48  CB        22.9430   14.8580   17.8260 C.3   172  TYR172      0.0574
     49  CG        23.5430   15.3620   19.1270 C.ar  172  TYR172     -0.0198
     50  CD1       23.0470   16.5050   19.7520 C.ar  172  TYR172     -0.0009
     51  CD2       24.6730   14.7560   19.6770 C.ar  172  TYR172     -0.0009
     52  CE1       23.6190   16.9920   20.9290 C.ar  172  TYR172      0.0417
     53  CE2       25.2550   15.2360   20.8560 C.ar  172  TYR172      0.0417
     54  CZ        24.7340   16.3660   21.4670 C.ar  172  TYR172      0.1957
     55  OH        25.3090   16.8610   22.6160 O.3   172  TYR172     -0.2866
     56  N         20.6630   15.4530   15.7030 N.am  173  SER173     -0.1936
     57  CA        20.4230   15.4230   14.2530 C.3   173  SER173      0.2040
     58  C         21.8540   15.5020   13.6180 C.2   173  SER173      0.2485
     59  O         22.7970   15.8770   14.3290 O.2   173  SER173     -0.2729
     60  CB        19.5970   16.6310   13.8380 C.3   173  SER173      0.2129
     61  OG        20.3290   17.8330   14.0090 O.3   173  SER173     -0.2179
     62  N         22.0840   15.2110   12.3170 N.am  174  PRO174     -0.2726
     63  CA        23.4540   15.3580   11.7870 C.3   174  PRO174      0.1402
     64  C         24.0050   16.7770   11.9580 C.2   174  PRO174      0.2269
     65  O         25.1840   16.9230   12.2940 O.2   174  PRO174     -0.2865
     66  CB        23.3280   14.9280   10.3350 C.3   174  PRO174      0.0296
     67  CG        22.1050   14.0720   10.3220 C.3   174  PRO174      0.0237
     68  CD        21.1660   14.7200   11.2670 C.3   174  PRO174      0.0939
     69  N         25.1420   17.1900   15.5950 N.3   177  ARG177     -0.1245
     70  CA        26.3830   16.4240   15.7750 C.3   177  ARG177      0.1563
     71  C         27.6080   17.1990   15.2930 C.2   177  ARG177      0.2260
     72  O         28.6020   17.2460   16.0220 O.2   177  ARG177     -0.2867
     73  CB        26.3180   15.0430   15.1030 C.3   177  ARG177      0.0307
     74  CG        27.4540   14.1120   15.5630 C.3   177  ARG177      0.0489
     75  CD        27.7580   12.9870   14.5810 C.3   177  ARG177      0.2205
     76  NE        27.9320   11.7310   15.2980 N.pl3 177  ARG177     -0.0865
     77  CZ        29.0890   11.2760   15.7520 C.cat 177  ARG177      0.5346
     78  NH1       30.2100   11.9140   15.4770 N.pl3 177  ARG177      0.1354
     79  NH2       29.1460   10.1240   16.3890 N.pl3 177  ARG177      0.1354
     80  N         21.9510   -1.0240   22.2040 N.3   265  SER265     -0.1217
     81  CA        22.3970    0.3330   21.9410 C.3   265  SER265      0.1889
     82  C         22.6340    1.1380   23.2290 C.2   265  SER265      0.2288
     83  O         23.6860    1.7710   23.3570 O.2   265  SER265     -0.2866
     84  CB        21.3980    1.0370   21.0370 C.3   265  SER265      0.2089
     85  OG        21.6460    2.4280   20.9010 O.3   265  SER265     -0.2183
     86  N         28.1530    6.8210   20.4730 N.3   293  CYS293     -0.1235
     87  CA        27.0290    6.1990   19.7420 C.3   293  CYS293      0.1677
     88  C         27.3080    4.7150   19.7510 C.2   293  CYS293      0.2270
     89  O         28.1130    4.2310   18.9530 O.2   293  CYS293     -0.2867
     90  CB        26.9480    6.6960   18.3080 C.3   293  CYS293      0.0956
     91  SG        26.3260    8.3710   18.1360 S.3   293  CYS293     -0.0801
     92  N         31.3260    7.3600   13.4970 N.3   343  CYS343     -0.1235
     93  CA        30.0110    6.9330   12.9910 C.3   343  CYS343      0.1677
     94  C         30.0550    6.8330   11.4780 C.2   343  CYS343      0.2270
     95  O         29.1290    7.2750   10.7900 O.2   343  CYS343     -0.2867
     96  CB        28.9020    7.8580   13.4600 C.3   343  CYS343      0.0956
     97  SG        28.3010    7.4830   15.1150 S.3   343  CYS343     -0.0801
     98  N         31.6110    8.5280    9.4730 N.3   345  SER345     -0.1217
     99  CA        31.5340    9.8800    8.9340 C.3   345  SER345      0.1889
    100  C         32.6670   10.7920    9.3450 C.2   345  SER345      0.2288
    101  O         33.3360   10.5600   10.3490 O.2   345  SER345     -0.2866
    102  CB        30.2050   10.5170    9.3390 C.3   345  SER345      0.2089
    103  OG        29.1210    9.6340    9.0790 O.3   345  SER345     -0.2183
    104  N         28.6240   16.5940    7.8180 N.3   361  LEU361     -0.1245
    105  CA        29.0930   15.2250    7.9160 C.3   361  LEU361      0.1561
    106  C         29.0060   14.5360    6.5850 C.2   361  LEU361      0.2260
    107  O         27.9820   14.6050    5.8820 O.2   361  LEU361     -0.2867
    108  CB        28.2520   14.4620    8.9510 C.3   361  LEU361      0.0270
    109  CG        28.7970   14.3290   10.3950 C.3   361  LEU361      0.0019
    110  CD1       30.2450   14.7890   10.5440 C.3   361  LEU361      0.0001
    111  CD2       27.8600   14.9570   11.3930 C.3   361  LEU361      0.0001
    112  N         18.4870   11.3830    3.7730 N.3   390  ILE390     -0.1231
    113  CA        18.1260   12.1310    4.9750 C.3   390  ILE390      0.1692
    114  C         19.3590   12.4650    5.8210 C.2   390  ILE390      0.2592
    115  O         19.5220   13.6280    6.2000 O.2   390  ILE390     -0.2718
    116  CB        17.0240   11.3720    5.7870 C.3   390  ILE390      0.0266
    117  CG1       15.6630   11.4320    5.0620 C.3   390  ILE390      0.0019
    118  CG2       16.8860   11.8860    7.2250 C.3   390  ILE390      0.0020
    119  CD1       14.6630   10.4460    5.5450 C.3   390  ILE390      0.0001
    120  N         20.2100   11.4650    6.1290 N.am  391  MET391     -0.1965
    121  CA        21.3570   11.6930    7.0130 C.3   391  MET391      0.1736
    122  C         22.5320   12.4390    6.3510 C.2   391  MET391      0.2616
    123  O         23.2630   13.1710    7.0220 O.2   391  MET391     -0.2715
    124  CB        21.7850   10.3950    7.7210 C.3   391  MET391      0.0427
    125  CG        20.6760    9.7830    8.6270 C.3   391  MET391      0.0599
    126  SD        20.1270   10.8000   10.0370 S.3   391  MET391     -0.1393
    127  CE        21.4610   10.4720   11.2420 C.3   391  MET391      0.0692
    128  N         22.6680   12.3040    5.0330 N.am  392  TYR392     -0.1974
    129  CA        23.7420   12.9470    4.3060 C.3   392  TYR392      0.1639
    130  C         23.2630   13.9590    3.2890 C.2   392  TYR392      0.2290
    131  O         23.9910   14.2750    2.3400 O.2   392  TYR392     -0.2864
    132  CB        24.6520   11.8700    3.6720 C.3   392  TYR392      0.0560
    133  CG        25.3860   11.0520    4.7040 C.ar  392  TYR392     -0.0198
    134  CD1       26.4690   11.5840    5.4080 C.ar  392  TYR392     -0.0009
    135  CD2       24.9860    9.7520    5.0060 C.ar  392  TYR392     -0.0009
    136  CE1       27.1570   10.8290    6.3640 C.ar  392  TYR392      0.0417
    137  CE2       25.6760    8.9820    5.9510 C.ar  392  TYR392      0.0417
    138  CZ        26.7440    9.5340    6.6400 C.ar  392  TYR392      0.1957
    139  OH        27.4040    8.8020    7.5860 O.3   392  TYR392     -0.2866
    140  N         16.8810    4.3990   10.8050 N.3   424  ILE424     -0.1231
    141  CA        18.1170    5.1580   11.0740 C.3   424  ILE424      0.1692
    142  C         18.6290    4.7970   12.4950 C.2   424  ILE424      0.2592
    143  O         18.0350    5.2100   13.5020 O.2   424  ILE424     -0.2718
    144  CB        17.9410    6.6960   10.8800 C.3   424  ILE424      0.0266
    145  CG1       17.4680    7.0530    9.4420 C.3   424  ILE424      0.0019
    146  CG2       19.2450    7.4370   11.2450 C.3   424  ILE424      0.0020
    147  CD1       16.5890    8.2840    9.3560 C.3   424  ILE424      0.0001
    148  N         19.7220    4.0230   12.5600 N.am  425  TYR425     -0.1976
    149  CA        20.3170    3.5550   13.8050 C.3   425  TYR425      0.1639
    150  C         19.2750    2.9280   14.7760 C.2   425  TYR425      0.2290
    151  O         19.3320    3.1630   15.9900 O.2   425  TYR425     -0.2864
    152  CB        21.1680    4.6590   14.4640 C.3   425  TYR425      0.0560
    153  CG        22.4440    4.9660   13.7110 C.ar  425  TYR425     -0.0198
    154  CD1       23.5680    4.1450   13.8350 C.ar  425  TYR425     -0.0009
    155  CD2       22.5420    6.0890   12.8940 C.ar  425  TYR425     -0.0009
    156  CE1       24.7650    4.4380   13.1730 C.ar  425  TYR425      0.0417
    157  CE2       23.7400    6.4000   12.2270 C.ar  425  TYR425      0.0417
    158  CZ        24.8570    5.5710   12.3750 C.ar  425  TYR425      0.1957
    159  OH        26.0610    5.8350   11.7370 O.3   425  TYR425     -0.2866
    160  N         15.8640    3.5030   14.7560 N.3   427  ALA427     -0.1245
    161  CA        14.6400    4.2970   14.8720 C.3   427  ALA427      0.1562
    162  C         13.8880    4.1190   13.5270 C.2   427  ALA427      0.2260
    163  O         14.4740    4.3640   12.4660 O.2   427  ALA427     -0.2867
    164  CB        14.9850    5.7570   15.0930 C.3   427  ALA427      0.0290
    165  N         11.0030    4.9620   10.7180 N.3   429  TYR429     -0.1241
    166  CA        10.1760    6.0670   10.2560 C.3   429  TYR429      0.1605
    167  C          9.3860    5.6880    9.0060 C.2   429  TYR429      0.2264
    168  O          9.6930    4.6740    8.3570 O.2   429  TYR429     -0.2867
    169  CB        11.0480    7.3300   10.0090 C.3   429  TYR429      0.0534
    170  CG        11.8040    7.8350   11.2290 C.ar  429  TYR429     -0.0201
    171  CD1       11.1970    8.6910   12.1460 C.ar  429  TYR429     -0.0009
    172  CD2       13.1390    7.4830   11.4490 C.ar  429  TYR429     -0.0009
    173  CE1       11.8910    9.1650   13.2720 C.ar  429  TYR429      0.0417
    174  CE2       13.8450    7.9600   12.5670 C.ar  429  TYR429      0.0417
    175  CZ        13.2140    8.7980   13.4740 C.ar  429  TYR429      0.1957
    176  OH        13.8790    9.2590   14.5860 O.3   429  TYR429     -0.2866
    177  N          8.1210    7.8750    5.7750 N.3   431  ILE431     -0.1245
    178  CA         8.2780    9.1530    5.1030 C.3   431  ILE431      0.1561
    179  C          7.8530    9.0910    3.6500 C.2   431  ILE431      0.2260
    180  O          8.2960    8.2030    2.8940 O.2   431  ILE431     -0.2867
    181  CB         9.7720    9.6350    5.2110 C.3   431  ILE431      0.0252
    182  CG1       10.2540    9.6920    6.6470 C.3   431  ILE431      0.0019
    183  CG2        9.9910   10.9840    4.5320 C.3   431  ILE431      0.0019
    184  CD1       11.6660    9.2520    6.8330 C.3   431  ILE431      0.0001
    185  N         12.0540   17.9780    6.2200 N.3   439  ILE439     -0.1245
    186  CA        12.8780   17.1130    7.0650 C.3   439  ILE439      0.1561
    187  C         14.3530   17.5430    7.0210 C.2   439  ILE439      0.2260
    188  O         14.9590   17.7320    8.0700 O.2   439  ILE439     -0.2867
    189  CB        12.6560   15.6510    6.6700 C.3   439  ILE439      0.0252
    190  CG1       11.2660   15.1680    7.1640 C.3   439  ILE439      0.0019
    191  CG2       13.7970   14.7590    7.1510 C.3   439  ILE439      0.0019
    192  CD1       10.6250   14.2080    6.2420 C.3   439  ILE439      0.0001
    193  N         15.1120   20.7470    8.9250 N.3   442  ARG442     -0.1231
    194  CA        15.1760   20.5560   10.3770 C.3   442  ARG442      0.1694
    195  C         16.4700   19.8620   10.8020 C.2   442  ARG442      0.2591
    196  O         17.1340   20.2910   11.7500 O.2   442  ARG442     -0.2718
    197  CB        13.9560   19.7620   10.8920 C.3   442  ARG442      0.0321
    198  CG        13.1930   20.5620   11.9490 C.3   442  ARG442      0.0489
    199  CD        13.3840   20.1470   13.4120 C.3   442  ARG442      0.2205
    200  NE        14.7620   19.7980   13.7590 N.pl3 442  ARG442     -0.0865
    201  CZ        15.1410   19.2750   14.9250 C.cat 442  ARG442      0.5346
    202  NH1       14.2490   19.0490   15.8850 N.pl3 442  ARG442      0.1354
    203  NH2       16.4160   18.9700   15.1390 N.pl3 442  ARG442      0.1354
    204  N         16.8410   18.8110   10.0700 N.am  443  LEU443     -0.1980
    205  CA        18.0060   18.0090   10.4020 C.3   443  LEU443      0.1596
    206  C         19.3440   18.6100   10.1150 C.2   443  LEU443      0.2287
    207  O         20.2970   18.2420   10.7880 O.2   443  LEU443     -0.2864
    208  CB        17.9390   16.6200    9.7480 C.3   443  LEU443      0.0297
    209  CG        16.8520   15.6670   10.2100 C.3   443  LEU443      0.0022
    210  CD1       16.9030   14.4240    9.4150 C.3   443  LEU443      0.0001
    211  CD2       16.9910   15.3160   11.6720 C.3   443  LEU443      0.0001
    212  N          9.5590   16.0820   14.2960 N.3   522  LEU522     -0.1245
    213  CA        10.0740   14.8860   13.6180 C.3   522  LEU522      0.1561
    214  C          9.3940   13.5880   14.0470 C.2   522  LEU522      0.2260
    215  O          9.1820   12.7100   13.2050 O.2   522  LEU522     -0.2867
    216  CB        11.5890   14.7800   13.8240 C.3   522  LEU522      0.0270
    217  CG        12.5480   15.2820   12.7250 C.3   522  LEU522      0.0019
    218  CD1       11.8760   16.2000   11.7000 C.3   522  LEU522      0.0001
    219  CD2       13.7590   15.9310   13.3440 C.3   522  LEU522      0.0001
    220  N          6.8150   11.3570   11.9920 N.3   525  TRP525     -0.1241
    221  CA         7.1860   10.4030   10.9580 C.3   525  TRP525      0.1605
    222  C          7.6020    9.1140   11.6620 C.2   525  TRP525      0.2264
    223  O          7.8530    8.0990   11.0040 O.2   525  TRP525     -0.2867
    224  CB         8.3230   10.9700   10.1290 C.3   525  TRP525      0.0550
    225  CG         7.8670   12.0130    9.1650 C.ar  525  TRP525      0.0003
    226  CD1        7.3370   11.8030    7.9270 C.ar  525  TRP525      0.0946
    227  CD2        7.8520   13.4300    9.3750 C.ar  525  TRP525      0.0152
    228  NE1        7.0310   13.0080    7.3330 N.ar  525  TRP525     -0.2442
    229  CE2        7.3420   14.0240    8.1970 C.ar  525  TRP525      0.0810
    230  CE3        8.2520   14.2650   10.4350 C.ar  525  TRP525      0.0012
    231  CZ2        7.2380   15.4170    8.0390 C.ar  525  TRP525      0.0191
    232  CZ3        8.1580   15.6440   10.2750 C.ar  525  TRP525      0.0001
    233  CH2        7.6620   16.2080    9.0870 C.ar  525  TRP525      0.0015
    234  N         13.8110    2.7510   18.2950 N.3   530  TYR530     -0.1227
    235  CA        14.7530    3.6130   19.0470 C.3   530  TYR530      0.1736
    236  C         15.9080    2.7210   19.5970 C.2   530  TYR530      0.2596
    237  O         16.1680    2.6440   20.8090 O.2   530  TYR530     -0.2718
    238  CB        14.1090    4.5180   20.1270 C.3   530  TYR530      0.0548
    239  CG        13.5890    5.8590   19.6470 C.ar  530  TYR530     -0.0200
    240  CD1       13.8170    6.2930   18.3450 C.ar  530  TYR530     -0.0009
    241  CD2       12.8890    6.7070   20.5060 C.ar  530  TYR530     -0.0009
    242  CE1       13.3680    7.5390   17.9050 C.ar  530  TYR530      0.0417
    243  CE2       12.3910    7.9340   20.0650 C.ar  530  TYR530      0.0417
    244  CZ        12.6410    8.3510   18.7630 C.ar  530  TYR530      0.1957
    245  OH        12.1730    9.5610   18.3000 O.3   530  TYR530     -0.2866
    246  N         16.5470    1.9910   18.6490 N.am  531  SER531     -0.1952
    247  CA        17.6720    1.0510   18.7880 C.3   531  SER531      0.1924
    248  C         17.4480   -0.2120   19.6860 C.2   531  SER531      0.2314
    249  O         18.1610   -0.4170   20.6820 O.2   531  SER531     -0.2863
    250  CB        18.9690    1.8000   19.0980 C.3   531  SER531      0.2116
    251  OG        19.9560    1.7390   18.0740 O.3   531  SER531     -0.2180
@<TRIPOS>BOND
     1   131   130    2
     2   180   179    2
     3   130   129    1
     4   179   178    1
     5   132   129    1
     6   132   133    1
     7   112   113    1
     8   129   128    1
     9   183   181    1
    10   133   135   ar
    11   133   134   ar
    12   113   116    1
    13   113   114    1
    14   135   137   ar
    15   128   122   am
    16   117   119    1
    17   117   116    1
    18   178   181    1
    19   178   177    1
    20   181   182    1
    21   134   136   ar
    22   116   118    1
    23   114   120   am
    24   114   115    2
    25   107   106    2
    26   137   138   ar
    27   120   121    1
    28   185   186    1
    29   192   190    1
    30   122   121    1
    31   122   123    2
    32   136   138   ar
    33   106   105    1
    34   138   139    1
    35   182   184    1
    36   189   186    1
    37   189   191    1
    38   189   190    1
    39   121   124    1
    40   187   186    1
    41   187   188    2
    42   228   226   ar
    43   228   229   ar
    44   124   125    1
    45   104   105    1
    46   105   108    1
    47   226   225   ar
    48   231   229   ar
    49   231   233   ar
    50   229   227   ar
    51   168   167    2
    52   125   126    1
    53   193   194    1
    54    99   102    1
    55    99   100    1
    56    99    98    1
    57   108   109    1
    58   167   166    1
    59   103   102    1
    60   233   232   ar
    61   225   227   ar
    62   225   224    1
    63   100   101    2
    64   147   145    1
    65   227   230   ar
    66   210   209    1
    67   145   144    1
    68   208   209    1
    69   208   205    1
    70   169   166    1
    71   169   170    1
    72   126   127    1
    73   204   205    1
    74   204   195   am
    75   206   205    1
    76   206   207    2
    77   224   221    1
    78   209   211    1
    79   166   165    1
    80   232   230   ar
    81    67    66    1
    82    67    68    1
    83    66    63    1
    84   194   195    1
    85   194   197    1
    86   109   110    1
    87   109   111    1
    88    95    94    2
    89   195   196    2
    90   140   141    1
    91   144   141    1
    92   144   146    1
    93   197   198    1
    94   221   222    1
    95   221   220    1
    96   223   222    2
    97   141   142    1
    98   170   172   ar
    99   170   171   ar
   100    68    62    1
   101   172   174   ar
   102    94    93    1
   103   218   217    1
   104   159   158    1
   105    63    64    1
   106    63    62    1
   107   198   199    1
   108    64    65    2
   109   171   173   ar
   110   157   158   ar
   111   157   155   ar
   112    62    58   am
   113   158   156   ar
   114   163   162    2
   115   142   148   am
   116   142   143    2
   117   148   149    1
   118   174   175   ar
   119   217   219    1
   120   217   216    1
   121   155   153   ar
   122    93    96    1
   123    93    92    1
   124   156   154   ar
   125   215   214    2
   126   173   175   ar
   127   199   200    1
   128    96    97    1
   129   175   176    1
   130   162   161    1
   131    58    57    1
   132    58    59    2
   133   213   216    1
   134   213   214    1
   135   213   212    1
   136   153   154   ar
   137   153   152    1
   138   200   201    2
   139   149   152    1
   140   149   150    1
   141    60    61    1
   142    60    57    1
   143    57    56    1
   144    75    76    1
   145    75    74    1
   146   160   161    1
   147   150   151    2
   148   161   164    1
   149   201   203    1
   150   201   202    1
   151    73    74    1
   152    73    70    1
   153    71    70    1
   154    71    72    2
   155    76    77    2
   156    78    77    1
   157    69    70    1
   158    56    46   am
   159    77    79    1
   160    47    46    2
   161    46    45    1
   162    32    30   ar
   163    32    34   ar
   164    48    45    1
   165    48    49    1
   166    45    44    1
   167   242   240   ar
   168   242   244   ar
   169    30    29   ar
   170   251   250    1
   171    91    90    1
   172   234   235    1
   173   245   244    1
   174    34    33   ar
   175    90    87    1
   176   240   239   ar
   177   246   247    1
   178   246   236   am
   179   244   243   ar
   180    23    22    2
   181   247   250    1
   182   247   248    1
   183    44    37   am
   184    89    88    2
   185    27    26    2
   186   235   236    1
   187   235   238    1
   188    49    51   ar
   189    49    50   ar
   190    29    28    1
   191    29    31   ar
   192   236   237    2
   193    38    37    2
   194    25    26    1
   195    25    28    1
   196    25    24    1
   197   239   238    1
   198   239   241   ar
   199    51    53   ar
   200    33    31   ar
   201   248   249    2
   202    37    36    1
   203    87    88    1
   204    87    86    1
   205    22    24   am
   206    22    21    1
   207    50    52   ar
   208    26    35   am
   209   243   241   ar
   210    21    20    1
   211    35    36    1
   212    36    39    1
   213    53    54   ar
   214    85    84    1
   215    52    54   ar
   216    84    81    1
   217    54    55    1
   218    20    10   am
   219    81    80    1
   220    81    82    1
   221    39    40    1
   222    40    41    1
   223    11    10    2
   224    10     9    1
   225    19    18    1
   226    82    83    2
   227    41    42    2
   228    41    43   am
   229    18    17   ar
   230    18    16   ar
   231    17    15   ar
   232    16    14   ar
   233     9     8    1
   234     9    12    1
   235    15    13   ar
   236    14    13   ar
   237    13    12    1
   238     7     5    1
   239     4     3    2
   240     5     6    1
   241     5     2    1
   242     3     2    1
   243     2     1    1
