@<TRIPOS>MOLECULE
tmp/3qgjC00.pdb
 160 154 0 0 0
SMALL
GASTEIGER

@<TRIPOS>ATOM
      1  N         23.7590   51.9620   54.1380 N.3    16  LEU16      -0.1231
      2  CA        22.9540   53.0400   54.7990 C.3    16  LEU16       0.1693
      3  C         21.6110   53.1060   54.1600 C.2    16  LEU16       0.2592
      4  O         21.4580   53.0620   52.9140 O.2    16  LEU16      -0.2718
      5  CB        23.5990   54.3960   54.5490 C.3    16  LEU16       0.0284
      6  CG        25.0360   54.5400   55.0450 C.3    16  LEU16       0.0019
      7  CD1       25.5580   55.9020   54.7590 C.3    16  LEU16       0.0001
      8  CD2       25.1140   54.3430   56.6030 C.3    16  LEU16       0.0001
      9  N         20.6160   53.3310   54.9980 N.am   17  CYS17      -0.1970
     10  CA        19.2410   53.5700   54.5290 C.3    17  CYS17       0.1712
     11  C         18.6570   54.6300   55.4690 C.2    17  CYS17       0.2296
     12  O         19.3570   55.2250   56.3380 O.2    17  CYS17      -0.2864
     13  CB        18.4540   52.2710   54.6300 C.3    17  CYS17       0.0983
     14  SG        18.8350   51.1500   53.2940 S.3    17  CYS17      -0.0798
     15  N         14.6370   45.9110   50.9400 N.3    36  HIS36      -0.1241
     16  CA        15.9860   45.7170   50.4000 C.3    36  HIS36       0.1621
     17  C         17.0710   46.2110   51.4040 C.2    36  HIS36       0.2264
     18  O         18.2570   45.8950   51.2470 O.2    36  HIS36      -0.2867
     19  CB        16.0760   46.4280   49.0350 C.3    36  HIS36       0.0745
     20  CG        17.3940   46.2240   48.3920 C.ar   36  HIS36       0.0817
     21  ND1       18.2420   47.2200   47.9750 N.ar   36  HIS36      -0.2268
     22  CD2       18.0550   45.0480   48.1740 C.ar   36  HIS36       0.1154
     23  CE1       19.3420   46.6470   47.4250 C.ar   36  HIS36       0.1986
     24  NE2       19.2410   45.3430   47.5500 N.ar   36  HIS36      -0.2212
     25  N         11.3240   41.1990   50.0880 N.3    59  PHE59      -0.1241
     26  CA        11.9680   41.8020   48.9210 C.3    59  PHE59       0.1605
     27  C         12.5660   40.6760   48.0970 C.2    59  PHE59       0.2264
     28  O         13.2470   39.8720   48.6520 O.2    59  PHE59      -0.2867
     29  CB        13.0600   42.7960   49.3390 C.3    59  PHE59       0.0534
     30  CG        13.7860   43.4220   48.1830 C.ar   59  PHE59      -0.0203
     31  CD1       14.9880   42.8500   47.7610 C.ar   59  PHE59      -0.0042
     32  CD2       13.2430   44.5240   47.4930 C.ar   59  PHE59      -0.0042
     33  CE1       15.6330   43.3630   46.5860 C.ar   59  PHE59      -0.0003
     34  CE2       13.8950   45.0500   46.3710 C.ar   59  PHE59      -0.0003
     35  CZ        15.1150   44.4510   45.9090 C.ar   59  PHE59      -0.0000
     36  N          8.5310   45.3650   48.8890 N.3    63  ASP63      -0.1239
     37  CA         9.7610   46.0110   49.3540 C.3    63  ASP63       0.1674
     38  C          9.5310   46.6320   50.7130 C.2    63  ASP63       0.2266
     39  O          9.2520   47.8350   50.8020 O.2    63  ASP63      -0.2867
     40  CB        10.3240   47.0260   48.3390 C.3    63  ASP63       0.1410
     41  CG        11.7180   47.5090   48.7140 C.2    63  ASP63       0.3668
     42  OD1       12.2430   48.3930   47.9790 O.co2  63  ASP63      -0.2456
     43  OD2       12.2910   46.9480   49.6690 O.co2  63  ASP63      -0.2456
     44  N          8.4770   48.0660   39.3990 N.3   121  ALA121     -0.1231
     45  CA         9.9020   48.4030   39.1010 C.3   121  ALA121      0.1694
     46  C         10.6400   47.1070   38.8180 C.2   121  ALA121      0.2592
     47  O         10.6410   46.2320   39.6660 O.2   121  ALA121     -0.2718
     48  CB        10.4320   49.0540   40.3400 C.3   121  ALA121      0.0304
     49  N         11.2840   47.0500   37.6740 N.am  122  ASN122     -0.1960
     50  CA        12.0300   45.8730   37.3030 C.3   122  ASN122      0.1819
     51  C         13.4820   46.0170   37.7870 C.2   122  ASN122      0.2621
     52  O         14.3570   46.1590   36.9540 O.2   122  ASN122     -0.2715
     53  CB        11.9070   45.6540   35.7990 C.3   122  ASN122      0.1195
     54  CG        10.5840   45.1910   35.4680 C.2   122  ASN122      0.2630
     55  OD1       10.1700   44.1470   36.0040 O.2   122  ASN122     -0.2716
     56  ND2        9.7820   46.0400   34.8560 N.am  122  ASN122     -0.0877
     57  N         13.7530   45.9450   39.0980 N.am  123  TYR123     -0.1960
     58  CA        15.0890   46.0820   39.6590 C.3   123  TYR123      0.1771
     59  C         15.9180   44.8430   39.2560 C.2   123  TYR123      0.2619
     60  O         15.3340   43.7510   38.9590 O.2   123  TYR123     -0.2715
     61  CB        14.9530   46.0370   41.1790 C.3   123  TYR123      0.0574
     62  CG        14.1570   47.1920   41.8200 C.ar  123  TYR123     -0.0198
     63  CD1       13.4020   46.9940   42.9770 C.ar  123  TYR123     -0.0009
     64  CD2       14.3160   48.5130   41.3710 C.ar  123  TYR123     -0.0009
     65  CE1       12.7140   48.0960   43.5740 C.ar  123  TYR123      0.0417
     66  CE2       13.6040   49.5680   41.9560 C.ar  123  TYR123      0.0417
     67  CZ        12.9050   49.3560   43.0940 C.ar  123  TYR123      0.1957
     68  OH        12.3110   50.4120   43.6940 O.3   123  TYR123     -0.2866
     69  N         17.2420   45.0360   39.3030 N.am  124  ALA124     -0.1963
     70  CA        18.1840   43.9230   38.9070 C.3   124  ALA124      0.1728
     71  C         17.9570   42.7630   39.8520 C.2   124  ALA124      0.2616
     72  O         18.1150   41.6060   39.4090 O.2   124  ALA124     -0.2715
     73  CB        19.6150   44.3910   39.0230 C.3   124  ALA124      0.0334
     74  N         17.5830   43.0130   41.1140 N.am  125  GLU125     -0.1977
     75  CA        17.3440   41.9400   42.0590 C.3   125  GLU125      0.1602
     76  C         15.9950   41.2170   41.8620 C.2   125  GLU125      0.2287
     77  O         15.7650   40.1670   42.5440 O.2   125  GLU125     -0.2864
     78  CB        17.4340   42.4560   43.4920 C.3   125  GLU125      0.0415
     79  CG        18.7520   42.9870   43.8970 C.3   125  GLU125      0.1163
     80  CD        18.9560   44.4890   43.6130 C.2   125  GLU125      0.3649
     81  OE1       18.1300   45.1550   42.8910 O.co2 125  GLU125     -0.2457
     82  OE2       19.9730   45.0280   44.1920 O.co2 125  GLU125     -0.2457
     83  N         15.0240   62.0340   44.5780 N.3   138  MET138     -0.1230
     84  CA        15.5120   61.0990   45.5970 C.3   138  MET138      0.1702
     85  C         16.8590   60.6350   45.0830 C.2   138  MET138      0.2593
     86  O         17.1900   60.7760   43.8940 O.2   138  MET138     -0.2718
     87  CB        14.5370   59.9410   45.8460 C.3   138  MET138      0.0401
     88  CG        14.2890   59.1100   44.6020 C.3   138  MET138      0.0596
     89  SD        15.4720   57.7050   44.4780 S.3   138  MET138     -0.1393
     90  CE        15.0760   57.0190   42.8470 C.3   138  MET138      0.0692
     91  N         17.5780   59.9620   45.9560 N.am  139  GLY139     -0.1942
     92  CA        18.8430   59.2790   45.5550 C.3   139  GLY139      0.2014
     93  C         19.2390   58.1630   46.4510 C.2   139  GLY139      0.2639
     94  O         18.5530   57.8400   47.4710 O.2   139  GLY139     -0.2714
     95  N         20.3000   57.4900   46.0240 N.am  140  ARG140     -0.1963
     96  CA        20.8180   56.3480   46.7560 C.3   140  ARG140      0.1729
     97  C         21.0660   56.7470   48.2070 C.2   140  ARG140      0.2616
     98  O         21.8190   57.7020   48.4810 O.2   140  ARG140     -0.2715
     99  CB        22.1510   55.8350   46.1260 C.3   140  ARG140      0.0348
    100  CG        22.3530   54.3450   46.3070 C.3   140  ARG140      0.0492
    101  CD        23.5420   53.7030   45.4560 C.3   140  ARG140      0.2205
    102  NE        24.1590   52.6040   46.2220 N.pl3 140  ARG140     -0.0865
    103  CZ        23.9600   51.3170   45.9520 C.cat 140  ARG140      0.5346
    104  NH1       24.5070   50.3700   46.6920 N.pl3 140  ARG140      0.1354
    105  NH2       23.2210   50.9830   44.9150 N.pl3 140  ARG140      0.1354
    106  N         20.4890   55.9990   49.1370 N.am  141  GLY141     -0.1955
    107  CA        20.5760   56.1420   50.6020 C.3   141  GLY141      0.1869
    108  C         19.2760   56.6590   51.1520 C.2   141  GLY141      0.2309
    109  O         19.0400   56.5330   52.3720 O.2   141  GLY141     -0.2863
    110  N         16.4700   55.1850   50.4910 N.3   143  SER143     -0.1217
    111  CA        15.5240   54.0630   50.6250 C.3   143  SER143      0.1889
    112  C         15.1970   53.7970   52.0650 C.2   143  SER143      0.2288
    113  O         16.0160   53.9240   52.9660 O.2   143  SER143     -0.2866
    114  CB        16.2090   52.8520   50.1280 C.3   143  SER143      0.2089
    115  OG        16.4100   53.1020   48.6830 O.3   143  SER143     -0.2183
    116  N         10.3620   54.8680   50.9880 N.3   158  MET158     -0.1230
    117  CA        11.0760   54.9590   49.6880 C.3   158  MET158      0.1702
    118  C         11.5860   53.5520   49.2850 C.2   158  MET158      0.2593
    119  O         12.2850   52.8850   50.0210 O.2   158  MET158     -0.2718
    120  CB        12.2570   55.8860   49.9770 C.3   158  MET158      0.0401
    121  CG        13.1280   56.2100   48.7270 C.3   158  MET158      0.0596
    122  SD        12.3940   57.4480   47.6750 S.3   158  MET158     -0.1393
    123  CE        12.3020   56.5920   46.1320 C.3   158  MET158      0.0692
    124  N         11.3180   53.1920   48.0360 N.am  159  SER159     -0.1938
    125  CA        11.8670   51.9440   47.4600 C.3   159  SER159      0.2055
    126  C         12.9620   52.2480   46.4890 C.2   159  SER159      0.2644
    127  O         14.0730   51.6870   46.5990 O.2   159  SER159     -0.2714
    128  CB        10.7280   51.1940   46.7920 C.3   159  SER159      0.2130
    129  OG        11.2230   49.9860   46.1660 O.3   159  SER159     -0.2179
    130  N         12.7520   53.0440   45.4900 N.am  160  GLY160     -0.1939
    131  CA        13.7770   53.2690   44.4450 C.3   160  GLY160      0.2014
    132  C         13.1960   54.0010   43.2850 C.2   160  GLY160      0.2639
    133  O         12.1810   54.7130   43.3880 O.2   160  GLY160     -0.2714
    134  N         13.7870   53.8220   42.0890 N.am  161  GLY161     -0.1939
    135  CA        13.3420   54.5670   40.9080 C.3   161  GLY161      0.2014
    136  C         14.4730   54.8100   39.9780 C.2   161  GLY161      0.2639
    137  O         15.4960   54.0450   39.9810 O.2   161  GLY161     -0.2714
    138  N         14.3910   55.8720   39.2090 N.am  162  ASN162     -0.1958
    139  CA        15.3350   56.0890   38.1010 C.3   162  ASN162      0.1819
    140  C         16.5210   56.9410   38.4420 C.2   162  ASN162      0.2621
    141  O         16.6730   58.1030   37.9850 O.2   162  ASN162     -0.2715
    142  CB        14.6300   56.5490   36.8290 C.3   162  ASN162      0.1195
    143  CG        13.9790   57.8930   36.9030 C.2   162  ASN162      0.2630
    144  OD1       13.5870   58.3460   37.9800 O.2   162  ASN162     -0.2716
    145  ND2       13.7790   58.5050   35.7420 N.am  162  ASN162     -0.0877
    146  N         17.3820   56.3790   39.2850 N.am  163  VAL163     -0.1977
    147  CA        18.5650   57.1340   39.6900 C.3   163  VAL163      0.1596
    148  C         19.4590   57.3220   38.4500 C.2   163  VAL163      0.2287
    149  O         19.5750   56.4170   37.6100 O.2   163  VAL163     -0.2864
    150  CB        19.3230   56.4660   40.9100 C.3   163  VAL163      0.0276
    151  CG1       18.3840   56.3070   42.1550 C.3   163  VAL163      0.0022
    152  CG2       19.9140   55.0970   40.5810 C.3   163  VAL163      0.0022
    153  N          9.7410   56.0140   43.5740 N.3   180  LEU180     -0.1245
    154  CA         8.7370   54.9710   43.9310 C.3   180  LEU180      0.1561
    155  C          8.7360   54.6370   45.3750 C.2   180  LEU180      0.2260
    156  O          9.8330   54.3500   45.9310 O.2   180  LEU180     -0.2867
    157  CB         8.9820   53.7120   43.0810 C.3   180  LEU180      0.0270
    158  CG         9.0170   53.9030   41.5670 C.3   180  LEU180      0.0019
    159  CD1        9.4940   52.5160   40.8900 C.3   180  LEU180      0.0001
    160  CD2        7.6690   54.3170   41.0490 C.3   180  LEU180      0.0001
@<TRIPOS>BOND
     1    56    54   am
     2    54    53    1
     3    54    55    2
     4   145   143   am
     5    53    50    1
     6   142   143    1
     7   142   139    1
     8   143   144    2
     9    52    51    2
    10    50    49    1
    11    50    51    1
    12   149   148    2
    13    49    46   am
    14    51    57   am
    15   141   140    2
    16   139   140    1
    17   139   138    1
    18   140   146   am
    19   148   147    1
    20    46    45    1
    21    46    47    2
    22    70    73    1
    23    70    69    1
    24    70    71    1
    25    60    59    2
    26    57    58    1
    27    45    44    1
    28    45    48    1
    29   138   136   am
    30    59    69   am
    31    59    58    1
    32   146   147    1
    33    72    71    2
    34    58    61    1
    35   147   150    1
    36    71    74   am
    37   136   137    2
    38   136   135    1
    39   152   150    1
    40   159   158    1
    41   135   134    1
    42   150   151    1
    43   160   158    1
    44    74    75    1
    45    61    62    1
    46    64    62   ar
    47    64    66   ar
    48   158   157    1
    49    62    63   ar
    50    76    75    1
    51    76    77    2
    52    66    67   ar
    53    75    78    1
    54   134   132   am
    55    90    89    1
    56    81    80   ar
    57    63    65   ar
    58   157   154    1
    59    67    65   ar
    60    67    68    1
    61   132   133    2
    62   132   131    1
    63    78    79    1
    64   153   154    1
    65    80    79    1
    66    80    82   ar
    67    86    85    2
    68   154   155    1
    69   131   130    1
    70    89    88    1
    71    83    84    1
    72    88    87    1
    73   105   103    1
    74    85    84    1
    75    85    91   am
    76   155   156    2
    77   101   102    1
    78   101   100    1
    79   130   126   am
    80    92    91    1
    81    92    93    1
    82    84    87    1
    83    35    34   ar
    84    35    33   ar
    85   103   102    2
    86   103   104    1
    87    95    93   am
    88    95    96    1
    89    99   100    1
    90    99    96    1
    91   123   122    1
    92   129   128    1
    93    34    32   ar
    94    93    94    2
    95   126   127    2
    96   126   125    1
    97    33    31   ar
    98    96    97    1
    99   128   125    1
   100    23    24   ar
   101    23    21   ar
   102   125   124    1
   103    32    30   ar
   104    24    22   ar
   105   122   121    1
   106    31    30   ar
   107    21    20   ar
   108    42    41   ar
   109   124   118   am
   110    27    28    2
   111    27    26    1
   112    22    20   ar
   113    30    29    1
   114    97    98    2
   115    97   106   am
   116    40    41    1
   117    40    37    1
   118    20    19    1
   119   115   114    1
   120    41    43   ar
   121   121   120    1
   122    36    37    1
   123    26    29    1
   124    26    25    1
   125    19    16    1
   126   106   107    1
   127   118   117    1
   128   118   119    2
   129    37    38    1
   130   117   120    1
   131   117   116    1
   132   114   111    1
   133    16    15    1
   134    16    17    1
   135   110   111    1
   136   107   108    1
   137   111   112    1
   138    38    39    2
   139   108   109    2
   140    18    17    2
   141   112   113    2
   142     4     3    2
   143    14    13    1
   144     1     2    1
   145     3     2    1
   146     3     9   am
   147    10    13    1
   148    10     9    1
   149    10    11    1
   150     5     2    1
   151     5     6    1
   152     7     6    1
   153     6     8    1
   154    11    12    2
