@<TRIPOS>MOLECULE
tmp/3qglG00.pdb
 148 145 0 0 0
SMALL
GASTEIGER

@<TRIPOS>ATOM
      1  N         27.0360  -25.9290   11.9260 N.3    12  SER12      -0.1202
      2  CA        26.6340  -26.1620   10.5430 C.3    12  SER12       0.2020
      3  C         25.1400  -25.9430   10.3040 C.2    12  SER12       0.2619
      4  O         24.5590  -26.5660    9.4140 O.2    12  SER12      -0.2717
      5  CB        27.0060  -27.5850   10.1330 C.3    12  SER12       0.2103
      6  OG        26.2100  -28.5250   10.8390 O.3    12  SER12      -0.2182
      7  N         24.5150  -25.0820   11.1000 N.am   13  GLY13      -0.1942
      8  CA        23.1170  -24.7080   10.8630 C.3    13  GLY13       0.2014
      9  C         22.0920  -25.4650   11.6830 C.2    13  GLY13       0.2639
     10  O         22.4200  -26.0520   12.7190 O.2    13  GLY13      -0.2714
     11  N         20.8490  -25.4470   11.2030 N.am   14  TYR14      -0.1959
     12  CA        19.7220  -26.0480   11.9140 C.3    14  TYR14       0.1771
     13  C         19.4080  -27.4700   11.4760 C.2    14  TYR14       0.2620
     14  O         18.5740  -28.1320   12.0880 O.2    14  TYR14      -0.2715
     15  CB        18.4720  -25.1710   11.7950 C.3    14  TYR14       0.0574
     16  CG        18.6750  -23.7800   12.3280 C.ar   14  TYR14      -0.0198
     17  CD1       18.6780  -23.5330   13.6980 C.ar   14  TYR14      -0.0009
     18  CD2       18.8800  -22.7060   11.4660 C.ar   14  TYR14      -0.0009
     19  CE1       18.8820  -22.2440   14.2000 C.ar   14  TYR14       0.0417
     20  CE2       19.0850  -21.4090   11.9570 C.ar   14  TYR14       0.0417
     21  CZ        19.0900  -21.1870   13.3250 C.ar   14  TYR14       0.1957
     22  OH        19.2970  -19.9170   13.8240 O.3    14  TYR14      -0.2866
     23  N         20.0660  -27.9370   10.4200 N.am   15  GLY15      -0.1940
     24  CA        19.9010  -29.3160    9.9510 C.3    15  GLY15       0.2014
     25  C         18.4940  -29.7180    9.5260 C.2    15  GLY15       0.2639
     26  O         17.9600  -30.7320   10.0040 O.2    15  GLY15      -0.2714
     27  N         17.8980  -28.9060    8.6480 N.am   16  PHE16      -0.1959
     28  CA        16.6430  -29.2310    7.9620 C.3    16  PHE16       0.1771
     29  C         16.4480  -28.3480    6.7250 C.2    16  PHE16       0.2620
     30  O         17.0980  -27.2960    6.5950 O.2    16  PHE16      -0.2715
     31  CB        15.4490  -29.1050    8.8960 C.3    16  PHE16       0.0574
     32  CG        14.9880  -27.7030    9.1020 C.ar   16  PHE16      -0.0200
     33  CD1       13.8560  -27.2300    8.4590 C.ar   16  PHE16      -0.0042
     34  CD2       15.6700  -26.8490    9.9510 C.ar   16  PHE16      -0.0042
     35  CE1       13.4100  -25.9210    8.6620 C.ar   16  PHE16      -0.0003
     36  CE2       15.2230  -25.5280   10.1580 C.ar   16  PHE16      -0.0003
     37  CZ        14.0990  -25.0690    9.5110 C.ar   16  PHE16      -0.0000
     38  N         15.5650  -28.7870    5.8210 N.am   17  ASN17      -0.1958
     39  CA        15.3020  -28.0850    4.5640 C.3    17  ASN17       0.1819
     40  C         13.8880  -27.5800    4.4640 C.2    17  ASN17       0.2621
     41  O         12.9400  -28.2700    4.8410 O.2    17  ASN17      -0.2715
     42  CB        15.5610  -28.9850    3.3630 C.3    17  ASN17       0.1195
     43  CG        17.0250  -29.2760    3.1530 C.2    17  ASN17       0.2630
     44  OD1       17.8560  -29.0660    4.0420 O.2    17  ASN17      -0.2716
     45  ND2       17.3550  -29.7740    1.9660 N.am   17  ASN17      -0.0877
     46  N         13.7610  -26.3760    3.9260 N.am   18  VAL18      -0.1963
     47  CA        12.4690  -25.7640    3.6860 C.3    18  VAL18       0.1727
     48  C         12.1800  -25.7430    2.1950 C.2    18  VAL18       0.2616
     49  O         13.0560  -25.4570    1.3810 O.2    18  VAL18      -0.2715
     50  CB        12.4400  -24.3480    4.2510 C.3    18  VAL18       0.0290
     51  CG1       11.3490  -23.5130    3.6040 C.3    18  VAL18       0.0023
     52  CG2       12.2430  -24.4060    5.7260 C.3    18  VAL18       0.0023
     53  N         10.9460  -26.0700    1.8430 N.am   19  ARG19      -0.1963
     54  CA        10.4980  -25.9670    0.4670 C.3    19  ARG19       0.1729
     55  C          9.0840  -25.4150    0.4290 C.2    19  ARG19       0.2617
     56  O          8.2690  -25.7260    1.2940 O.2    19  ARG19      -0.2715
     57  CB        10.5540  -27.3260   -0.2200 C.3    19  ARG19       0.0348
     58  CG        10.2520  -27.2580   -1.7040 C.3    19  ARG19       0.0492
     59  CD        10.4620  -28.5900   -2.4010 C.3    19  ARG19       0.2205
     60  NE         9.6510  -29.6400   -1.7890 N.pl3  19  ARG19      -0.0865
     61  CZ         9.7420  -30.9390   -2.0830 C.cat  19  ARG19       0.5346
     62  NH1       10.6230  -31.3700   -2.9870 N.pl3  19  ARG19       0.1354
     63  NH2        8.9540  -31.8140   -1.4590 N.pl3  19  ARG19       0.1354
     64  N          8.8030  -24.5830   -0.5660 N.am   20  GLY20      -0.1940
     65  CA         7.4690  -24.0290   -0.7330 C.3    20  GLY20       0.2014
     66  C          7.3150  -23.1290   -1.9390 C.2    20  GLY20       0.2639
     67  O          8.0900  -23.2050   -2.9010 O.2    20  GLY20      -0.2714
     68  N          6.3040  -22.2710   -1.8810 N.am   21  GLN21      -0.1963
     69  CA         5.9620  -21.4330   -3.0180 C.3    21  GLN21       0.1733
     70  C          6.8950  -20.2490   -3.1450 C.2    21  GLN21       0.2616
     71  O          7.4150  -19.7510   -2.1520 O.2    21  GLN21      -0.2715
     72  CB         4.5020  -20.9790   -2.9510 C.3    21  GLN21       0.0408
     73  CG         4.1290  -20.1660   -1.7190 C.3    21  GLN21       0.0908
     74  CD         2.7720  -19.4940   -1.8550 C.2    21  GLN21       0.2608
     75  OE1        1.9090  -19.9560   -2.6080 O.2    21  GLN21      -0.2717
     76  NE2        2.5770  -18.3940   -1.1260 N.am   21  GLN21      -0.0878
     77  N          7.0970  -19.8080   -4.3810 N.am   22  VAL22      -0.1977
     78  CA         8.0090  -18.7190   -4.6830 C.3    22  VAL22       0.1596
     79  C          7.3040  -17.3690   -4.6680 C.2    22  VAL22       0.2287
     80  O          7.9290  -16.3500   -4.3770 O.2    22  VAL22      -0.2864
     81  CB         8.7450  -18.9700   -6.0250 C.3    22  VAL22       0.0276
     82  CG1        9.0760  -17.6720   -6.7580 C.3    22  VAL22       0.0022
     83  CG2       10.0060  -19.7660   -5.7760 C.3    22  VAL22       0.0022
     84  N          6.9360  -26.0320    3.6830 N.3    41  HIS41      -0.1241
     85  CA         7.0400  -27.2720    4.4350 C.3    41  HIS41       0.1621
     86  C          8.4940  -27.7130    4.5760 C.2    41  HIS41       0.2264
     87  O          9.3670  -27.2950    3.8130 O.2    41  HIS41      -0.2867
     88  CB         6.2090  -28.3710    3.7810 C.3    41  HIS41       0.0745
     89  CG         6.7290  -28.7870    2.4440 C.ar   41  HIS41       0.0817
     90  ND1        6.3880  -28.1330    1.2780 N.ar   41  HIS41      -0.2268
     91  CD2        7.5900  -29.7690    2.0900 C.ar   41  HIS41       0.1154
     92  CE1        7.0140  -28.7020    0.2620 C.ar   41  HIS41       0.1986
     93  NE2        7.7470  -29.6980    0.7270 N.ar   41  HIS41      -0.2212
     94  N         11.1410  -30.0550    3.8870 N.3    43  SER43      -0.1202
     95  CA        11.3070  -31.0240    2.8080 C.3    43  SER43       0.2020
     96  C         12.3600  -32.0740    3.1140 C.2    43  SER43       0.2618
     97  O         12.4450  -33.0970    2.4260 O.2    43  SER43      -0.2717
     98  CB        11.6380  -30.3150    1.4920 C.3    43  SER43       0.2103
     99  OG        12.7860  -29.5000    1.6240 O.3    43  SER43      -0.2182
    100  N         13.1640  -31.8140    4.1390 N.am   44  ALA44      -0.1979
    101  CA        14.2090  -32.7420    4.5640 C.3    44  ALA44       0.1597
    102  C         14.6390  -32.4200    5.9860 C.2    44  ALA44       0.2287
    103  O         14.7280  -31.2530    6.3620 O.2    44  ALA44      -0.2864
    104  CB        15.4020  -32.6720    3.6190 C.3    44  ALA44       0.0319
    105  N         17.8030  -33.3970    8.5240 N.3    46  LEU46      -0.1245
    106  CA        19.0940  -34.0320    8.7030 C.3    46  LEU46       0.1561
    107  C         19.0580  -34.9030    9.9550 C.2    46  LEU46       0.2260
    108  O         18.8260  -34.3830   11.0540 O.2    46  LEU46      -0.2867
    109  CB        20.1970  -32.9750    8.8110 C.3    46  LEU46       0.0270
    110  CG        21.6460  -33.4220    9.0490 C.3    46  LEU46       0.0019
    111  CD1       22.1650  -34.2390    7.8870 C.3    46  LEU46       0.0001
    112  CD2       22.5250  -32.2160    9.2670 C.3    46  LEU46       0.0001
    113  N          8.7880  -18.2330   -0.3420 N.3    75  HIS75      -0.1241
    114  CA         9.9170  -18.9970    0.1350 C.3    75  HIS75       0.1621
    115  C         11.0560  -18.1080    0.6180 C.2    75  HIS75       0.2264
    116  O         11.5590  -18.2910    1.7200 O.2    75  HIS75      -0.2867
    117  CB        10.3970  -19.9210   -0.9690 C.3    75  HIS75       0.0745
    118  CG        11.4000  -20.9240   -0.5140 C.ar   75  HIS75       0.0817
    119  ND1       12.7400  -20.8160   -0.8120 N.ar   75  HIS75      -0.2268
    120  CD2       11.2650  -22.0480    0.2260 C.ar   75  HIS75       0.1154
    121  CE1       13.3860  -21.8350   -0.2810 C.ar   75  HIS75       0.1986
    122  NE2       12.5140  -22.5970    0.3550 N.ar   75  HIS75      -0.2212
    123  N         12.7400  -18.1750    4.4910 N.3    79  VAL79      -0.1245
    124  CA        14.1390  -18.5200    4.7680 C.3    79  VAL79       0.1561
    125  C         14.9030  -17.3290    5.3200 C.2    79  VAL79       0.2260
    126  O         15.7480  -17.4980    6.1910 O.2    79  VAL79      -0.2867
    127  CB        14.8990  -19.1380    3.5640 C.3    79  VAL79       0.0252
    128  CG1       14.2550  -20.4290    3.1410 C.3    79  VAL79       0.0019
    129  CG2       14.9920  -18.1670    2.3900 C.3    79  VAL79       0.0019
    130  N         14.1770  -17.1330    9.0690 N.3    82  ILE82      -0.1231
    131  CA        14.9590  -18.1100    9.8240 C.3    82  ILE82       0.1692
    132  C         16.3990  -17.6370   10.0450 C.2    82  ILE82       0.2591
    133  O         16.9360  -17.7000   11.1640 O.2    82  ILE82      -0.2718
    134  CB        15.0020  -19.4630    9.1240 C.3    82  ILE82       0.0266
    135  CG1       13.6550  -20.1600    9.2310 C.3    82  ILE82       0.0019
    136  CG2       16.0520  -20.3460    9.7500 C.3    82  ILE82       0.0020
    137  CD1       12.9240  -20.2640    7.9310 C.3    82  ILE82       0.0001
    138  N         17.0170  -17.1540    8.9730 N.am   83  ARG83      -0.1980
    139  CA        18.4230  -16.7950    9.0060 C.3    83  ARG83       0.1597
    140  C         18.6830  -15.4980    9.7740 C.2    83  ARG83       0.2287
    141  O         19.8400  -15.1510   10.0380 O.2    83  ARG83      -0.2864
    142  CB        18.9830  -16.7330    7.5830 C.3    83  ARG83       0.0334
    143  CG        18.9360  -18.0690    6.8500 C.3    83  ARG83       0.0492
    144  CD        19.9560  -18.1050    5.7270 C.3    83  ARG83       0.2205
    145  NE        19.9650  -19.3790    5.0030 N.pl3  83  ARG83      -0.0865
    146  CZ        19.8190  -19.5040    3.6830 C.cat  83  ARG83       0.5346
    147  NH1       19.6550  -18.4310    2.9180 N.pl3  83  ARG83       0.1354
    148  NH2       19.8440  -20.7070    3.1210 N.pl3  83  ARG83       0.1354
@<TRIPOS>BOND
     1    82    81    1
     2    81    83    1
     3    81    78    1
     4    78    79    1
     5    78    77    1
     6    79    80    2
     7    77    70   am
     8    70    69    1
     9    70    71    2
    10    69    72    1
    11    69    68    1
    12    62    61    1
    13    72    73    1
    14    67    66    2
    15    75    74    2
    16    59    60    1
    17    59    58    1
    18    61    60    2
    19    61    63    1
    20    66    68   am
    21    66    65    1
    22    74    73    1
    23    74    76   am
    24    58    57    1
    25   117   118    1
    26   117   114    1
    27   119   118   ar
    28   119   121   ar
    29    65    64    1
    30    64    55   am
    31   118   120   ar
    32   113   114    1
    33   121   122   ar
    34    57    54    1
    35   114   115    1
    36   120   122   ar
    37    92    93   ar
    38    92    90   ar
    39    55    54    1
    40    55    56    2
    41    54    53    1
    42   115   116    2
    43    93    91   ar
    44    90    89   ar
    45    49    48    2
    46    98    99    1
    47    98    95    1
    48    53    48   am
    49    45    43   am
    50    91    89   ar
    51    48    47    1
    52   129   127    1
    53    97    96    2
    54    89    88    1
    55    95    96    1
    56    95    94    1
    57   147   146    1
    58    96   100   am
    59   148   146    1
    60   128   127    1
    61    43    42    1
    62    43    44    2
    63    42    39    1
    64   127   124    1
    65    51    50    1
    66   104   101    1
    67    84    85    1
    68   146   145    2
    69    47    46    1
    70    47    50    1
    71    88    85    1
    72    87    86    2
    73    46    40   am
    74   100   101    1
    75    50    52    1
    76    85    86    1
    77    40    39    1
    78    40    41    2
    79   123   124    1
    80    39    38    1
    81   101   102    1
    82   124   125    1
    83   145   144    1
    84   125   126    2
    85   144   143    1
    86    38    29   am
    87   102   103    2
    88    30    29    2
    89    29    28    1
    90   143   142    1
    91   142   139    1
    92   111   110    1
    93   137   135    1
    94    28    27    1
    95    28    31    1
    96    33    35   ar
    97    33    32   ar
    98   105   106    1
    99    27    25   am
   100    35    37   ar
   101   106   109    1
   102   106   107    1
   103   109   110    1
   104    31    32    1
   105   138   139    1
   106   138   132   am
   107   139   140    1
   108   110   112    1
   109   130   131    1
   110    32    34   ar
   111   134   135    1
   112   134   136    1
   113   134   131    1
   114     4     3    2
   115    37    36   ar
   116    25    24    1
   117    25    26    2
   118   140   141    2
   119   131   132    1
   120    24    23    1
   121    34    36   ar
   122   107   108    2
   123   132   133    2
   124     5     2    1
   125     5     6    1
   126     3     2    1
   127     3     7   am
   128    23    13   am
   129     2     1    1
   130     8     7    1
   131     8     9    1
   132    11     9   am
   133    11    12    1
   134    18    20   ar
   135    18    16   ar
   136    13    12    1
   137    13    14    2
   138     9    10    2
   139    15    12    1
   140    15    16    1
   141    20    21   ar
   142    16    17   ar
   143    21    22    1
   144    21    19   ar
   145    17    19   ar
