@<TRIPOS>MOLECULE
tmp/3qgoA03.pdb
 111 111 0 0 0
SMALL
GASTEIGER

@<TRIPOS>ATOM
      1  N         24.0050    6.1750   46.6980 N.3   178  PHE178     -0.1241
      2  CA        22.6450    6.0940   47.2300 C.3   178  PHE178      0.1605
      3  C         22.2070    4.6390   47.4500 C.2   178  PHE178      0.2264
      4  O         21.5120    4.3570   48.4290 O.2   178  PHE178     -0.2867
      5  CB        21.6490    6.8270   46.3270 C.3   178  PHE178      0.0534
      6  CG        21.5130    8.2980   46.6490 C.ar  178  PHE178     -0.0203
      7  CD1       20.6940    8.7200   47.6860 C.ar  178  PHE178     -0.0042
      8  CD2       22.2240    9.2570   45.9710 C.ar  178  PHE178     -0.0042
      9  CE1       20.5900   10.0580   47.9860 C.ar  178  PHE178     -0.0003
     10  CE2       22.1170   10.6110   46.2800 C.ar  178  PHE178     -0.0003
     11  CZ        21.2920   11.0060   47.3040 C.ar  178  PHE178     -0.0000
     12  N         24.5700    9.2540   51.8120 N.3   184  PRO184     -0.2102
     13  CA        24.5420    9.5850   50.3870 C.3   184  PRO184      0.1504
     14  C         24.2610   11.0660   50.1320 C.2   184  PRO184      0.2576
     15  O         23.5630   11.7410   50.9010 O.2   184  PRO184     -0.2718
     16  CB        23.4280    8.7210   49.8510 C.3   184  PRO184      0.0282
     17  CG        22.4780    8.6550   51.0260 C.3   184  PRO184      0.0208
     18  CD        23.3700    8.5150   52.2280 C.3   184  PRO184      0.0893
     19  N         24.7770   11.5460   48.9980 N.am  185  ASP185     -0.1960
     20  CA        24.6700   12.9540   48.6100 C.3   185  ASP185      0.1840
     21  C         24.9050   13.0510   47.1240 C.2   185  ASP185      0.2622
     22  O         25.2010   12.0430   46.4650 O.2   185  ASP185     -0.2715
     23  CB        25.6500   13.8230   49.4030 C.3   185  ASP185      0.1450
     24  CG        27.0560   13.2700   49.3560 C.2   185  ASP185      0.3671
     25  OD1       27.5400   13.1080   48.2150 O.co2 185  ASP185     -0.2456
     26  OD2       27.6590   12.9370   50.4280 O.co2 185  ASP185     -0.2456
     27  N         24.7910   14.2690   46.6240 N.am  186  TRP186     -0.1974
     28  CA        25.0140   14.6210   45.2140 C.3   186  TRP186      0.1640
     29  C         26.3580   15.3440   45.0380 C.2   186  TRP186      0.2290
     30  O         26.5570   16.0960   44.0800 O.2   186  TRP186     -0.2864
     31  CB        23.8480   15.4810   44.6990 C.3   186  TRP186      0.0576
     32  CG        22.5620   14.7230   44.6510 C.ar  186  TRP186      0.0006
     33  CD1       21.6430   14.6260   45.6420 C.ar  186  TRP186      0.0946
     34  CD2       22.0590   13.9580   43.5710 C.ar  186  TRP186      0.0152
     35  NE1       20.6150   13.8020   45.2780 N.ar  186  TRP186     -0.2442
     36  CE2       20.8350   13.3690   44.0060 C.ar  186  TRP186      0.0810
     37  CE3       22.5230   13.6730   42.2890 C.ar  186  TRP186      0.0012
     38  CZ2       20.0590   12.5780   43.1920 C.ar  186  TRP186      0.0191
     39  CZ3       21.7330   12.8860   41.4740 C.ar  186  TRP186      0.0001
     40  CH2       20.5300   12.3450   41.9310 C.ar  186  TRP186      0.0015
     41  N         21.0720   16.0700   38.1010 N.3   242  TYR242     -0.1241
     42  CA        20.5820   16.4450   39.4120 C.3   242  TYR242      0.1605
     43  C         19.1470   17.0130   39.3200 C.2   242  TYR242      0.2264
     44  O         18.2740   16.6320   40.1020 O.2   242  TYR242     -0.2867
     45  CB        21.5330   17.4760   40.0110 C.3   242  TYR242      0.0534
     46  CG        20.9990   18.0700   41.2970 C.ar  242  TYR242     -0.0201
     47  CD1       21.1300   17.4100   42.5220 C.ar  242  TYR242     -0.0009
     48  CD2       20.3360   19.2870   41.2800 C.ar  242  TYR242     -0.0009
     49  CE1       20.6150   17.9340   43.6750 C.ar  242  TYR242      0.0417
     50  CE2       19.8070   19.7970   42.4360 C.ar  242  TYR242      0.0417
     51  CZ        19.9410   19.1210   43.6210 C.ar  242  TYR242      0.1957
     52  OH        19.3880   19.6680   44.7300 O.3   242  TYR242     -0.2866
     53  N         16.4240   14.3640   38.5720 N.3   245  SER245     -0.1202
     54  CA        16.0970   13.5750   39.7530 C.3   245  SER245      0.2020
     55  C         15.3730   14.4260   40.8000 C.2   245  SER245      0.2618
     56  O         14.2920   14.0710   41.2660 O.2   245  SER245     -0.2717
     57  CB        17.3650   12.9860   40.3400 C.3   245  SER245      0.2103
     58  OG        17.0490   12.2000   41.4700 O.3   245  SER245     -0.2182
     59  N         15.9930   15.5390   41.1790 N.am  246  GLN246     -0.1979
     60  CA        15.6010   16.2330   42.3850 C.3   246  GLN246      0.1601
     61  C         14.6580   17.4040   42.1430 C.2   246  GLN246      0.2287
     62  O         13.9990   17.8920   43.0930 O.2   246  GLN246     -0.2864
     63  CB        16.8340   16.6990   43.1060 C.3   246  GLN246      0.0394
     64  CG        17.7790   15.5320   43.5470 C.3   246  GLN246      0.0908
     65  CD        17.0930   14.5110   44.3700 C.2   246  GLN246      0.2608
     66  OE1       16.7890   13.4270   43.9020 O.2   246  GLN246     -0.2717
     67  NE2       16.8130   14.8500   45.6150 N.am  246  GLN246     -0.0878
     68  N         11.0500   17.1790   39.4540 N.3   257  GLY257     -0.1210
     69  CA        11.9090   16.0450   39.6660 C.3   257  GLY257      0.1956
     70  C         11.1390   14.7570   39.5920 C.2   257  GLY257      0.2612
     71  O          9.9600   14.6870   40.0160 O.2   257  GLY257     -0.2717
     72  N         11.8090   13.7190   39.0840 N.am  258  ILE258     -0.1965
     73  CA        11.2090   12.3970   38.9480 C.3   258  ILE258      0.1727
     74  C         11.8930   11.3320   39.7610 C.2   258  ILE258      0.2617
     75  O         11.4600   10.1740   39.7570 O.2   258  ILE258     -0.2715
     76  CB        11.1310   11.9990   37.4160 C.3   258  ILE258      0.0290
     77  CG1       12.5190   11.7850   36.8000 C.3   258  ILE258      0.0022
     78  CG2       10.2710   13.0390   36.6650 C.3   258  ILE258      0.0023
     79  CD1       12.5080   11.3380   35.3540 C.3   258  ILE258      0.0001
     80  N         12.9320   11.7310   40.5070 N.am  259  GLY259     -0.1940
     81  CA        13.6230   10.8340   41.4190 C.3   259  GLY259      0.2014
     82  C         14.7810   10.0550   40.8190 C.2   259  GLY259      0.2639
     83  O         14.9220    9.9160   39.5840 O.2   259  GLY259     -0.2714
     84  N         15.6170    9.5400   41.7050 N.am  260  ARG260     -0.1963
     85  CA        16.8940    8.9150   41.3480 C.3   260  ARG260      0.1729
     86  C         16.7550    7.6490   40.5290 C.2   260  ARG260      0.2616
     87  O         17.5560    7.3890   39.6360 O.2   260  ARG260     -0.2715
     88  CB        17.6650    8.5360   42.6010 C.3   260  ARG260      0.0348
     89  CG        18.3320    9.6540   43.2490 C.3   260  ARG260      0.0492
     90  CD        19.0110    9.1800   44.5470 C.3   260  ARG260      0.2205
     91  NE        18.0330    8.9070   45.5940 N.pl3 260  ARG260     -0.0865
     92  CZ        17.6560    7.6990   45.9840 C.cat 260  ARG260      0.5346
     93  NH1       18.1960    6.6230   45.4290 N.pl3 260  ARG260      0.1354
     94  NH2       16.7430    7.5710   46.9440 N.pl3 260  ARG260      0.1354
     95  N         15.7630    6.8140   40.8410 N.am  261  ASP261     -0.1957
     96  CA        15.6420    5.5240   40.1780 C.3   261  ASP261      0.1840
     97  C         15.3010    5.7440   38.6910 C.2   261  ASP261      0.2621
     98  O         15.8400    5.0980   37.8010 O.2   261  ASP261     -0.2715
     99  CB        14.6090    4.6330   40.8490 C.3   261  ASP261      0.1450
    100  CG        14.9860    4.2170   42.2880 C.2   261  ASP261      0.3671
    101  OD1       16.1620    4.2490   42.6510 O.co2 261  ASP261     -0.2456
    102  OD2       14.0790    3.7700   43.0370 O.co2 261  ASP261     -0.2456
    103  N         14.3900    6.6700   38.3980 N.am  262  LYS262     -0.1977
    104  CA        14.0510    6.9690   36.9800 C.3   262  LYS262      0.1596
    105  C         15.2410    7.6440   36.3090 C.2   262  LYS262      0.2287
    106  O         15.4980    7.4080   35.1290 O.2   262  LYS262     -0.2864
    107  CB        12.7830    7.8220   36.9040 C.3   262  LYS262      0.0298
    108  CG        11.5710    7.0440   37.3230 C.3   262  LYS262      0.0038
    109  CD        10.2840    7.8680   37.2960 C.3   262  LYS262      0.0206
    110  CE         9.0580    7.0370   37.5990 C.3   262  LYS262      0.1093
    111  NZ         7.8360    7.9170   37.6950 N.3   262  LYS262     -0.1314
@<TRIPOS>BOND
     1   106   105    2
     2    79    77    1
     3   105   104    1
     4    78    76    1
     5    77    76    1
     6   107   104    1
     7   107   108    1
     8   104   103    1
     9   109   108    1
    10   109   110    1
    11    76    73    1
    12   110   111    1
    13    98    97    2
    14    41    42    1
    15   103    97   am
    16    53    54    1
    17    97    96    1
    18    73    72    1
    19    73    74    1
    20    72    70   am
    21    43    42    1
    22    43    44    2
    23    42    45    1
    24    68    69    1
    25    83    82    2
    26    70    69    1
    27    70    71    2
    28    87    86    2
    29    54    57    1
    30    54    55    1
    31    75    74    2
    32    74    80   am
    33    45    46    1
    34    96    95    1
    35    96    99    1
    36    57    58    1
    37    80    81    1
    38    86    95   am
    39    86    85    1
    40    55    59   am
    41    55    56    2
    42    82    81    1
    43    82    84   am
    44    99   100    1
    45    59    60    1
    46    48    46   ar
    47    48    50   ar
    48    46    47   ar
    49    85    84    1
    50    85    88    1
    51    39    40   ar
    52    39    37   ar
    53    40    38   ar
    54    61    60    1
    55    61    62    2
    56   100   101   ar
    57   100   102   ar
    58    37    34   ar
    59    60    63    1
    60    50    51   ar
    61    47    49   ar
    62    88    89    1
    63    63    64    1
    64    38    36   ar
    65    89    90    1
    66    64    65    1
    67    34    36   ar
    68    34    32   ar
    69    51    49   ar
    70    51    52    1
    71    66    65    2
    72    36    35   ar
    73    30    29    2
    74    65    67   am
    75    90    91    1
    76    32    31    1
    77    32    33   ar
    78    31    28    1
    79    29    28    1
    80    28    27    1
    81    35    33   ar
    82    93    92    1
    83    91    92    2
    84     8    10   ar
    85     8     6   ar
    86    92    94    1
    87    10    11   ar
    88     5     6    1
    89     5     2    1
    90    22    21    2
    91    27    21   am
    92     6     7   ar
    93     1     2    1
    94    21    20    1
    95     2     3    1
    96    11     9   ar
    97     3     4    2
    98     7     9   ar
    99    25    24   ar
   100    20    19    1
   101    20    23    1
   102    19    14   am
   103    24    23    1
   104    24    26   ar
   105    16    13    1
   106    16    17    1
   107    14    13    1
   108    14    15    2
   109    13    12    1
   110    17    18    1
   111    12    18    1
