@<TRIPOS>MOLECULE
tmp/3qgoA00.pdb
 127 122 0 0 0
SMALL
GASTEIGER

@<TRIPOS>ATOM
      1  N         44.8180   10.4880   43.1300 N.3   112  ASN112     -0.1225
      2  CA        43.8710   10.1240   42.1470 C.3   112  ASN112      0.1785
      3  C         43.6130    8.6090   42.1430 C.2   112  ASN112      0.2597
      4  O         44.2800    7.8380   42.8420 O.2   112  ASN112     -0.2718
      5  CB        44.4040   10.5910   40.7860 C.3   112  ASN112      0.1169
      6  CG        43.4210   10.5090   39.7450 C.2   112  ASN112      0.2627
      7  OD1       42.2470   10.8440   39.9310 O.2   112  ASN112     -0.2716
      8  ND2       43.9100   10.0360   38.5080 N.am  112  ASN112     -0.0877
      9  N         42.6260    8.2230   41.3330 N.am  113  ALA113     -0.1966
     10  CA        42.2360    6.8290   41.0640 C.3   113  ALA113      0.1728
     11  C         41.7160    6.7970   39.6420 C.2   113  ALA113      0.2616
     12  O         41.2310    7.8240   39.1550 O.2   113  ALA113     -0.2715
     13  CB        41.1680    6.3140   42.0220 C.3   113  ALA113      0.0334
     14  N         41.8230    5.6510   38.9730 N.am  114  PHE114     -0.1974
     15  CA        41.4220    5.5740   37.5920 C.3   114  PHE114      0.1639
     16  C         41.1630    4.1520   37.1420 C.2   114  PHE114      0.2290
     17  O         41.6910    3.2180   37.6730 O.2   114  PHE114     -0.2864
     18  CB        42.4320    6.2840   36.6760 C.3   114  PHE114      0.0560
     19  CG        43.8340    5.7390   36.7370 C.ar  114  PHE114     -0.0200
     20  CD1       44.7180    6.1920   37.6850 C.ar  114  PHE114     -0.0042
     21  CD2       44.2690    4.7760   35.8540 C.ar  114  PHE114     -0.0042
     22  CE1       46.0190    5.6990   37.7490 C.ar  114  PHE114     -0.0003
     23  CE2       45.5420    4.3010   35.9260 C.ar  114  PHE114     -0.0003
     24  CZ        46.4350    4.7510   36.8660 C.ar  114  PHE114     -0.0000
     25  N         43.9080   14.2510   49.6670 N.3   130  PHE130     -0.1241
     26  CA        43.1740   13.0170   49.6770 C.3   130  PHE130      0.1605
     27  C         43.7900   12.0770   50.6930 C.2   130  PHE130      0.2264
     28  O         45.0190   12.0620   50.9080 O.2   130  PHE130     -0.2867
     29  CB        43.1980   12.2670   48.3340 C.3   130  PHE130      0.0534
     30  CG        42.2560   12.8280   47.3080 C.ar  130  PHE130     -0.0203
     31  CD1       40.9270   12.5180   47.3520 C.ar  130  PHE130     -0.0042
     32  CD2       42.7120   13.6190   46.2560 C.ar  130  PHE130     -0.0042
     33  CE1       40.0260   13.0020   46.3760 C.ar  130  PHE130     -0.0003
     34  CE2       41.8000   14.1190   45.3070 C.ar  130  PHE130     -0.0003
     35  CZ        40.4740   13.7850   45.3740 C.ar  130  PHE130     -0.0000
     36  N         42.0090    6.6250   48.0640 N.3   133  LEU133     -0.1245
     37  CA        40.8320    7.0280   47.3500 C.3   133  LEU133      0.1561
     38  C         39.7520    5.9630   47.2500 C.2   133  LEU133      0.2260
     39  O         38.5680    6.3060   47.0130 O.2   133  LEU133     -0.2867
     40  CB        41.1780    7.5710   45.9480 C.3   133  LEU133      0.0270
     41  CG        41.7200    9.0270   45.9410 C.3   133  LEU133      0.0019
     42  CD1       43.2000    9.1360   46.2190 C.3   133  LEU133      0.0001
     43  CD2       41.2550    9.8230   44.7200 C.3   133  LEU133      0.0001
     44  N         31.7080    6.5870   45.9410 N.3   138  ASP138     -0.1225
     45  CA        31.4700    7.3270   44.6770 C.3   138  ASP138      0.1805
     46  C         32.6690    7.3330   43.7780 C.2   138  ASP138      0.2597
     47  O         32.5020    7.3030   42.5780 O.2   138  ASP138     -0.2718
     48  CB        30.8430    8.7210   44.9140 C.3   138  ASP138      0.1424
     49  CG        31.6900    9.6890   45.7350 C.2   138  ASP138      0.3668
     50  OD1       32.8470    9.3740   46.1150 O.co2 138  ASP138     -0.2456
     51  OD2       31.1620   10.8030   46.0280 O.co2 138  ASP138     -0.2456
     52  N         33.8740    7.3130   44.3380 N.am  139  VAL139     -0.1980
     53  CA        35.0970    7.2300   43.5490 C.3   139  VAL139      0.1595
     54  C         35.1990    5.8410   42.8890 C.2   139  VAL139      0.2287
     55  O         35.4530    5.7180   41.6910 O.2   139  VAL139     -0.2864
     56  CB        36.3690    7.4500   44.4350 C.3   139  VAL139      0.0276
     57  CG1       37.6320    7.2710   43.5930 C.3   139  VAL139      0.0022
     58  CG2       36.3040    8.8220   45.1000 C.3   139  VAL139      0.0022
     59  N         32.4950    5.5960   40.3050 N.3   142  HIS142     -0.1226
     60  CA        32.8370    6.4880   39.1820 C.3   142  HIS142      0.1752
     61  C         33.8090    5.7720   38.2440 C.2   142  HIS142      0.2595
     62  O         33.6110    5.7190   37.0200 O.2   142  HIS142     -0.2718
     63  CB        33.4480    7.8010   39.7360 C.3   142  HIS142      0.0759
     64  CG        34.0460    8.7190   38.6910 C.ar  142  HIS142      0.0818
     65  ND1       33.5010    9.9580   38.3940 N.ar  142  HIS142     -0.2268
     66  CD2       35.1220    8.5700   37.8700 C.ar  142  HIS142      0.1154
     67  CE1       34.2180   10.5120   37.4190 C.ar  142  HIS142      0.1986
     68  NE2       35.2320    9.7170   37.1270 N.ar  142  HIS142     -0.2212
     69  N         34.8410    5.1730   38.7670 N.am  143  GLU143     -0.1979
     70  CA        35.8230    4.6250   37.8570 C.3   143  GLU143      0.1602
     71  C         35.3900    3.2630   37.2800 C.2   143  GLU143      0.2287
     72  O         35.6940    2.9690   36.1140 O.2   143  GLU143     -0.2864
     73  CB        37.1660    4.6300   38.5190 C.3   143  GLU143      0.0415
     74  CG        37.6760    6.0120   38.8850 C.3   143  GLU143      0.1163
     75  CD        38.1550    6.8220   37.7010 C.2   143  GLU143      0.3649
     76  OE1       38.4250    6.2230   36.6230 O.co2 143  GLU143     -0.2457
     77  OE2       38.2580    8.0610   37.8590 O.co2 143  GLU143     -0.2457
     78  N         32.6560   11.6280   31.6550 N.3   166  GLU166     -0.1245
     79  CA        32.8790   12.0010   33.0570 C.3   166  GLU166      0.1567
     80  C         31.5880   12.1360   33.8470 C.2   166  GLU166      0.2260
     81  O         31.4890   11.6490   34.9780 O.2   166  GLU166     -0.2867
     82  CB        33.6900   13.3020   33.1450 C.3   166  GLU166      0.0388
     83  CG        35.1930   13.0720   33.1570 C.3   166  GLU166      0.1160
     84  CD        35.5740   12.2390   34.3720 C.2   166  GLU166      0.3649
     85  OE1       35.1950   12.6300   35.5030 O.co2 166  GLU166     -0.2457
     86  OE2       36.1730   11.2150   34.1730 O.co2 166  GLU166     -0.2457
     87  N         30.7800   14.8270   44.9870 N.3   188  ILE188     -0.1231
     88  CA        31.7180   13.8220   44.4780 C.3   188  ILE188      0.1692
     89  C         33.0210   13.8360   45.2230 C.2   188  ILE188      0.2592
     90  O         33.7530   14.8470   45.2070 O.2   188  ILE188     -0.2718
     91  CB        31.9770   14.0340   42.9700 C.3   188  ILE188      0.0266
     92  CG1       30.6630   14.0870   42.1500 C.3   188  ILE188      0.0019
     93  CG2       32.9660   12.9970   42.4250 C.3   188  ILE188      0.0020
     94  CD1       29.8730   12.7890   42.0980 C.3   188  ILE188      0.0001
     95  N         33.2970   12.7230   45.9060 N.am  189  GLY189     -0.1957
     96  CA        34.5900   12.4980   46.5470 C.3   189  GLY189      0.1869
     97  C         34.7200   12.9360   47.9920 C.2   189  GLY189      0.2309
     98  O         35.7970   12.8540   48.5410 O.2   189  GLY189     -0.2863
     99  N         35.2840   17.2660   45.8020 N.3   202  LEU202     -0.1231
    100  CA        36.0490   17.5980   44.6120 C.3   202  LEU202      0.1693
    101  C         35.1950   18.2540   43.5560 C.2   202  LEU202      0.2591
    102  O         35.6060   19.2270   42.9500 O.2   202  LEU202     -0.2718
    103  CB        36.7130   16.3300   44.0620 C.3   202  LEU202      0.0284
    104  CG        37.6480   16.5750   42.8590 C.3   202  LEU202      0.0019
    105  CD1       38.8600   17.4970   43.1910 C.3   202  LEU202      0.0001
    106  CD2       38.1140   15.2240   42.2320 C.3   202  LEU202      0.0001
    107  N         33.9800   17.7200   43.3820 N.am  203  ARG203     -0.1980
    108  CA        32.9770   18.3160   42.5180 C.3   203  ARG203      0.1597
    109  C         31.6200   18.2610   43.2030 C.2   203  ARG203      0.2287
    110  O         31.4220   17.4950   44.1560 O.2   203  ARG203     -0.2864
    111  CB        32.8640   17.5550   41.1680 C.3   203  ARG203      0.0334
    112  CG        34.0440   17.6380   40.2720 C.3   203  ARG203      0.0492
    113  CD        33.9000   16.8560   39.0050 C.3   203  ARG203      0.2205
    114  NE        33.8550   15.4280   39.1720 N.pl3 203  ARG203     -0.0865
    115  CZ        34.9350   14.6370   39.2030 C.cat 203  ARG203      0.5346
    116  NH1       36.1690   15.1610   39.2630 N.pl3 203  ARG203      0.1354
    117  NH2       34.7870   13.3260   39.2520 N.pl3 203  ARG203      0.1354
    118  N         36.5030   17.2580   32.9260 N.3   231  HIS231     -0.1241
    119  CA        36.0490   17.3190   34.3410 C.3   231  HIS231      0.1621
    120  C         35.4520   18.6580   34.6940 C.2   231  HIS231      0.2264
    121  O         35.0130   18.8550   35.8650 O.2   231  HIS231     -0.2867
    122  CB        37.2340   17.1250   35.2970 C.3   231  HIS231      0.0745
    123  CG        37.9290   15.8100   35.1870 C.ar  231  HIS231      0.0817
    124  ND1       38.9700   15.5900   34.3100 N.ar  231  HIS231     -0.2268
    125  CD2       37.6790   14.6200   35.7880 C.ar  231  HIS231      0.1154
    126  CE1       39.3560   14.3260   34.4170 C.ar  231  HIS231      0.1986
    127  NE2       38.5840   13.7150   35.3010 N.ar  231  HIS231     -0.2212
@<TRIPOS>BOND
     1    78    79    1
     2   118   119    1
     3    79    82    1
     4    79    80    1
     5    82    83    1
     6    83    84    1
     7    80    81    2
     8    86    84   ar
     9   124   126   ar
    10   124   123   ar
    11   119   120    1
    12   119   122    1
    13    84    85   ar
    14   126   127   ar
    15   120   121    2
    16   123   122    1
    17   123   125   ar
    18   127   125   ar
    19    21    23   ar
    20    21    19   ar
    21    23    24   ar
    22    72    71    2
    23    76    75   ar
    24    18    19    1
    25    18    15    1
    26    19    20   ar
    27    24    22   ar
    28    62    61    2
    29    68    67   ar
    30    68    66   ar
    31    16    15    1
    32    16    17    2
    33    71    70    1
    34    67    65   ar
    35    15    14    1
    36    20    22   ar
    37    75    77   ar
    38    75    74    1
    39    70    73    1
    40    70    69    1
    41    66    64   ar
    42    61    69   am
    43    61    60    1
    44    65    64   ar
    45     8     6   am
    46    73    74    1
    47    64    63    1
    48    14    11   am
    49   113   114    1
    50   113   112    1
    51    12    11    2
    52   114   115    2
    53    60    63    1
    54    60    59    1
    55   115   117    1
    56   115   116    1
    57    11    10    1
    58     6     7    2
    59     6     5    1
    60   112   111    1
    61     5     2    1
    62    10     9    1
    63    10    13    1
    64   111   108    1
    65     9     3   am
    66    55    54    2
    67    94    92    1
    68     3     2    1
    69     3     4    2
    70     2     1    1
    71    92    91    1
    72   106   104    1
    73    93    91    1
    74   108   109    1
    75   108   107    1
    76    47    46    2
    77   104   105    1
    78   104   103    1
    79    54    53    1
    80   102   101    2
    81    91    88    1
    82   109   110    2
    83   107   101   am
    84    53    52    1
    85    53    56    1
    86   101   100    1
    87    57    56    1
    88    46    52   am
    89    46    45    1
    90   103   100    1
    91    56    58    1
    92    88    87    1
    93    88    89    1
    94   100    99    1
    95    45    48    1
    96    45    44    1
    97    43    41    1
    98    48    49    1
    99    90    89    2
   100    89    95   am
   101    34    35   ar
   102    34    32   ar
   103    35    33   ar
   104    49    51   ar
   105    49    50   ar
   106    95    96    1
   107    41    40    1
   108    41    42    1
   109    40    37    1
   110    32    30   ar
   111    33    31   ar
   112    96    97    1
   113    39    38    2
   114    38    37    1
   115    30    31   ar
   116    30    29    1
   117    37    36    1
   118    97    98    2
   119    29    26    1
   120    25    26    1
   121    26    27    1
   122    27    28    2
