@<TRIPOS>MOLECULE
tmp/3qgpB00.pdb
 230 218 0 0 0
SMALL
GASTEIGER

@<TRIPOS>ATOM
      1  N        -11.7880  -10.5850   26.0980 N.3     6  ALA6       -0.1231
      2  CA       -13.0020   -9.8110   26.3380 C.3     6  ALA6        0.1694
      3  C        -13.4280   -9.1280   25.0480 C.2     6  ALA6        0.2592
      4  O        -12.6080   -8.5150   24.3600 O.2     6  ALA6       -0.2718
      5  CB       -12.7730   -8.7750   27.4460 C.3     6  ALA6        0.0304
      6  N        -14.7170   -9.2380   24.7300 N.am    7  GLU7       -0.1966
      7  CA       -15.2730   -8.6300   23.5470 C.3     7  GLU7        0.1733
      8  C        -16.3000   -7.5960   23.9470 C.2     7  GLU7        0.2616
      9  O        -17.1610   -7.8760   24.7880 O.2     7  GLU7       -0.2715
     10  CB       -15.9680   -9.7110   22.7220 C.3     7  GLU7        0.0429
     11  CG       -16.9840   -9.2030   21.7130 C.3     7  GLU7        0.1163
     12  CD       -17.6840  -10.3270   20.9640 C.2     7  GLU7        0.3649
     13  OE1      -17.2210  -11.4900   21.0390 O.co2   7  GLU7       -0.2457
     14  OE2      -18.6910  -10.0360   20.2910 O.co2   7  GLU7       -0.2457
     15  N        -16.2230   -6.4100   23.3450 N.am    8  ASN8       -0.1972
     16  CA       -17.3570   -5.4960   23.3790 C.3     8  ASN8        0.1688
     17  C        -17.9870   -5.4940   22.0060 C.2     8  ASN8        0.2292
     18  O        -17.3340   -5.1610   21.0200 O.2     8  ASN8       -0.2864
     19  CB       -16.9450   -4.0680   23.7840 C.3     8  ASN8        0.1181
     20  CG       -18.1260   -3.2560   24.2770 C.2     8  ASN8        0.2629
     21  OD1      -19.0100   -3.7840   24.9730 O.2     8  ASN8       -0.2716
     22  ND2      -18.1630   -1.9840   23.9140 N.am    8  ASN8       -0.0877
     23  N        -20.5170   -3.8960   19.5470 N.3    10  LEU10      -0.1245
     24  CA       -21.2730   -2.6800   19.2730 C.3    10  LEU10       0.1561
     25  C        -22.3860   -2.8980   18.2420 C.2    10  LEU10       0.2260
     26  O        -22.1350   -3.2810   17.0860 O.2    10  LEU10      -0.2867
     27  CB       -20.3480   -1.5370   18.8360 C.3    10  LEU10       0.0270
     28  CG       -19.2720   -1.1190   19.8340 C.3    10  LEU10       0.0019
     29  CD1      -18.3740   -0.0760   19.1710 C.3    10  LEU10       0.0001
     30  CD2      -19.8940   -0.5700   21.1110 C.3    10  LEU10       0.0001
     31  N        -17.1860    4.6460   13.0300 N.3    20  THR20      -0.1218
     32  CA       -17.0230    4.1920   14.4200 C.3    20  THR20       0.1862
     33  C        -15.6250    3.5850   14.6360 C.2    20  THR20       0.2287
     34  O        -14.9120    3.9410   15.5870 O.2    20  THR20      -0.2866
     35  CB       -18.1280    3.1960   14.8110 C.3    20  THR20       0.1770
     36  OG1      -19.3990    3.8200   14.6440 O.3    20  THR20      -0.2211
     37  CG2      -17.9860    2.7730   16.2820 C.3    20  THR20       0.0375
     38  N        -12.5200    5.7400   15.3250 N.3    23  ARG23      -0.1231
     39  CA       -12.3750    6.2610   16.6980 C.3    23  ARG23       0.1694
     40  C        -11.3950    5.4540   17.5530 C.2    23  ARG23       0.2592
     41  O        -10.9260    5.9360   18.6180 O.2    23  ARG23      -0.2718
     42  CB       -13.7280    6.3160   17.4110 C.3    23  ARG23       0.0321
     43  CG       -14.7560    7.1850   16.7020 C.3    23  ARG23       0.0489
     44  CD       -16.1120    7.0630   17.3470 C.3    23  ARG23       0.2205
     45  NE       -16.1820    7.6580   18.6800 N.pl3  23  ARG23      -0.0865
     46  CZ       -17.3210    7.8340   19.3450 C.cat  23  ARG23       0.5346
     47  NH1      -18.4720    7.4400   18.8030 N.pl3  23  ARG23       0.1354
     48  NH2      -17.3100    8.3690   20.5630 N.pl3  23  ARG23       0.1354
     49  N        -11.0820    4.2470   17.0780 N.am   24  PHE24      -0.1976
     50  CA       -10.2360    3.3040   17.8050 C.3    24  PHE24       0.1639
     51  C         -8.7660    3.3420   17.3780 C.2    24  PHE24       0.2290
     52  O         -7.9340    2.6570   17.9680 O.2    24  PHE24      -0.2864
     53  CB       -10.8220    1.8810   17.6880 C.3    24  PHE24       0.0560
     54  CG       -12.1360    1.7190   18.4000 C.ar   24  PHE24      -0.0200
     55  CD1      -12.1710    1.2100   19.7050 C.ar   24  PHE24      -0.0042
     56  CD2      -13.3410    2.0640   17.7800 C.ar   24  PHE24      -0.0042
     57  CE1      -13.3890    1.0460   20.3790 C.ar   24  PHE24      -0.0003
     58  CE2      -14.5630    1.9110   18.4520 C.ar   24  PHE24      -0.0003
     59  CZ       -14.5800    1.3920   19.7590 C.ar   24  PHE24      -0.0000
     60  N         -6.2610    5.6140   17.6220 N.3    26  ASN26      -0.1225
     61  CA        -5.2270    6.0830   18.5380 C.3    26  ASN26       0.1785
     62  C         -5.4550    5.6180   19.9770 C.2    26  ASN26       0.2597
     63  O         -6.5540    5.7440   20.5320 O.2    26  ASN26      -0.2718
     64  CB        -5.0350    7.5880   18.4400 C.3    26  ASN26       0.1169
     65  CG        -4.3360    8.0060   17.1480 C.2    26  ASN26       0.2627
     66  OD1       -3.2310    7.5410   16.8260 O.2    26  ASN26      -0.2716
     67  ND2       -4.9760    8.8920   16.4070 N.am   26  ASN26      -0.0877
     68  N         -4.4010    5.0520   20.5460 N.am   27  ARG27      -0.1966
     69  CA        -4.4610    4.4210   21.8530 C.3    27  ARG27       0.1729
     70  C         -4.6280    5.4540   22.9480 C.2    27  ARG27       0.2616
     71  O         -4.1300    6.5890   22.8400 O.2    27  ARG27      -0.2715
     72  CB        -3.2360    3.5350   22.0860 C.3    27  ARG27       0.0348
     73  CG        -3.0660    2.3680   21.0730 C.3    27  ARG27       0.0492
     74  CD        -3.9060    1.1460   21.4210 C.3    27  ARG27       0.2205
     75  NE        -5.3220    1.4940   21.5640 N.pl3  27  ARG27      -0.0865
     76  CZ        -6.1140    1.8380   20.5520 C.cat  27  ARG27       0.5346
     77  NH1       -7.3780    2.1730   20.7750 N.pl3  27  ARG27       0.1354
     78  NH2       -5.6350    1.8650   19.3130 N.pl3  27  ARG27       0.1354
     79  N         -5.3390    5.0510   23.9990 N.am   28  GLN28      -0.1977
     80  CA        -5.6740    5.9230   25.1080 C.3    28  GLN28       0.1601
     81  C         -5.2820    5.2710   26.4410 C.2    28  GLN28       0.2287
     82  O         -5.8240    5.6240   27.4890 O.2    28  GLN28      -0.2864
     83  CB        -7.1650    6.2970   25.0790 C.3    28  GLN28       0.0394
     84  CG        -7.6180    6.9450   23.7600 C.3    28  GLN28       0.0908
     85  CD        -9.0340    7.5180   23.8290 C.2    28  GLN28       0.2608
     86  OE1       -9.2920    8.4860   24.5440 O.2    28  GLN28      -0.2717
     87  NE2       -9.9540    6.9270   23.0740 N.am   28  GLN28      -0.0878
     88  N         -4.8390    1.6730   27.1840 N.3    30  ILE30      -0.1245
     89  CA        -5.0560    0.2560   27.4650 C.3    30  ILE30       0.1561
     90  C         -3.7240   -0.5160   27.4120 C.2    30  ILE30       0.2260
     91  O         -3.5170   -1.4620   28.1770 O.2    30  ILE30      -0.2867
     92  CB        -6.1270   -0.3940   26.5400 C.3    30  ILE30       0.0252
     93  CG1       -6.3880   -1.8400   26.9840 C.3    30  ILE30       0.0019
     94  CG2       -5.7130   -0.3010   25.0550 C.3    30  ILE30       0.0019
     95  CD1       -7.5510   -2.4950   26.2580 C.3    30  ILE30       0.0001
     96  N         -5.2400   -6.1660   20.6270 N.3    39  MET39      -0.1245
     97  CA        -6.6050   -5.7570   20.3520 C.3    39  MET39       0.1570
     98  C         -6.8950   -5.7990   18.8620 C.2    39  MET39       0.2261
     99  O         -6.0230   -5.4990   18.0320 O.2    39  MET39      -0.2867
    100  CB        -6.9380   -4.3960   20.9840 C.3    39  MET39       0.0387
    101  CG        -6.3880   -3.1700   20.3270 C.3    39  MET39       0.0595
    102  SD        -7.1010   -1.6340   21.0540 S.3    39  MET39      -0.1393
    103  CE        -8.6660   -1.3640   20.2920 C.3    39  MET39       0.0692
    104  N        -14.9190   -5.1930   19.3540 N.3    55  ILE55      -0.1245
    105  CA       -13.6220   -4.8340   19.8800 C.3    55  ILE55       0.1561
    106  C        -13.1700   -6.0340   20.6990 C.2    55  ILE55       0.2260
    107  O        -13.7790   -6.3630   21.7310 O.2    55  ILE55      -0.2867
    108  CB       -13.6980   -3.5330   20.7620 C.3    55  ILE55       0.0252
    109  CG1      -13.8890   -2.2970   19.8920 C.3    55  ILE55       0.0019
    110  CG2      -12.4010   -3.3150   21.5390 C.3    55  ILE55       0.0019
    111  CD1      -15.2120   -2.1770   19.2430 C.3    55  ILE55       0.0001
    112  N        -10.2570   -7.8150   22.9080 N.3    57  THR57      -0.1218
    113  CA        -9.0350   -7.5680   23.6530 C.3    57  THR57       0.1862
    114  C         -8.5190   -8.8910   24.2130 C.2    57  THR57       0.2287
    115  O         -9.2910   -9.6920   24.7580 O.2    57  THR57      -0.2866
    116  CB        -9.2220   -6.4890   24.7620 C.3    57  THR57       0.1770
    117  OG1      -10.2660   -6.8840   25.6460 O.3    57  THR57      -0.2211
    118  CG2       -9.6130   -5.1490   24.1340 C.3    57  THR57       0.0375
    119  N         -7.6150   -7.9730   32.6200 N.3    65  PHE65      -0.1241
    120  CA        -8.7380   -7.2540   32.0440 C.3    65  PHE65       0.1605
    121  C         -9.5080   -6.4650   33.1090 C.2    65  PHE65       0.2264
    122  O         -9.8290   -5.2860   32.9020 O.2    65  PHE65      -0.2867
    123  CB        -9.6780   -8.2380   31.3360 C.3    65  PHE65       0.0534
    124  CG       -10.9830   -7.6370   30.9590 C.ar   65  PHE65      -0.0203
    125  CD1      -11.0490   -6.6300   29.9890 C.ar   65  PHE65      -0.0042
    126  CD2      -12.1510   -8.0590   31.5740 C.ar   65  PHE65      -0.0042
    127  CE1      -12.2670   -6.0530   29.6450 C.ar   65  PHE65      -0.0003
    128  CE2      -13.3750   -7.4990   31.2240 C.ar   65  PHE65      -0.0003
    129  CZ       -13.4380   -6.4990   30.2550 C.ar   65  PHE65      -0.0000
    130  N         -7.8140   -3.3300   33.9670 N.3    68  TRP68      -0.1227
    131  CA        -8.0890   -2.2610   33.0050 C.3    68  TRP68       0.1737
    132  C         -9.4760   -1.6400   33.2210 C.2    68  TRP68       0.2595
    133  O         -9.6230   -0.4150   33.2050 O.2    68  TRP68      -0.2718
    134  CB        -7.9340   -2.7380   31.5530 C.3    68  TRP68       0.0564
    135  CG        -8.2440   -1.6390   30.5510 C.ar   68  TRP68       0.0003
    136  CD1       -7.6020   -0.4240   30.4250 C.ar   68  TRP68       0.0946
    137  CD2       -9.2800   -1.6460   29.5610 C.ar   68  TRP68       0.0152
    138  NE1       -8.1850    0.3220   29.4180 N.ar   68  TRP68      -0.2442
    139  CE2       -9.2200   -0.4050   28.8770 C.ar   68  TRP68       0.0810
    140  CE3      -10.2630   -2.5850   29.1840 C.ar   68  TRP68       0.0012
    141  CZ2      -10.0840   -0.0890   27.8200 C.ar   68  TRP68       0.0191
    142  CZ3      -11.1340   -2.2630   28.1440 C.ar   68  TRP68       0.0001
    143  CH2      -11.0480   -1.0230   27.4810 C.ar   68  TRP68       0.0015
    144  N        -10.4980   -2.4680   33.4120 N.am   69  LEU69      -0.1980
    145  CA       -11.8370   -1.9350   33.6940 C.3    69  LEU69       0.1596
    146  C        -11.8370   -0.9960   34.8850 C.2    69  LEU69       0.2287
    147  O        -12.6060   -0.0450   34.9190 O.2    69  LEU69      -0.2864
    148  CB       -12.8530   -3.0490   33.9550 C.3    69  LEU69       0.0297
    149  CG       -13.3320   -3.9230   32.7930 C.3    69  LEU69       0.0022
    150  CD1      -14.4250   -4.8440   33.3490 C.3    69  LEU69       0.0001
    151  CD2      -13.8610   -3.1030   31.6100 C.3    69  LEU69       0.0001
    152  N         -7.4380    5.0540   32.9540 N.3    73  VAL73      -0.1231
    153  CA        -7.3150    5.0990   31.4670 C.3    73  VAL73       0.1692
    154  C         -8.5750    4.5800   30.7720 C.2    73  VAL73       0.2592
    155  O         -8.9710    5.0940   29.7330 O.2    73  VAL73      -0.2718
    156  CB        -6.0280    4.4560   30.8900 C.3    73  VAL73       0.0266
    157  CG1       -4.7910    5.3570   31.1920 C.3    73  VAL73       0.0020
    158  CG2       -5.8270    3.0350   31.3910 C.3    73  VAL73       0.0020
    159  N         -9.2230    3.5800   31.3690 N.am   74  PHE74      -0.1976
    160  CA       -10.5140    3.1210   30.8330 C.3    74  PHE74       0.1639
    161  C        -11.5300    4.2640   30.8540 C.2    74  PHE74       0.2290
    162  O        -12.2130    4.5120   29.8570 O.2    74  PHE74      -0.2864
    163  CB       -11.0540    1.9050   31.5960 C.3    74  PHE74       0.0560
    164  CG       -12.4170    1.4760   31.1420 C.ar   74  PHE74      -0.0200
    165  CD1      -12.5560    0.4390   30.2230 C.ar   74  PHE74      -0.0042
    166  CD2      -13.5610    2.1000   31.6370 C.ar   74  PHE74      -0.0042
    167  CE1      -13.8210    0.0230   29.7900 C.ar   74  PHE74      -0.0003
    168  CE2      -14.8300    1.7080   31.2090 C.ar   74  PHE74      -0.0003
    169  CZ       -14.9640    0.6650   30.2810 C.ar   74  PHE74      -0.0000
    170  N        -10.6670    6.9850   28.1760 N.3    77  ALA77      -0.1231
    171  CA       -10.9920    6.5610   26.7970 C.3    77  ALA77       0.1694
    172  C        -12.4830    6.6750   26.5030 C.2    77  ALA77       0.2592
    173  O        -12.8560    6.9530   25.3710 O.2    77  ALA77      -0.2718
    174  CB       -10.4980    5.1430   26.5150 C.3    77  ALA77       0.0304
    175  N        -13.3250    6.4640   27.5200 N.am   78  HIS78      -0.1976
    176  CA       -14.7780    6.3990   27.3250 C.3    78  HIS78       0.1656
    177  C        -15.5210    7.6650   27.7620 C.2    78  HIS78       0.2291
    178  O        -16.7460    7.7030   27.7330 O.2    78  HIS78      -0.2864
    179  CB       -15.3590    5.1620   28.0220 C.3    78  HIS78       0.0771
    180  CG       -14.9500    3.8710   27.3810 C.ar   78  HIS78       0.0820
    181  ND1      -13.8300    3.1600   27.7700 N.ar   78  HIS78      -0.2267
    182  CD2      -15.5020    3.1760   26.3570 C.ar   78  HIS78       0.1154
    183  CE1      -13.7090    2.0830   27.0050 C.ar   78  HIS78       0.1986
    184  NE2      -14.7120    2.0700   26.1390 N.ar   78  HIS78      -0.2212
    185  N        -16.1880   10.5980   26.5680 N.3    80  ASN80      -0.1225
    186  CA       -17.0740   11.3050   25.6390 C.3    80  ASN80       0.1785
    187  C        -17.9890   10.3670   24.8470 C.2    80  ASN80       0.2597
    188  O        -18.7280   10.8230   23.9590 O.2    80  ASN80      -0.2718
    189  CB       -16.2870   12.2160   24.6780 C.3    80  ASN80       0.1169
    190  CG       -15.5580   13.3600   25.3880 C.2    80  ASN80       0.2627
    191  OD1      -14.4650   13.7600   24.9700 O.2    80  ASN80      -0.2716
    192  ND2      -16.1600   13.8970   26.4480 N.am   80  ASN80      -0.0877
    193  N        -17.9630    9.0760   25.1830 N.am   81  VAL81      -0.1980
    194  CA       -18.7510    8.0780   24.4650 C.3    81  VAL81       0.1595
    195  C        -20.2130    8.1670   24.8720 C.2    81  VAL81       0.2287
    196  O        -20.5450    8.1270   26.0660 O.2    81  VAL81      -0.2864
    197  CB       -18.2260    6.6560   24.7070 C.3    81  VAL81       0.0276
    198  CG1      -19.1280    5.6240   24.0300 C.3    81  VAL81       0.0022
    199  CG2      -16.8060    6.5360   24.1940 C.3    81  VAL81       0.0022
    200  N        -24.3060    6.7510   23.9290 N.3    83  LEU83      -0.1245
    201  CA       -25.2800    5.9320   23.2170 C.3    83  LEU83       0.1561
    202  C        -26.3760    6.8230   22.6430 C.2    83  LEU83       0.2260
    203  O        -26.6250    7.9010   23.1770 O.2    83  LEU83      -0.2867
    204  CB       -25.8900    4.8950   24.1540 C.3    83  LEU83       0.0270
    205  CG       -24.9650    3.7950   24.6940 C.3    83  LEU83       0.0019
    206  CD1      -25.7200    2.8750   25.6340 C.3    83  LEU83       0.0001
    207  CD2      -24.3710    2.9840   23.5480 C.3    83  LEU83       0.0001
    208  N        -24.3220    4.7150   17.8530 N.3    94  ILE94      -0.1245
    209  CA       -24.1520    3.5640   18.7400 C.3    94  ILE94       0.1561
    210  C        -25.4400    3.2870   19.5150 C.2    94  ILE94       0.2260
    211  O        -25.8230    4.0600   20.4050 O.2    94  ILE94      -0.2867
    212  CB       -22.9620    3.7440   19.7290 C.3    94  ILE94       0.0252
    213  CG1      -21.6950    4.1710   18.9810 C.3    94  ILE94       0.0019
    214  CG2      -22.7400    2.4470   20.5120 C.3    94  ILE94       0.0019
    215  CD1      -20.5200    4.5890   19.8880 C.3    94  ILE94       0.0001
    216  N        -24.3000   -1.7850   23.5360 N.3    97  ASN97      -0.1240
    217  CA       -23.1560   -2.7080   23.5970 C.3    97  ASN97       0.1653
    218  C        -23.5080   -3.9650   24.3950 C.2    97  ASN97       0.2266
    219  O        -24.4640   -3.9640   25.1980 O.2    97  ASN97      -0.2867
    220  CB       -21.9200   -2.0270   24.1950 C.3    97  ASN97       0.1155
    221  CG       -22.0160   -1.8730   25.7140 C.2    97  ASN97       0.2627
    222  OD1      -22.8820   -1.1660   26.2270 O.2    97  ASN97      -0.2716
    223  ND2      -21.1360   -2.5410   26.4290 N.am   97  ASN97      -0.0877
    224  N        -21.1020   -7.1370   26.4140 N.3    99  VAL99      -0.1245
    225  CA       -19.7670   -7.6680   26.6840 C.3    99  VAL99       0.1561
    226  C        -19.8130   -9.1850   26.7400 C.2    99  VAL99       0.2260
    227  O        -20.7010   -9.7730   27.3980 O.2    99  VAL99      -0.2867
    228  CB       -19.1980   -7.0820   28.0090 C.3    99  VAL99       0.0252
    229  CG1      -17.7840   -7.5850   28.2900 C.3    99  VAL99       0.0019
    230  CG2      -19.2310   -5.5550   27.9400 C.3    99  VAL99       0.0019
@<TRIPOS>BOND
     1    31    32    1
     2    32    33    1
     3    32    35    1
     4    33    34    2
     5    36    35    1
     6    35    37    1
     7    38    39    1
     8    67    65   am
     9    39    42    1
    10    39    40    1
    11    43    44    1
    12    43    42    1
    13    66    65    2
    14    49    40   am
    15    49    50    1
    16    26    25    2
    17    65    64    1
    18    44    45    1
    19    51    50    1
    20    51    52    2
    21    40    41    2
    22    60    61    1
    23    53    50    1
    24    53    54    1
    25    56    54   ar
    26    56    58   ar
    27   208   209    1
    28    99    98    2
    29    25    24    1
    30    54    55   ar
    31    64    61    1
    32    58    59   ar
    33    61    62    1
    34    45    46    2
    35   209   210    1
    36   209   212    1
    37    47    46    1
    38    27    24    1
    39    27    28    1
    40    98    97    1
    41   213   212    1
    42   213   215    1
    43    29    28    1
    44   111   109    1
    45    24    23    1
    46    78    76    1
    47    46    48    1
    48   104   105    1
    49   210   211    2
    50    55    57   ar
    51   212   214    1
    52    59    57   ar
    53    28    30    1
    54   105   106    1
    55   105   108    1
    56   109   108    1
    57    62    63    2
    58    62    68   am
    59    14    12   ar
    60   103   102    1
    61   101   100    1
    62   101   102    1
    63    97    96    1
    64    97   100    1
    65    68    69    1
    66    76    77    1
    67    76    75    2
    68   106   107    2
    69   108   110    1
    70    12    13   ar
    71    12    11    1
    72    18    17    2
    73    73    74    1
    74    73    72    1
    75    74    75    1
    76    11    10    1
    77    69    72    1
    78    69    70    1
    79    17    16    1
    80   202   203    2
    81   202   201    1
    82    10     7    1
    83    71    70    2
    84   112   113    1
    85    70    79   am
    86    87    85   am
    87   201   200    1
    88   201   204    1
    89    15    16    1
    90    15     8   am
    91    16    19    1
    92   216   217    1
    93     7     8    1
    94     7     6    1
    95   207   205    1
    96   217   220    1
    97   217   218    1
    98   113   114    1
    99   113   116    1
   100    84    85    1
   101    84    83    1
   102    19    20    1
   103    85    86    2
   104    22    20   am
   105     8     9    2
   106   188   187    2
   107    79    80    1
   108   198   197    1
   109   118   116    1
   110   204   205    1
   111   199   197    1
   112   220   221    1
   113   114   115    2
   114    20    21    2
   115     4     3    2
   116   218   219    2
   117   194   197    1
   118   194   195    1
   119   194   193    1
   120   189   190    1
   121   189   186    1
   122   205   206    1
   123     6     3   am
   124   116   117    1
   125   187   193   am
   126   187   186    1
   127   195   196    2
   128   191   190    2
   129     3     2    1
   130    94    92    1
   131    83    80    1
   132    80    81    1
   133   173   172    2
   134   190   192   am
   135   186   185    1
   136   221   222    2
   137   221   223   am
   138     1     2    1
   139   184   182   ar
   140   184   183   ar
   141    95    93    1
   142     2     5    1
   143   182   180   ar
   144   224   225    1
   145    81    82    2
   146   172   171    1
   147   172   175   am
   148   174   171    1
   149    92    93    1
   150    92    89    1
   151   225   226    1
   152   225   228    1
   153   226   227    2
   154   171   170    1
   155   183   181   ar
   156    88    89    1
   157   176   175    1
   158   176   177    1
   159   176   179    1
   160   180   181   ar
   161   180   179    1
   162    90    89    1
   163    90    91    2
   164   143   141   ar
   165   143   142   ar
   166   178   177    2
   167   141   139   ar
   168   230   228    1
   169   228   229    1
   170   142   140   ar
   171   139   138   ar
   172   139   137   ar
   173   140   137   ar
   174   138   136   ar
   175   137   135   ar
   176   127   125   ar
   177   127   129   ar
   178   155   154    2
   179   167   165   ar
   180   167   169   ar
   181   162   161    2
   182   125   124   ar
   183   165   164   ar
   184   129   128   ar
   185   169   168   ar
   186   136   135   ar
   187   135   134    1
   188   154   159   am
   189   154   153    1
   190   160   161    1
   191   160   159    1
   192   160   163    1
   193   156   157    1
   194   156   158    1
   195   156   153    1
   196   124   123    1
   197   124   126   ar
   198   164   163    1
   199   164   166   ar
   200   168   166   ar
   201   128   126   ar
   202   123   120    1
   203   153   152    1
   204   134   131    1
   205   151   149    1
   206   120   119    1
   207   120   121    1
   208   149   150    1
   209   149   148    1
   210   122   121    2
   211   131   132    1
   212   131   130    1
   213   133   132    2
   214   132   144   am
   215   144   145    1
   216   145   148    1
   217   145   146    1
   218   146   147    2
