@<TRIPOS>MOLECULE
tmp/3qgvA02.pdb
 97 92 0 0 0
SMALL
GASTEIGER

@<TRIPOS>ATOM
      1  N          3.0130  -28.9020    2.4620 N.3    68  PHE68      -0.1241
      2  CA         2.5270  -30.1730    1.9420 C.3    68  PHE68       0.1605
      3  C          1.0310  -30.3390    2.1390 C.2    68  PHE68       0.2264
      4  O          0.4850  -31.4340    1.9690 O.2    68  PHE68      -0.2867
      5  CB         3.2840  -31.3310    2.5880 C.3    68  PHE68       0.0534
      6  CG         4.7340  -31.3650    2.2320 C.ar   68  PHE68      -0.0203
      7  CD1        5.1880  -32.1550    1.1800 C.ar   68  PHE68      -0.0042
      8  CD2        5.6460  -30.5890    2.9290 C.ar   68  PHE68      -0.0042
      9  CE1        6.5370  -32.1860    0.8450 C.ar   68  PHE68      -0.0003
     10  CE2        7.0010  -30.6080    2.5970 C.ar   68  PHE68      -0.0003
     11  CZ         7.4430  -31.4080    1.5530 C.ar   68  PHE68      -0.0000
     12  N         -6.0510  -30.2530    1.6670 N.3    72  GLU72      -0.1231
     13  CA        -6.6410  -31.5440    2.0400 C.3    72  GLU72       0.1699
     14  C         -6.5760  -31.8640    3.5470 C.2    72  GLU72       0.2592
     15  O         -7.1700  -32.8490    4.0090 O.2    72  GLU72      -0.2718
     16  CB        -5.9750  -32.6760    1.2580 C.3    72  GLU72       0.0402
     17  CG        -4.5310  -32.8990    1.6620 C.3    72  GLU72       0.1161
     18  CD        -3.9220  -34.1300    1.0270 C.2    72  GLU72       0.3649
     19  OE1       -4.6630  -35.1170    0.8240 O.co2  72  GLU72      -0.2457
     20  OE2       -2.7030  -34.1050    0.7330 O.co2  72  GLU72      -0.2457
     21  N         -5.8510  -31.0640    4.3210 N.am   73  TYR73      -0.1976
     22  CA        -5.8340  -31.2940    5.7720 C.3    73  TYR73       0.1639
     23  C         -6.6250  -30.2100    6.5010 C.2    73  TYR73       0.2290
     24  O         -6.5950  -29.0410    6.1130 O.2    73  TYR73      -0.2864
     25  CB        -4.4020  -31.3540    6.3230 C.3    73  TYR73       0.0560
     26  CG        -3.5230  -32.4110    5.6880 C.ar   73  TYR73      -0.0198
     27  CD1       -3.5470  -33.7340    6.1320 C.ar   73  TYR73      -0.0009
     28  CD2       -2.6510  -32.0820    4.6600 C.ar   73  TYR73      -0.0009
     29  CE1       -2.7370  -34.6970    5.5530 C.ar   73  TYR73       0.0417
     30  CE2       -1.8420  -33.0320    4.0770 C.ar   73  TYR73       0.0417
     31  CZ        -1.8890  -34.3370    4.5210 C.ar   73  TYR73       0.1957
     32  OH        -1.0710  -35.2680    3.9250 O.3    73  TYR73      -0.2866
     33  N         -7.0100  -30.0440   -2.8170 N.3    86  LYS86      -0.1245
     34  CA        -5.9600  -30.7160   -3.5740 C.3    86  LYS86       0.1561
     35  C         -6.5470  -31.4060   -4.8120 C.2    86  LYS86       0.2260
     36  O         -5.9490  -31.3860   -5.8890 O.2    86  LYS86      -0.2867
     37  CB        -5.2380  -31.7460   -2.6890 C.3    86  LYS86       0.0271
     38  CG        -4.2570  -32.6260   -3.4540 C.3    86  LYS86       0.0035
     39  CD        -3.5400  -33.6100   -2.5490 C.3    86  LYS86       0.0206
     40  CE        -2.7490  -34.6250   -3.3660 C.3    86  LYS86       0.1093
     41  NZ        -1.8890  -35.5020   -2.5230 N.3    86  LYS86      -0.1314
     42  N          0.3840  -32.1960    7.7100 N.3   136  SER136     -0.1217
     43  CA         0.9920  -33.1190    6.7650 C.3   136  SER136      0.1889
     44  C          2.0330  -33.9790    7.4680 C.2   136  SER136      0.2288
     45  O          2.3500  -35.0790    7.0230 O.2   136  SER136     -0.2866
     46  CB         1.6750  -32.3480    5.6320 C.3   136  SER136      0.2089
     47  OG         2.8730  -31.7320    6.0880 O.3   136  SER136     -0.2183
     48  N          5.0260  -33.1910    7.4850 N.3   138  LYS138     -0.1245
     49  CA         6.2400  -33.0630    6.7040 C.3   138  LYS138      0.1561
     50  C          6.8380  -31.6660    6.8200 C.2   138  LYS138      0.2260
     51  O          6.1150  -30.6760    6.8950 O.2   138  LYS138     -0.2867
     52  CB         5.9700  -33.4370    5.2420 C.3   138  LYS138      0.0271
     53  CG         5.3870  -34.8480    5.0850 C.3   138  LYS138      0.0035
     54  CD         5.0510  -35.1540    3.6350 C.3   138  LYS138      0.0206
     55  CE         4.4260  -36.5350    3.5100 C.3   138  LYS138      0.1093
     56  NZ         3.0670  -36.5750    4.1290 N.3   138  LYS138     -0.1314
     57  N         13.5480  -36.8550   -2.7210 N.3   180  GLN180     -0.1231
     58  CA        12.3930  -37.3850   -3.4500 C.3   180  GLN180      0.1698
     59  C         11.1190  -37.1500   -2.6650 C.2   180  GLN180      0.2592
     60  O         10.0190  -37.4150   -3.1370 O.2   180  GLN180     -0.2718
     61  CB        12.5540  -38.8890   -3.6950 C.3   180  GLN180      0.0381
     62  CG        13.7580  -39.2580   -4.5410 C.3   180  GLN180      0.0905
     63  CD        13.7100  -38.6160   -5.9110 C.2   180  GLN180      0.2608
     64  OE1       12.6330  -38.4470   -6.4930 O.2   180  GLN180     -0.2717
     65  NE2       14.8760  -38.2390   -6.4320 N.am  180  GLN180     -0.0878
     66  N         11.2870  -36.6560   -1.4500 N.am  181  GLU181     -0.1979
     67  CA        10.1740  -36.4220   -0.5500 C.3   181  GLU181      0.1602
     68  C          9.8870  -34.9150   -0.4430 C.2   181  GLU181      0.2287
     69  O          8.9370  -34.4860    0.2180 O.2   181  GLU181     -0.2864
     70  CB        10.5450  -37.0080    0.8120 C.3   181  GLU181      0.0415
     71  CG         9.5440  -36.7730    1.8920 C.3   181  GLU181      0.1163
     72  CD         9.7130  -37.7450    3.0320 C.2   181  GLU181      0.3649
     73  OE1       10.8500  -37.8710    3.5480 O.co2 181  GLU181     -0.2457
     74  OE2        8.7020  -38.3840    3.3990 O.co2 181  GLU181     -0.2457
     75  N          9.4470  -32.0730   -5.2270 N.3   185  ALA185     -0.1231
     76  CA         9.1280  -33.4060   -5.7410 C.3   185  ALA185      0.1694
     77  C          7.6390  -33.6470   -5.6970 C.2   185  ALA185      0.2592
     78  O          7.0870  -34.3370   -6.5540 O.2   185  ALA185     -0.2718
     79  CB         9.8460  -34.4850   -4.9250 C.3   185  ALA185      0.0304
     80  N          6.9970  -33.1010   -4.6690 N.am  186  TYR186     -0.1976
     81  CA         5.5680  -33.2910   -4.4620 C.3   186  TYR186      0.1639
     82  C          4.7750  -32.5480   -5.5380 C.2   186  TYR186      0.2290
     83  O          3.8460  -33.1000   -6.1240 O.2   186  TYR186     -0.2864
     84  CB         5.1680  -32.8340   -3.0520 C.3   186  TYR186      0.0560
     85  CG         3.6900  -32.9670   -2.7380 C.ar  186  TYR186     -0.0198
     86  CD1        2.9200  -33.9900   -3.2870 C.ar  186  TYR186     -0.0009
     87  CD2        3.0640  -32.0550   -1.9010 C.ar  186  TYR186     -0.0009
     88  CE1        1.5650  -34.1000   -2.9990 C.ar  186  TYR186      0.0417
     89  CE2        1.7110  -32.1540   -1.6120 C.ar  186  TYR186      0.0417
     90  CZ         0.9680  -33.1720   -2.1660 C.ar  186  TYR186      0.1957
     91  OH        -0.3720  -33.2540   -1.8620 O.3   186  TYR186     -0.2866
     92  N          5.2120  -34.2880   -8.7260 N.3   189  SER189     -0.1217
     93  CA         4.4680  -35.5490   -8.7860 C.3   189  SER189      0.1889
     94  C          2.9920  -35.3660   -9.1690 C.2   189  SER189      0.2288
     95  O          2.3640  -36.2910   -9.6770 O.2   189  SER189     -0.2866
     96  CB         4.5950  -36.3370   -7.4740 C.3   189  SER189      0.2089
     97  OG         3.6540  -35.9060   -6.5050 O.3   189  SER189     -0.2183
@<TRIPOS>BOND
     1    95    94    2
     2    94    93    1
     3    93    92    1
     4    93    96    1
     5    96    97    1
     6    78    77    2
     7    64    63    2
     8    65    63   am
     9    83    82    2
    10    63    62    1
    11    36    35    2
    12    76    77    1
    13    76    75    1
    14    76    79    1
    15    77    80   am
    16    82    81    1
    17    35    34    1
    18    80    81    1
    19    62    61    1
    20    81    84    1
    21    61    58    1
    22    34    33    1
    23    34    37    1
    24    38    37    1
    25    38    39    1
    26    58    57    1
    27    58    59    1
    28    40    39    1
    29    40    41    1
    30    86    88   ar
    31    86    85   ar
    32    60    59    2
    33    84    85    1
    34    88    90   ar
    35    85    87   ar
    36    59    66   am
    37    90    91    1
    38    90    89   ar
    39    87    89   ar
    40    66    67    1
    41    67    68    1
    42    67    70    1
    43    68    69    2
    44    20    18   ar
    45    70    71    1
    46    19    18   ar
    47     9     7   ar
    48     9    11   ar
    49    18    17    1
    50     7     6   ar
    51    16    17    1
    52    16    13    1
    53    11    10   ar
    54    12    13    1
    55    71    72    1
    56     2     3    1
    57     2     1    1
    58     2     5    1
    59     4     3    2
    60    13    14    1
    61     6     5    1
    62     6     8   ar
    63    10     8   ar
    64    72    74   ar
    65    72    73   ar
    66    55    54    1
    67    55    56    1
    68    14    15    2
    69    14    21   am
    70    54    53    1
    71    32    31    1
    72    30    31   ar
    73    30    28   ar
    74    21    22    1
    75    31    29   ar
    76    28    26   ar
    77    53    52    1
    78    52    49    1
    79    29    27   ar
    80    46    47    1
    81    46    43    1
    82    26    27   ar
    83    26    25    1
    84    22    25    1
    85    22    23    1
    86    24    23    2
    87    49    50    1
    88    49    48    1
    89    43    44    1
    90    43    42    1
    91    50    51    2
    92    45    44    2
