@<TRIPOS>MOLECULE
tmp/3qgvA03.pdb
 99 96 0 0 0
SMALL
GASTEIGER

@<TRIPOS>ATOM
      1  N          8.5470  -23.4130  -23.3630 N.3     7  GLU7       -0.1245
      2  CA         9.9980  -23.4460  -23.5670 C.3     7  GLU7        0.1567
      3  C         10.4440  -22.7470  -24.8450 C.2     7  GLU7        0.2260
      4  O         11.6290  -22.4730  -25.0330 O.2     7  GLU7       -0.2867
      5  CB        10.5110  -24.8890  -23.5780 C.3     7  GLU7        0.0388
      6  CG        10.2730  -25.6310  -22.2710 C.3     7  GLU7        0.1160
      7  CD         8.8410  -26.1730  -22.1210 C.2     7  GLU7        0.3649
      8  OE1        8.0370  -26.1100  -23.0980 O.co2   7  GLU7       -0.2457
      9  OE2        8.5340  -26.6740  -21.0080 O.co2   7  GLU7       -0.2457
     10  N         19.2330  -22.2900   -8.3970 N.3   209  LYS209     -0.1245
     11  CA        20.1270  -23.1270   -9.2090 C.3   209  LYS209      0.1561
     12  C         20.0480  -24.6100   -8.8180 C.2   209  LYS209      0.2260
     13  O         19.8740  -25.4810   -9.6760 O.2   209  LYS209     -0.2867
     14  CB        21.5730  -22.6420   -9.0800 C.3   209  LYS209      0.0271
     15  CG        22.5890  -23.4370   -9.9240 C.3   209  LYS209      0.0035
     16  CD        22.2570  -23.3140  -11.4040 C.3   209  LYS209      0.0206
     17  CE        23.2820  -24.0330  -12.2740 C.3   209  LYS209      0.1093
     18  NZ        22.9560  -23.8800  -13.7230 N.3   209  LYS209     -0.1314
     19  N         16.6570  -26.2230   -9.6520 N.3   212  LEU212     -0.1231
     20  CA        16.5900  -26.5700  -11.0750 C.3   212  LEU212      0.1693
     21  C         17.5380  -27.7110  -11.4460 C.2   212  LEU212      0.2592
     22  O         17.2520  -28.4600  -12.3700 O.2   212  LEU212     -0.2718
     23  CB        16.8290  -25.3350  -11.9680 C.3   212  LEU212      0.0284
     24  CG        15.8140  -24.2120  -11.7250 C.3   212  LEU212      0.0019
     25  CD1       16.2290  -22.9320  -12.4110 C.3   212  LEU212      0.0001
     26  CD2       14.4140  -24.6430  -12.1680 C.3   212  LEU212      0.0001
     27  N         18.6600  -27.8420  -10.7390 N.am  213  ASN213     -0.1974
     28  CA        19.5570  -28.9850  -10.9570 C.3   213  ASN213      0.1688
     29  C         18.8400  -30.2880  -10.6420 C.2   213  ASN213      0.2292
     30  O         18.9910  -31.2820  -11.3410 O.2   213  ASN213     -0.2864
     31  CB        20.8060  -28.8970  -10.0760 C.3   213  ASN213      0.1181
     32  CG        21.8060  -27.8730  -10.5690 C.2   213  ASN213      0.2629
     33  OD1       21.8360  -27.5360  -11.7520 O.2   213  ASN213     -0.2716
     34  ND2       22.6430  -27.3770   -9.6590 N.am  213  ASN213     -0.0877
     35  N         14.7730  -29.4920  -12.9130 N.3   216  GLY216     -0.1210
     36  CA        14.6330  -28.9360  -14.2510 C.3   216  GLY216      0.1956
     37  C         13.3180  -28.1860  -14.3890 C.2   216  GLY216      0.2612
     38  O         12.6600  -27.8760  -13.3820 O.2   216  GLY216     -0.2717
     39  N         12.9330  -27.9010  -15.6330 N.am  217  GLY217     -0.1942
     40  CA        11.7150  -27.1690  -15.9190 C.3   217  GLY217      0.2014
     41  C         11.9650  -25.6880  -16.1460 C.2   217  GLY217      0.2639
     42  O         12.9080  -25.1150  -15.5990 O.2   217  GLY217     -0.2714
     43  N         11.1270  -25.0710  -16.9740 N.am  218  TRP218     -0.1959
     44  CA        11.1950  -23.6340  -17.2050 C.3   218  TRP218      0.1771
     45  C         11.0420  -22.9300  -15.8570 C.2   218  TRP218      0.2619
     46  O         10.2880  -23.3900  -15.0160 O.2   218  TRP218     -0.2715
     47  CB        10.0560  -23.2380  -18.1260 C.3   218  TRP218      0.0590
     48  CG         9.9710  -21.8010  -18.5130 C.ar  218  TRP218      0.0006
     49  CD1       10.4330  -21.2380  -19.6700 C.ar  218  TRP218      0.0946
     50  CD2        9.3200  -20.7510  -17.7880 C.ar  218  TRP218      0.0152
     51  NE1       10.1300  -19.8960  -19.6940 N.ar  218  TRP218     -0.2442
     52  CE2        9.4360  -19.5770  -18.5580 C.ar  218  TRP218      0.0810
     53  CE3        8.6450  -20.6900  -16.5660 C.ar  218  TRP218      0.0012
     54  CZ2        8.9240  -18.3490  -18.1330 C.ar  218  TRP218      0.0191
     55  CZ3        8.1320  -19.4750  -16.1460 C.ar  218  TRP218      0.0001
     56  CH2        8.2750  -18.3200  -16.9250 C.ar  218  TRP218      0.0015
     57  N         11.7520  -21.8190  -15.6520 N.am  219  ALA219     -0.1977
     58  CA        11.6670  -21.1020  -14.3860 C.3   219  ALA219      0.1597
     59  C         11.8560  -19.6080  -14.5510 C.2   219  ALA219      0.2287
     60  O         12.6820  -19.1700  -15.3480 O.2   219  ALA219     -0.2864
     61  CB        12.7080  -21.6590  -13.3860 C.3   219  ALA219      0.0319
     62  N         20.2210  -19.4400  -13.2010 N.3   239  GLY239     -0.1210
     63  CA        19.8680  -20.1820  -14.3970 C.3   239  GLY239      0.1956
     64  C         18.4240  -19.9380  -14.8220 C.2   239  GLY239      0.2612
     65  O         17.9530  -20.4720  -15.8210 O.2   239  GLY239     -0.2717
     66  N         17.7200  -19.1180  -14.0610 N.am  240  ALA240     -0.1965
     67  CA        16.3060  -18.8610  -14.3210 C.3   240  ALA240      0.1728
     68  C         16.0850  -17.5960  -15.1500 C.2   240  ALA240      0.2616
     69  O         16.9830  -16.7710  -15.2990 O.2   240  ALA240     -0.2715
     70  CB        15.5510  -18.7450  -12.9980 C.3   240  ALA240      0.0334
     71  N         14.8750  -17.4550  -15.6760 N.am  241  LYS241     -0.1977
     72  CA        14.4520  -16.2180  -16.3190 C.3   241  LYS241      0.1596
     73  C         14.0910  -15.1800  -15.2530 C.2   241  LYS241      0.2287
     74  O         14.0710  -15.4880  -14.0570 O.2   241  LYS241     -0.2864
     75  CB        13.2530  -16.4720  -17.2490 C.3   241  LYS241      0.0298
     76  CG        13.5860  -17.3230  -18.4880 C.3   241  LYS241      0.0038
     77  CD        12.6120  -17.0110  -19.6300 C.3   241  LYS241      0.0206
     78  CE        13.0040  -17.6910  -20.9110 C.3   241  LYS241      0.1093
     79  NZ        12.0920  -17.2250  -22.0010 N.3   241  LYS241     -0.1314
     80  N         16.1650  -13.4620  -24.0790 N.3   279  PHE279     -0.1227
     81  CA        15.9490  -14.8720  -23.7660 C.3   279  PHE279      0.1736
     82  C         15.7540  -15.0720  -22.2550 C.2   279  PHE279      0.2595
     83  O         15.3960  -16.1630  -21.7960 O.2   279  PHE279     -0.2718
     84  CB        17.0870  -15.7260  -24.3340 C.3   279  PHE279      0.0547
     85  CG        17.3920  -15.4180  -25.7910 C.ar  279  PHE279     -0.0202
     86  CD1       16.5340  -15.8390  -26.8010 C.ar  279  PHE279     -0.0042
     87  CD2       18.4970  -14.6650  -26.1370 C.ar  279  PHE279     -0.0042
     88  CE1       16.7980  -15.5420  -28.1440 C.ar  279  PHE279     -0.0003
     89  CE2       18.7660  -14.3560  -27.4760 C.ar  279  PHE279     -0.0003
     90  CZ        17.9190  -14.7920  -28.4750 C.ar  279  PHE279     -0.0000
     91  N         15.9630  -13.9970  -21.4990 N.am  280  LYS280     -0.1980
     92  CA        15.7860  -14.0180  -20.0510 C.3   280  LYS280      0.1596
     93  C         14.5780  -13.2050  -19.6080 C.2   280  LYS280      0.2287
     94  O         14.0040  -13.4800  -18.5630 O.2   280  LYS280     -0.2864
     95  CB        17.0410  -13.4800  -19.3460 C.3   280  LYS280      0.0298
     96  CG        18.2130  -14.4630  -19.3360 C.3   280  LYS280      0.0038
     97  CD        17.9150  -15.7000  -18.4700 C.3   280  LYS280      0.0206
     98  CE        19.2020  -16.4690  -18.1500 C.3   280  LYS280      0.1093
     99  NZ        18.9600  -17.6120  -17.2200 N.3   280  LYS280     -0.1314
@<TRIPOS>BOND
     1    90    88   ar
     2    90    89   ar
     3    88    86   ar
     4    89    87   ar
     5    86    85   ar
     6    87    85   ar
     7    85    84    1
     8     4     3    2
     9     3     2    1
    10    84    81    1
    11    80    81    1
    12    81    82    1
    13     5     2    1
    14     5     6    1
    15     2     1    1
    16     8     7   ar
    17     6     7    1
    18    82    83    2
    19    82    91   am
    20     7     9   ar
    21    79    78    1
    22    91    92    1
    23    78    77    1
    24    92    93    1
    25    92    95    1
    26    51    49   ar
    27    51    52   ar
    28    49    48   ar
    29    77    76    1
    30    93    94    2
    31    95    96    1
    32    96    97    1
    33    52    54   ar
    34    52    50   ar
    35    48    47    1
    36    48    50   ar
    37    76    75    1
    38    97    98    1
    39    98    99    1
    40    54    56   ar
    41    47    44    1
    42    50    53   ar
    43    75    72    1
    44    44    43    1
    45    44    45    1
    46    43    41   am
    47    56    55   ar
    48    53    55   ar
    49    72    71    1
    50    72    73    1
    51    41    40    1
    52    41    42    2
    53    40    39    1
    54    45    57   am
    55    45    46    2
    56    65    64    2
    57    71    68   am
    58    57    58    1
    59    39    37   am
    60    60    59    2
    61    69    68    2
    62    73    74    2
    63    68    67    1
    64    64    63    1
    65    64    66   am
    66    59    58    1
    67    63    62    1
    68    37    36    1
    69    37    38    2
    70    58    61    1
    71    67    66    1
    72    67    70    1
    73    36    35    1
    74    18    17    1
    75    25    24    1
    76    22    21    2
    77    17    16    1
    78    26    24    1
    79    23    24    1
    80    23    20    1
    81    33    32    2
    82    21    20    1
    83    21    27   am
    84    16    15    1
    85    30    29    2
    86    20    19    1
    87    28    27    1
    88    28    29    1
    89    28    31    1
    90    32    31    1
    91    32    34   am
    92    15    14    1
    93    13    12    2
    94    11    14    1
    95    11    12    1
    96    11    10    1
