@<TRIPOS>MOLECULE
tmp/3qgvA01.pdb
 127 122 0 0 0
SMALL
GASTEIGER

@<TRIPOS>ATOM
      1  N          8.5470  -23.4130  -23.3630 N.3     7  GLU7       -0.1231
      2  CA         9.9980  -23.4460  -23.5670 C.3     7  GLU7        0.1699
      3  C         10.4440  -22.7470  -24.8450 C.2     7  GLU7        0.2592
      4  O         11.6290  -22.4730  -25.0330 O.2     7  GLU7       -0.2718
      5  CB        10.5110  -24.8890  -23.5780 C.3     7  GLU7        0.0402
      6  CG        10.2730  -25.6310  -22.2710 C.3     7  GLU7        0.1161
      7  CD         8.8410  -26.1730  -22.1210 C.2     7  GLU7        0.3649
      8  OE1        8.0370  -26.1100  -23.0980 O.co2   7  GLU7       -0.2457
      9  OE2        8.5340  -26.6740  -21.0080 O.co2   7  GLU7       -0.2457
     10  N          9.5030  -22.4840  -25.7420 N.am    8  LYS8       -0.1966
     11  CA         9.8470  -21.8390  -26.9970 C.3     8  LYS8        0.1728
     12  C          9.3700  -20.4010  -27.0270 C.2     8  LYS8        0.2616
     13  O          9.1220  -19.8610  -28.0890 O.2     8  LYS8       -0.2715
     14  CB         9.2520  -22.6010  -28.1850 C.3     8  LYS8        0.0311
     15  CG         9.5340  -24.0880  -28.1790 C.3     8  LYS8        0.0038
     16  CD        11.0000  -24.3760  -28.3610 C.3     8  LYS8        0.0206
     17  CE        11.2460  -25.8640  -28.5590 C.3     8  LYS8        0.1093
     18  NZ        12.4720  -26.0910  -29.3780 N.3     8  LYS8       -0.1314
     19  N          9.2260  -19.7830  -25.8600 N.am    9  GLY9       -0.1955
     20  CA         8.8520  -18.3810  -25.7980 C.3     9  GLY9        0.1869
     21  C          7.3600  -18.1060  -25.9040 C.2     9  GLY9        0.2309
     22  O          6.9600  -16.9590  -26.1230 O.2     9  GLY9       -0.2863
     23  N         14.8750  -17.4550  -15.6760 N.3   241  LYS241     -0.1245
     24  CA        14.4520  -16.2180  -16.3190 C.3   241  LYS241      0.1561
     25  C         14.0910  -15.1800  -15.2530 C.2   241  LYS241      0.2260
     26  O         14.0710  -15.4880  -14.0570 O.2   241  LYS241     -0.2867
     27  CB        13.2530  -16.4720  -17.2490 C.3   241  LYS241      0.0271
     28  CG        13.5860  -17.3230  -18.4880 C.3   241  LYS241      0.0035
     29  CD        12.6120  -17.0110  -19.6300 C.3   241  LYS241      0.0206
     30  CE        13.0040  -17.6910  -20.9110 C.3   241  LYS241      0.1093
     31  NZ        12.0920  -17.2250  -22.0010 N.3   241  LYS241     -0.1314
     32  N         16.8280  -10.8280  -24.3960 N.3   278  PRO278     -0.2102
     33  CA        15.4470  -11.2040  -24.7120 C.3   278  PRO278      0.1504
     34  C         15.1430  -12.6760  -24.3970 C.2   278  PRO278      0.2575
     35  O         13.9830  -13.0890  -24.4490 O.2   278  PRO278     -0.2718
     36  CB        15.3610  -10.9510  -26.2190 C.3   278  PRO278      0.0282
     37  CG        16.7990  -11.1180  -26.7010 C.3   278  PRO278      0.0208
     38  CD        17.6310  -10.5470  -25.6030 C.3   278  PRO278      0.0893
     39  N         16.1650  -13.4620  -24.0790 N.am  279  PHE279     -0.1977
     40  CA        15.9490  -14.8720  -23.7660 C.3   279  PHE279      0.1639
     41  C         15.7540  -15.0720  -22.2550 C.2   279  PHE279      0.2290
     42  O         15.3960  -16.1630  -21.7960 O.2   279  PHE279     -0.2864
     43  CB        17.0870  -15.7260  -24.3340 C.3   279  PHE279      0.0560
     44  CG        17.3920  -15.4180  -25.7910 C.ar  279  PHE279     -0.0200
     45  CD1       16.5340  -15.8390  -26.8010 C.ar  279  PHE279     -0.0042
     46  CD2       18.4970  -14.6650  -26.1370 C.ar  279  PHE279     -0.0042
     47  CE1       16.7980  -15.5420  -28.1440 C.ar  279  PHE279     -0.0003
     48  CE2       18.7660  -14.3560  -27.4760 C.ar  279  PHE279     -0.0003
     49  CZ        17.9190  -14.7920  -28.4750 C.ar  279  PHE279     -0.0000
     50  N         10.3970   -8.2510  -28.7640 N.3   307  GLU307     -0.1231
     51  CA        11.1220   -9.4160  -28.2550 C.3   307  GLU307      0.1699
     52  C         10.7070   -9.7490  -26.8110 C.2   307  GLU307      0.2593
     53  O          9.9600   -8.9890  -26.1840 O.2   307  GLU307     -0.2718
     54  CB        12.6240   -9.1480  -28.3140 C.3   307  GLU307      0.0402
     55  CG        13.1020   -8.8360  -29.7360 C.3   307  GLU307      0.1161
     56  CD        14.5640   -8.4720  -29.7990 C.2   307  GLU307      0.3649
     57  OE1       15.3790   -9.0710  -29.0600 O.co2 307  GLU307     -0.2457
     58  OE2       14.8990   -7.5800  -30.5980 O.co2 307  GLU307     -0.2457
     59  N         11.2020  -10.8730  -26.2910 N.am  308  GLY308     -0.1942
     60  CA        10.9380  -11.2780  -24.9140 C.3   308  GLY308      0.2014
     61  C          9.8590  -12.3510  -24.8110 C.2   308  GLY308      0.2638
     62  O          9.4060  -12.8690  -25.8340 O.2   308  GLY308     -0.2714
     63  N          9.4470  -12.6870  -23.5860 N.am  309  GLN309     -0.1977
     64  CA         8.3990  -13.6950  -23.3810 C.3   309  GLN309      0.1601
     65  C          7.2720  -13.0760  -22.5860 C.2   309  GLN309      0.2287
     66  O          7.4080  -12.8530  -21.3840 O.2   309  GLN309     -0.2864
     67  CB         8.9200  -14.9360  -22.6530 C.3   309  GLN309      0.0394
     68  CG         7.8080  -15.9560  -22.3440 C.3   309  GLN309      0.0908
     69  CD         8.3420  -17.3370  -22.0140 C.2   309  GLN309      0.2608
     70  OE1        9.4170  -17.4860  -21.4290 O.2   309  GLN309     -0.2717
     71  NE2        7.5980  -18.3570  -22.3980 N.am  309  GLN309     -0.0878
     72  N          1.5950  -12.5480  -32.1430 N.3   333  HIS333     -0.1241
     73  CA         2.8360  -12.9320  -31.4980 C.3   333  HIS333      0.1621
     74  C          3.3080  -14.3160  -31.9630 C.2   333  HIS333      0.2264
     75  O          4.5030  -14.5410  -32.1770 O.2   333  HIS333     -0.2867
     76  CB         2.7390  -12.8780  -29.9630 C.3   333  HIS333      0.0745
     77  CG         4.0140  -13.2740  -29.2910 C.ar  333  HIS333      0.0817
     78  ND1        4.3100  -14.5860  -28.9720 N.ar  333  HIS333     -0.2268
     79  CD2        5.1060  -12.5460  -28.9520 C.ar  333  HIS333      0.1154
     80  CE1        5.5200  -14.6400  -28.4440 C.ar  333  HIS333      0.1986
     81  NE2        6.0270  -13.4190  -28.4240 N.ar  333  HIS333     -0.2212
     82  N          9.0660  -12.3480  -34.7570 N.3   338  GLY338     -0.1210
     83  CA        10.2800  -13.1280  -34.6580 C.3   338  GLY338      0.1956
     84  C         11.4110  -12.3060  -35.2020 C.2   338  GLY338      0.2612
     85  O         11.1720  -11.3600  -35.9520 O.2   338  GLY338     -0.2717
     86  N         12.6330  -12.6550  -34.8140 N.am  339  GLY339     -0.1942
     87  CA        13.8100  -12.0020  -35.3390 C.3   339  GLY339      0.2014
     88  C         14.2960  -10.8130  -34.5300 C.2   339  GLY339      0.2639
     89  O         13.7330  -10.4630  -33.4730 O.2   339  GLY339     -0.2714
     90  N         15.3670  -10.2030  -35.0330 N.am  340  SER340     -0.1949
     91  CA        15.9240   -8.9970  -34.4470 C.3   340  SER340      0.1924
     92  C         14.9930   -7.8040  -34.6950 C.2   340  SER340      0.2314
     93  O         13.9740   -7.9140  -35.3730 O.2   340  SER340     -0.2863
     94  CB        17.3240   -8.7290  -35.0050 C.3   340  SER340      0.2116
     95  OG        17.2690   -8.5790  -36.4150 O.3   340  SER340     -0.2180
     96  N         10.1700   -6.2070  -36.8790 N.3   355  ARG355     -0.1245
     97  CA        10.7830   -7.4690  -36.4740 C.3   355  ARG355      0.1563
     98  C         11.1910   -8.1700  -37.7540 C.2   355  ARG355      0.2260
     99  O         10.3750   -8.3340  -38.6590 O.2   355  ARG355     -0.2867
    100  CB         9.8170   -8.3440  -35.6570 C.3   355  ARG355      0.0307
    101  CG         9.3000   -7.6990  -34.3720 C.3   355  ARG355      0.0489
    102  CD        10.3800   -7.6050  -33.3060 C.3   355  ARG355      0.2205
    103  NE        11.0640   -8.8780  -33.0880 N.pl3 355  ARG355     -0.0865
    104  CZ        10.5560   -9.9030  -32.4000 C.cat 355  ARG355      0.5346
    105  NH1        9.3410   -9.8320  -31.8680 N.pl3 355  ARG355      0.1354
    106  NH2       11.2600  -11.0140  -32.2590 N.pl3 355  ARG355      0.1354
    107  N         12.2860  -14.8320  -38.2280 N.3   358  TYR358     -0.1241
    108  CA        13.1550  -15.9050  -37.7770 C.3   358  TYR358      0.1605
    109  C         12.4210  -17.2330  -37.9260 C.2   358  TYR358      0.2264
    110  O         11.2200  -17.3020  -37.6660 O.2   358  TYR358     -0.2867
    111  CB        13.5440  -15.6800  -36.3060 C.3   358  TYR358      0.0534
    112  CG        14.7390  -16.5100  -35.8970 C.ar  358  TYR358     -0.0201
    113  CD1       16.0350  -16.1030  -36.2190 C.ar  358  TYR358     -0.0009
    114  CD2       14.5720  -17.7170  -35.2380 C.ar  358  TYR358     -0.0009
    115  CE1       17.1290  -16.8700  -35.8700 C.ar  358  TYR358      0.0417
    116  CE2       15.6500  -18.4870  -34.8870 C.ar  358  TYR358      0.0417
    117  CZ        16.9280  -18.0620  -35.2040 C.ar  358  TYR358      0.1957
    118  OH        18.0030  -18.8400  -34.8480 O.3   358  TYR358     -0.2866
    119  N          8.5840  -17.7310  -38.8070 N.3   361  LYS361     -0.1245
    120  CA         7.9270  -16.4510  -38.5790 C.3   361  LYS361      0.1561
    121  C          8.4770  -15.3410  -39.4660 C.2   361  LYS361      0.2260
    122  O          9.6520  -14.9800  -39.3700 O.2   361  LYS361     -0.2867
    123  CB         8.0420  -16.0770  -37.1080 C.3   361  LYS361      0.0271
    124  CG         7.4980  -17.1740  -36.1910 C.3   361  LYS361      0.0035
    125  CD         7.7710  -16.8820  -34.7140 C.3   361  LYS361      0.0206
    126  CE         6.5070  -16.4470  -33.9670 C.3   361  LYS361      0.1093
    127  NZ         6.7260  -16.3630  -32.4830 N.3   361  LYS361     -0.1314
@<TRIPOS>BOND
     1   121   122    2
     2   121   120    1
     3   119   120    1
     4    99    98    2
     5   120   123    1
     6   107   108    1
     7   109   108    1
     8   109   110    2
     9   108   111    1
    10    98    97    1
    11   123   124    1
    12    96    97    1
    13    97   100    1
    14    95    94    1
    15   111   112    1
    16   113   112   ar
    17   113   115   ar
    18   124   125    1
    19    85    84    2
    20   112   114   ar
    21   115   117   ar
    22   100   101    1
    23    93    92    2
    24    87    86    1
    25    87    88    1
    26   114   116   ar
    27   117   116   ar
    28   117   118    1
    29    84    86   am
    30    84    83    1
    31    90    88   am
    32    90    91    1
    33    94    91    1
    34    82    83    1
    35   125   126    1
    36    92    91    1
    37    88    89    2
    38   101   102    1
    39   126   127    1
    40   102   103    1
    41   103   104    2
    42   104   106    1
    43   104   105    1
    44    75    74    2
    45    72    73    1
    46    74    73    1
    47    73    76    1
    48    58    56   ar
    49    76    77    1
    50    56    55    1
    51    56    57   ar
    52    55    54    1
    53    18    17    1
    54    77    78   ar
    55    77    79   ar
    56    78    80   ar
    57    79    81   ar
    58    50    51    1
    59    17    16    1
    60    49    47   ar
    61    49    48   ar
    62    80    81   ar
    63    16    15    1
    64    54    51    1
    65    51    52    1
    66    14    15    1
    67    14    11    1
    68    47    45   ar
    69    13    12    2
    70    48    46   ar
    71    12    11    1
    72    12    19   am
    73    11    10    1
    74    52    59   am
    75    52    53    2
    76    45    44   ar
    77    37    36    1
    78    37    38    1
    79    59    60    1
    80    36    33    1
    81    46    44   ar
    82    22    21    2
    83    21    20    1
    84    19    20    1
    85    62    61    2
    86    44    43    1
    87    10     3   am
    88    38    32    1
    89     4     3    2
    90    60    61    1
    91     3     2    1
    92    61    63   am
    93    33    34    1
    94    33    32    1
    95    35    34    2
    96    34    39   am
    97    43    40    1
    98    39    40    1
    99    40    41    1
   100    63    64    1
   101     5     2    1
   102     5     6    1
   103     2     1    1
   104    64    67    1
   105    64    65    1
   106     8     7   ar
   107    67    68    1
   108    65    66    2
   109    71    69   am
   110    68    69    1
   111     6     7    1
   112    41    42    2
   113     7     9   ar
   114    69    70    2
   115    31    30    1
   116    30    29    1
   117    29    28    1
   118    28    27    1
   119    27    24    1
   120    24    23    1
   121    24    25    1
   122    25    26    2
