@<TRIPOS>MOLECULE
tmp/3qgvA00.pdb
 109 109 0 0 0
SMALL
GASTEIGER

@<TRIPOS>ATOM
      1  N         -4.6890  -10.1760   -7.1920 N.3    18  TRP18      -0.1241
      2  CA        -4.7360  -10.0870   -5.7300 C.3    18  TRP18       0.1605
      3  C         -6.1530  -10.2370   -5.1840 C.2    18  TRP18       0.2264
      4  O         -7.0900   -9.6400   -5.7040 O.2    18  TRP18      -0.2867
      5  CB        -4.1050   -8.8010   -5.1890 C.3    18  TRP18       0.0550
      6  CG        -3.8540   -8.9150   -3.7140 C.ar   18  TRP18       0.0003
      7  CD1       -4.5740   -8.3330   -2.7060 C.ar   18  TRP18       0.0946
      8  CD2       -2.8390   -9.7000   -3.0810 C.ar   18  TRP18       0.0152
      9  NE1       -4.0470   -8.6900   -1.4830 N.ar   18  TRP18      -0.2442
     10  CE2       -2.9850   -9.5310   -1.6880 C.ar   18  TRP18       0.0810
     11  CE3       -1.8110  -10.5230   -3.5560 C.ar   18  TRP18       0.0012
     12  CZ2       -2.1400  -10.1550   -0.7680 C.ar   18  TRP18       0.0191
     13  CZ3       -0.9770  -11.1450   -2.6410 C.ar   18  TRP18       0.0001
     14  CH2       -1.1490  -10.9580   -1.2650 C.ar   18  TRP18       0.0015
     15  N          0.9300  -16.4530    0.0180 N.3    62  TYR62      -0.1241
     16  CA         2.2820  -15.9180    0.1890 C.3    62  TYR62       0.1605
     17  C          2.7370  -15.9220    1.6550 C.2    62  TYR62       0.2264
     18  O          3.8200  -15.4410    1.9900 O.2    62  TYR62      -0.2867
     19  CB         2.4050  -14.5420   -0.4860 C.3    62  TYR62       0.0534
     20  CG         2.1940  -14.6540   -1.9860 C.ar   62  TYR62      -0.0201
     21  CD1        3.2390  -15.0240   -2.8270 C.ar   62  TYR62      -0.0009
     22  CD2        0.9390  -14.4220   -2.5580 C.ar   62  TYR62      -0.0009
     23  CE1        3.0500  -15.1490   -4.1940 C.ar   62  TYR62       0.0417
     24  CE2        0.7400  -14.5370   -3.9220 C.ar   62  TYR62       0.0417
     25  CZ         1.8010  -14.9050   -4.7350 C.ar   62  TYR62       0.1957
     26  OH         1.6190  -15.0300   -6.0880 O.3    62  TYR62      -0.2866
     27  N         10.7990  -10.5220    4.4760 N.3   159  PHE159     -0.1241
     28  CA         9.5140  -10.1450    3.8890 C.3   159  PHE159      0.1605
     29  C          8.4140  -10.2510    4.9360 C.2   159  PHE159      0.2264
     30  O          8.3140  -11.2570    5.6370 O.2   159  PHE159     -0.2867
     31  CB         9.1740  -11.0400    2.6940 C.3   159  PHE159      0.0534
     32  CG         7.9230  -10.6270    1.9610 C.ar  159  PHE159     -0.0203
     33  CD1        8.0020   -9.8360    0.8240 C.ar  159  PHE159     -0.0042
     34  CD2        6.6720  -11.0290    2.4130 C.ar  159  PHE159     -0.0042
     35  CE1        6.8550   -9.4570    0.1450 C.ar  159  PHE159     -0.0003
     36  CE2        5.5210  -10.6530    1.7500 C.ar  159  PHE159     -0.0003
     37  CZ         5.6090   -9.8630    0.6140 C.ar  159  PHE159     -0.0000
     38  N          7.7580  -20.3700  -10.7460 N.3   196  ARG196     -0.1245
     39  CA         7.8480  -18.9270  -10.5600 C.3   196  ARG196      0.1563
     40  C          8.2450  -18.7210   -9.1100 C.2   196  ARG196      0.2260
     41  O          7.4530  -19.0030   -8.2140 O.2   196  ARG196     -0.2867
     42  CB         6.4810  -18.2670  -10.8030 C.3   196  ARG196      0.0307
     43  CG         6.4770  -16.7520  -10.6230 C.3   196  ARG196      0.0489
     44  CD         6.0900  -16.3220   -9.2120 C.3   196  ARG196      0.2205
     45  NE         6.0030  -14.8660   -9.1190 N.pl3 196  ARG196     -0.0865
     46  CZ         5.8290  -14.1800   -7.9890 C.cat 196  ARG196      0.5346
     47  NH1        5.7310  -14.8070   -6.8170 N.pl3 196  ARG196      0.1354
     48  NH2        5.7690  -12.8540   -8.0310 N.pl3 196  ARG196      0.1354
     49  N          8.9920  -16.6520   -5.9010 N.3   198  ASP198     -0.1225
     50  CA         8.6130  -15.4090   -5.2240 C.3   198  ASP198      0.1805
     51  C          9.7800  -14.7410   -4.4880 C.2   198  ASP198      0.2597
     52  O         10.5480  -15.4050   -3.7870 O.2   198  ASP198     -0.2718
     53  CB         7.4860  -15.7080   -4.2300 C.3   198  ASP198      0.1424
     54  CG         6.9950  -14.4680   -3.5020 C.2   198  ASP198      0.3668
     55  OD1        6.3110  -13.6420   -4.1310 O.co2 198  ASP198     -0.2456
     56  OD2        7.2820  -14.3230   -2.2970 O.co2 198  ASP198     -0.2456
     57  N          9.9190  -13.4280   -4.6640 N.am  199  TYR199     -0.1976
     58  CA        10.8600  -12.6280   -3.8750 C.3   199  TYR199      0.1639
     59  C         12.2790  -13.2150   -3.8260 C.2   199  TYR199      0.2290
     60  O         12.8170  -13.4590   -2.7480 O.2   199  TYR199     -0.2864
     61  CB        10.3120  -12.4530   -2.4470 C.3   199  TYR199      0.0560
     62  CG        11.0850  -11.4750   -1.5770 C.ar  199  TYR199     -0.0198
     63  CD1       11.2940  -10.1550   -1.9790 C.ar  199  TYR199     -0.0009
     64  CD2       11.5840  -11.8680   -0.3400 C.ar  199  TYR199     -0.0009
     65  CE1       12.0000   -9.2620   -1.1760 C.ar  199  TYR199      0.0417
     66  CE2       12.2860  -10.9850    0.4700 C.ar  199  TYR199      0.0417
     67  CZ        12.4960   -9.6880    0.0520 C.ar  199  TYR199      0.1957
     68  OH        13.2000   -8.8270    0.8750 O.3   199  TYR199     -0.2866
     69  N         11.1080  -13.6830   -9.4930 N.3   222  GLU222     -0.1245
     70  CA        10.6340  -12.3240   -9.2920 C.3   222  GLU222      0.1567
     71  C         11.7060  -11.5280   -8.5510 C.2   222  GLU222      0.2260
     72  O         11.8190  -11.5990   -7.3200 O.2   222  GLU222     -0.2867
     73  CB         9.3200  -12.2970   -8.5180 C.3   222  GLU222      0.0388
     74  CG         8.8410  -10.8850   -8.2290 C.3   222  GLU222      0.1160
     75  CD         8.2180  -10.7360   -6.8460 C.2   222  GLU222      0.3649
     76  OE1        8.4730  -11.5940   -5.9740 O.co2 222  GLU222     -0.2457
     77  OE2        7.4820   -9.7470   -6.6300 O.co2 222  GLU222     -0.2457
     78  N         12.4910   -7.9460   -8.0130 N.3   224  TRP224     -0.1241
     79  CA        11.8500   -6.6530   -8.2320 C.3   224  TRP224      0.1605
     80  C         12.8420   -5.4960   -8.1060 C.2   224  TRP224      0.2264
     81  O         13.0550   -4.9400   -7.0210 O.2   224  TRP224     -0.2867
     82  CB        10.6770   -6.4940   -7.2770 C.3   224  TRP224      0.0550
     83  CG         9.7700   -5.3510   -7.5800 C.ar  224  TRP224      0.0003
     84  CD1       10.1000   -4.1480   -8.1490 C.ar  224  TRP224      0.0946
     85  CD2        8.3640   -5.3030   -7.3230 C.ar  224  TRP224      0.0152
     86  NE1        8.9730   -3.3510   -8.2620 N.ar  224  TRP224     -0.2442
     87  CE2        7.8970   -4.0390   -7.7610 C.ar  224  TRP224      0.0810
     88  CE3        7.4500   -6.2100   -6.7660 C.ar  224  TRP224      0.0012
     89  CZ2        6.5530   -3.6610   -7.6580 C.ar  224  TRP224      0.0191
     90  CZ3        6.1160   -5.8320   -6.6600 C.ar  224  TRP224      0.0001
     91  CH2        5.6820   -4.5680   -7.1040 C.ar  224  TRP224      0.0015
     92  N         -0.2910   -9.0910  -10.0030 N.3   288  HIS288     -0.1226
     93  CA        -1.0980   -9.0460   -8.7800 C.3   288  HIS288      0.1752
     94  C         -0.5610   -8.0720   -7.7230 C.2   288  HIS288      0.2596
     95  O         -1.2850   -7.7110   -6.7870 O.2   288  HIS288     -0.2718
     96  CB        -1.1650  -10.4430   -8.1620 C.3   288  HIS288      0.0759
     97  CG         0.1750  -10.9790   -7.7520 C.ar  288  HIS288      0.0818
     98  ND1        1.1880  -11.2290   -8.6570 N.ar  288  HIS288     -0.2268
     99  CD2        0.6710  -11.3060   -6.5360 C.ar  288  HIS288      0.1154
    100  CE1        2.2450  -11.6940   -8.0160 C.ar  288  HIS288      0.1986
    101  NE2        1.9560  -11.7580   -6.7270 N.ar  288  HIS288     -0.2212
    102  N          0.7040   -7.6760   -7.8500 N.am  289  ASP289     -0.1974
    103  CA         1.3160   -6.7430   -6.8940 C.3   289  ASP289      0.1709
    104  C          1.3030   -5.2990   -7.3470 C.2   289  ASP289      0.2293
    105  O          1.3800   -4.4000   -6.5110 O.2   289  ASP289     -0.2864
    106  CB         2.7710   -7.1170   -6.6260 C.3   289  ASP289      0.1436
    107  CG         2.9090   -8.4310   -5.9020 C.2   289  ASP289      0.3671
    108  OD1        2.2690   -8.5980   -4.8470 O.co2 289  ASP289     -0.2456
    109  OD2        3.6420   -9.3010   -6.4080 O.co2 289  ASP289     -0.2456
@<TRIPOS>BOND
     1    42    43    1
     2    42    39    1
     3    38    39    1
     4    43    44    1
     5    39    40    1
     6    92    93    1
     7    69    70    1
     8    70    71    1
     9    70    73    1
    10    44    45    1
    11    45    46    2
    12    40    41    2
    13    93    96    1
    14    93    94    1
    15    98   100   ar
    16    98    97   ar
    17    71    72    2
    18    73    74    1
    19    86    84   ar
    20    86    87   ar
    21    79    80    1
    22    79    78    1
    23    79    82    1
    24    74    75    1
    25    96    97    1
    26    84    83   ar
    27    80    81    2
    28    48    46    1
    29   100   101   ar
    30    46    47    1
    31   102    94   am
    32   102   103    1
    33    87    89   ar
    34    87    85   ar
    35    97    99   ar
    36    94    95    2
    37    89    91   ar
    38    83    85   ar
    39    83    82    1
    40   104   103    1
    41   104   105    2
    42    85    88   ar
    43     1     2    1
    44    91    90   ar
    45   103   106    1
    46    75    77   ar
    47    75    76   ar
    48    88    90   ar
    49   101    99   ar
    50   106   107    1
    51   109   107   ar
    52    26    25    1
    53   107   108   ar
    54    49    50    1
    55     2     5    1
    56     2     3    1
    57     4     3    2
    58    50    51    1
    59    50    53    1
    60     5     6    1
    61    25    23   ar
    62    25    24   ar
    63    57    51   am
    64    57    58    1
    65    51    52    2
    66    53    54    1
    67    23    21   ar
    68    55    54   ar
    69    24    22   ar
    70    58    59    1
    71    58    61    1
    72    59    60    2
    73     6     8   ar
    74     6     7   ar
    75    11     8   ar
    76    11    13   ar
    77    54    56   ar
    78     8    10   ar
    79    21    20   ar
    80     7     9   ar
    81    13    14   ar
    82    22    20   ar
    83    61    62    1
    84    20    19    1
    85    63    62   ar
    86    63    65   ar
    87    10     9   ar
    88    10    12   ar
    89    62    64   ar
    90    14    12   ar
    91    65    67   ar
    92    19    16    1
    93    64    66   ar
    94    15    16    1
    95    67    66   ar
    96    67    68    1
    97    35    37   ar
    98    35    33   ar
    99    16    17    1
   100    37    36   ar
   101    33    32   ar
   102    17    18    2
   103    36    34   ar
   104    32    34   ar
   105    32    31    1
   106    31    28    1
   107    28    27    1
   108    28    29    1
   109    29    30    2
