@<TRIPOS>MOLECULE
tmp/3qgwB00.pdb
 150 142 0 0 0
SMALL
GASTEIGER

@<TRIPOS>ATOM
      1  N         33.5200   57.6600   14.5870 N.3    12  ILE12      -0.1245
      2  CA        33.4490   56.4410   15.3820 C.3    12  ILE12       0.1561
      3  C         34.6690   56.2200   16.2790 C.2    12  ILE12       0.2260
      4  O         34.8540   55.1280   16.8280 O.2    12  ILE12      -0.2867
      5  CB        33.2640   55.2040   14.4550 C.3    12  ILE12       0.0252
      6  CG1       34.3650   55.1610   13.3990 C.3    12  ILE12       0.0019
      7  CG2       31.9300   55.2770   13.7110 C.3    12  ILE12       0.0019
      8  CD1       34.2960   53.9490   12.4850 C.3    12  ILE12       0.0001
      9  N         38.6550   58.4790   13.9220 N.3    20  VAL20      -0.1245
     10  CA        38.2900   57.3710   13.0520 C.3    20  VAL20       0.1561
     11  C         36.8830   57.6800   12.5510 C.2    20  VAL20       0.2260
     12  O         36.0310   58.0900   13.3000 O.2    20  VAL20      -0.2867
     13  CB        38.3190   55.9840   13.7710 C.3    20  VAL20       0.0252
     14  CG1       37.9300   54.8900   12.7790 C.3    20  VAL20       0.0019
     15  CG2       39.7180   55.6760   14.2870 C.3    20  VAL20       0.0019
     16  N         33.6280   56.4220    9.7030 N.3    22  LEU22      -0.1245
     17  CA        33.0620   55.3870    8.8660 C.3    22  LEU22       0.1561
     18  C         32.7670   56.1180    7.5650 C.2    22  LEU22       0.2260
     19  O         32.2690   57.2470    7.5680 O.2    22  LEU22      -0.2867
     20  CB        31.7730   54.8160    9.4760 C.3    22  LEU22       0.0270
     21  CG        31.1300   53.6060    8.7900 C.3    22  LEU22       0.0019
     22  CD1       30.0940   53.0040    9.7250 C.3    22  LEU22       0.0001
     23  CD2       30.5090   54.0080    7.4570 C.3    22  LEU22       0.0001
     24  N         37.0890   52.4930    6.9270 N.3    32  ALA32      -0.1245
     25  CA        37.4220   53.0580    8.2220 C.3    32  ALA32       0.1562
     26  C         38.5880   54.0100    7.9820 C.2    32  ALA32       0.2260
     27  O         39.7200   53.5800    7.7730 O.2    32  ALA32      -0.2867
     28  CB        37.8250   51.9740    9.1790 C.3    32  ALA32       0.0290
     29  N         41.1070   56.7290    9.3180 N.3    34  LYS34      -0.1245
     30  CA        41.7900   57.3210   10.4590 C.3    34  LYS34       0.1561
     31  C         42.4910   58.5650    9.9480 C.2    34  LYS34       0.2260
     32  O         43.3220   58.4910    9.0520 O.2    34  LYS34      -0.2867
     33  CB        42.8520   56.3820   11.0400 C.3    34  LYS34       0.0271
     34  CG        43.8680   57.1610   11.8110 C.3    34  LYS34       0.0035
     35  CD        44.9530   56.3660   12.4290 C.3    34  LYS34       0.0206
     36  CE        44.4280   55.3910   13.3890 C.3    34  LYS34       0.1093
     37  NZ        45.5550   54.6120   13.9940 N.3    34  LYS34      -0.1314
     38  N         52.7720   48.8190    7.7690 N.3    53  MET53      -0.1245
     39  CA        51.5000   48.1240    7.7110 C.3    53  MET53       0.1570
     40  C         51.1290   47.6540    6.3010 C.2    53  MET53       0.2261
     41  O         50.1970   46.8740    6.1300 O.2    53  MET53      -0.2867
     42  CB        50.4370   49.0430    8.2780 C.3    53  MET53       0.0387
     43  CG        49.1360   48.4280    8.5010 C.3    53  MET53       0.0595
     44  SD        48.0250   49.6530    9.1730 S.3    53  MET53      -0.1393
     45  CE        48.3730   49.4740   10.9080 C.3    53  MET53       0.0692
     46  N         44.0420   43.5350   10.2470 N.3    62  VAL62      -0.1245
     47  CA        43.2330   44.4600    9.4560 C.3    62  VAL62       0.1561
     48  C         44.0160   44.8880    8.2110 C.2    62  VAL62       0.2260
     49  O         45.2440   45.1120    8.2570 O.2    62  VAL62      -0.2867
     50  CB        42.8430   45.7390   10.2750 C.3    62  VAL62       0.0252
     51  CG1       44.0480   46.6880   10.3950 C.3    62  VAL62       0.0019
     52  CG2       41.6480   46.4370    9.6280 C.3    62  VAL62       0.0019
     53  N         41.3760   52.1170    5.9380 N.3    78  PHE78      -0.1227
     54  CA        41.3080   50.6840    6.2460 C.3    78  PHE78       0.1736
     55  C         40.0420   50.0190    5.7230 C.2    78  PHE78       0.2595
     56  O         39.1080   50.6810    5.3180 O.2    78  PHE78      -0.2718
     57  CB        41.3240   50.4280    7.7590 C.3    78  PHE78       0.0547
     58  CG        42.5570   50.8890    8.4450 C.ar   78  PHE78      -0.0202
     59  CD1       42.7100   52.2240    8.8260 C.ar   78  PHE78      -0.0042
     60  CD2       43.5980   49.9990    8.6810 C.ar   78  PHE78      -0.0042
     61  CE1       43.8870   52.6640    9.4240 C.ar   78  PHE78      -0.0003
     62  CE2       44.7790   50.4280    9.2770 C.ar   78  PHE78      -0.0003
     63  CZ        44.9180   51.7670    9.6440 C.ar   78  PHE78      -0.0000
     64  N         40.0350   48.6890    5.7520 N.am   79  GLU79      -0.1965
     65  CA        38.8500   47.9350    5.3550 C.3    79  GLU79       0.1733
     66  C         37.9250   48.1600    6.5510 C.2    79  GLU79       0.2616
     67  O         38.4110   48.4660    7.6420 O.2    79  GLU79      -0.2715
     68  CB        39.1590   46.4350    5.2390 C.3    79  GLU79       0.0429
     69  CG        39.2600   45.7080    6.6260 C.3    79  GLU79       0.1163
     70  CD        39.5470   44.2300    6.5010 C.2    79  GLU79       0.3649
     71  OE1       40.6770   43.8050    6.8220 O.co2  79  GLU79      -0.2457
     72  OE2       38.6260   43.4940    6.0810 O.co2  79  GLU79      -0.2457
     73  N         36.6160   48.0290    6.3660 N.am   80  PHE80      -0.1960
     74  CA        35.6820   48.2260    7.4780 C.3    80  PHE80       0.1771
     75  C         35.2560   46.9110    8.1180 C.2    80  PHE80       0.2619
     76  O         34.7700   46.0040    7.4310 O.2    80  PHE80      -0.2715
     77  CB        34.4440   48.9940    7.0030 C.3    80  PHE80       0.0574
     78  CG        33.5060   49.3670    8.1100 C.ar   80  PHE80      -0.0200
     79  CD1       33.9130   50.2420    9.1150 C.ar   80  PHE80      -0.0042
     80  CD2       32.2200   48.8370    8.1650 C.ar   80  PHE80      -0.0042
     81  CE1       33.0700   50.5810   10.1530 C.ar   80  PHE80      -0.0003
     82  CE2       31.3550   49.1750    9.2070 C.ar   80  PHE80      -0.0003
     83  CZ        31.7810   50.0460   10.2040 C.ar   80  PHE80      -0.0000
     84  N         35.4640   46.8180    9.4260 N.am   81  MET81      -0.1963
     85  CA        35.1020   45.6640   10.2450 C.3    81  MET81       0.1736
     86  C         33.7570   46.0250   10.8780 C.2    81  MET81       0.2616
     87  O         33.6600   46.9070   11.7280 O.2    81  MET81      -0.2715
     88  CB        36.1700   45.4640   11.3120 C.3    81  MET81       0.0427
     89  CG        37.5460   45.1980   10.7120 C.3    81  MET81       0.0599
     90  SD        37.4860   43.7150    9.7110 S.3    81  MET81      -0.1393
     91  CE        37.7420   42.4830   11.0060 C.3    81  MET81       0.0692
     92  N         32.7270   45.3350   10.4180 N.am   82  GLU82      -0.1963
     93  CA        31.3470   45.5640   10.8180 C.3    82  GLU82       0.1733
     94  C         30.9760   45.5940   12.3030 C.2    82  GLU82       0.2616
     95  O         30.2080   46.4620   12.7240 O.2    82  GLU82      -0.2715
     96  CB        30.4670   44.5450   10.0940 C.3    82  GLU82       0.0429
     97  CG        29.0210   44.9720    9.8910 C.3    82  GLU82       0.1163
     98  CD        28.8790   46.2530    9.0660 C.2    82  GLU82       0.3649
     99  OE1       29.5500   46.3950    8.0020 O.co2  82  GLU82      -0.2457
    100  OE2       28.0810   47.1180    9.4940 O.co2  82  GLU82      -0.2457
    101  N         31.5040   44.6710   13.1050 N.am   83  HIS83      -0.1959
    102  CA        31.1330   44.6290   14.5190 C.3    83  HIS83       0.1787
    103  C         31.9330   45.4840   15.4840 C.2    83  HIS83       0.2621
    104  O         31.8480   45.2830   16.6690 O.2    83  HIS83      -0.2715
    105  CB        31.1280   43.1860   15.0140 C.3    83  HIS83       0.0785
    106  CG        30.0430   42.3670   14.4080 C.ar   83  HIS83       0.0821
    107  ND1       28.7090   42.6770   14.5740 N.ar   83  HIS83      -0.2267
    108  CD2       30.0830   41.3190   13.5530 C.ar   83  HIS83       0.1154
    109  CE1       27.9770   41.8610   13.8410 C.ar   83  HIS83       0.1986
    110  NE2       28.7860   41.0260   13.2090 N.ar   83  HIS83      -0.2212
    111  N         32.7110   46.4270   14.9590 N.am   84  GLY84      -0.1940
    112  CA        33.5030   47.3020   15.8110 C.3    84  GLY84       0.2014
    113  C         34.6820   46.6390   16.5040 C.2    84  GLY84       0.2639
    114  O         35.1020   45.5570   16.1270 O.2    84  GLY84      -0.2714
    115  N         35.2190   47.3090   17.5240 N.am   85  CYS85      -0.1967
    116  CA        36.3620   46.7870   18.2720 C.3    85  CYS85       0.1712
    117  C         35.9490   45.7000   19.2680 C.2    85  CYS85       0.2296
    118  O         34.8540   45.7210   19.8030 O.2    85  CYS85      -0.2864
    119  CB        37.1100   47.9260   18.9890 C.3    85  CYS85       0.0983
    120  SG        36.4650   48.5660   20.5730 S.3    85  CYS85      -0.0798
    121  N         34.2580   46.7070   22.8330 N.3    88  ASP88      -0.1239
    122  CA        32.8430   47.0460   22.7800 C.3    88  ASP88       0.1674
    123  C         31.9470   45.8720   22.4170 C.2    88  ASP88       0.2266
    124  O         30.8310   45.7960   22.8660 O.2    88  ASP88      -0.2867
    125  CB        32.6010   48.2000   21.7900 C.3    88  ASP88       0.1410
    126  CG        33.1520   49.5380   22.2890 C.2    88  ASP88       0.3668
    127  OD1       32.8000   50.5880   21.7190 O.co2  88  ASP88      -0.2456
    128  OD2       33.9350   49.5430   23.2570 O.co2  88  ASP88      -0.2456
    129  N         39.6930   44.0530   16.0130 N.3   132  LEU132     -0.1245
    130  CA        38.4240   44.3150   15.3610 C.3   132  LEU132      0.1561
    131  C         37.6210   43.0480   15.1540 C.2   132  LEU132      0.2260
    132  O         38.1740   41.9610   14.9830 O.2   132  LEU132     -0.2867
    133  CB        38.6780   45.0320   14.0320 C.3   132  LEU132      0.0270
    134  CG        39.5000   46.3290   14.1790 C.3   132  LEU132      0.0019
    135  CD1       39.7480   46.9370   12.8130 C.3   132  LEU132      0.0001
    136  CD2       38.7610   47.3300   15.0590 C.3   132  LEU132      0.0001
    137  N         44.5230   45.2030   14.8180 N.3   142  SER142     -0.1202
    138  CA        44.6620   46.4890   14.1230 C.3   142  SER142      0.2020
    139  C         45.5720   47.3950   14.9470 C.2   142  SER142      0.2618
    140  O         46.0750   46.9760   15.9900 O.2   142  SER142     -0.2717
    141  CB        43.2900   47.1490   13.9070 C.3   142  SER142      0.2103
    142  OG        43.1420   48.3710   14.6060 O.3   142  SER142     -0.2182
    143  N         45.8010   48.6190   14.4730 N.am  143  ASP143     -0.1973
    144  CA        46.6600   49.5660   15.1900 C.3   143  ASP143      0.1709
    145  C         48.0660   49.0280   15.4140 C.2   143  ASP143      0.2293
    146  O         48.6200   49.2130   16.4650 O.2   143  ASP143     -0.2864
    147  CB        46.0440   49.9040   16.5560 C.3   143  ASP143      0.1436
    148  CG        45.1880   51.1710   16.5290 C.2   143  ASP143      0.3671
    149  OD1       45.7420   52.2630   16.2690 O.co2 143  ASP143     -0.2456
    150  OD2       43.9620   51.0780   16.7820 O.co2 143  ASP143     -0.2456
@<TRIPOS>BOND
     1    68    65    1
     2    68    69    1
     3    56    55    2
     4    65    64    1
     5    65    66    1
     6    55    64   am
     7    55    54    1
     8    53    54    1
     9    72    70   ar
    10    41    40    2
    11    54    57    1
    12    40    39    1
    13    73    66   am
    14    73    74    1
    15    70    69    1
    16    70    71   ar
    17    66    67    2
    18    24    25    1
    19    77    74    1
    20    77    78    1
    21    76    75    2
    22    23    21    1
    23    74    75    1
    24    18    19    2
    25    18    17    1
    26    39    38    1
    27    39    42    1
    28    57    58    1
    29    27    26    2
    30    26    25    1
    31    99    98   ar
    32    78    80   ar
    33    78    79   ar
    34    75    84   am
    35    80    82   ar
    36    48    49    2
    37    48    47    1
    38    25    28    1
    39    42    43    1
    40    58    60   ar
    41    58    59   ar
    42    43    44    1
    43    60    62   ar
    44    21    20    1
    45    21    22    1
    46    59    61   ar
    47    17    20    1
    48    17    16    1
    49    32    31    2
    50    98   100   ar
    51    98    97    1
    52    79    81   ar
    53    44    45    1
    54    82    83   ar
    55    62    63   ar
    56    29    30    1
    57    61    63   ar
    58    84    85    1
    59    47    46    1
    60    47    50    1
    61    52    50    1
    62    90    89    1
    63    90    91    1
    64    97    96    1
    65    31    30    1
    66    96    93    1
    67    81    83   ar
    68    85    86    1
    69    85    88    1
    70    50    51    1
    71    92    93    1
    72    92    86   am
    73    30    33    1
    74    89    88    1
    75    93    94    1
    76    86    87    2
    77    33    34    1
    78    34    35    1
    79    94    95    2
    80    94   101   am
    81    35    36    1
    82     8     6    1
    83    11    10    1
    84    11    12    2
    85    14    13    1
    86   135   134    1
    87    10    13    1
    88    10     9    1
    89   101   102    1
    90   110   108   ar
    91   110   109   ar
    92    36    37    1
    93     6     5    1
    94   108   106   ar
    95     7     5    1
    96    13    15    1
    97   109   107   ar
    98   141   138    1
    99   141   142    1
   100   133   134    1
   101   133   130    1
   102   138   137    1
   103   138   139    1
   104   134   136    1
   105   106   107   ar
   106   106   105    1
   107     5     2    1
   108   143   139   am
   109   143   144    1
   110   102   105    1
   111   102   103    1
   112     1     2    1
   113   139   140    2
   114   111   103   am
   115   111   112    1
   116   132   131    2
   117   131   130    1
   118   144   145    1
   119   144   147    1
   120   130   129    1
   121     2     3    1
   122   145   146    2
   123   103   104    2
   124   112   113    1
   125   114   113    2
   126   149   148   ar
   127     3     4    2
   128   113   115   am
   129   148   147    1
   130   148   150   ar
   131   115   116    1
   132   116   119    1
   133   116   117    1
   134   119   120    1
   135   117   118    2
   136   127   126   ar
   137   125   126    1
   138   125   122    1
   139   126   128   ar
   140   123   122    1
   141   123   124    2
   142   122   121    1
