@<TRIPOS>MOLECULE
tmp/3qgwA00.pdb
 149 139 0 0 0
SMALL
GASTEIGER

@<TRIPOS>ATOM
      1  N         23.3890  -17.4050    4.9540 N.3    12  ILE12      -0.1231
      2  CA        23.9430  -16.5940    6.0480 C.3    12  ILE12       0.1692
      3  C         22.9190  -16.2200    7.1540 C.2    12  ILE12       0.2593
      4  O         23.2110  -15.3690    8.0020 O.2    12  ILE12      -0.2718
      5  CB        24.5080  -15.2440    5.5260 C.3    12  ILE12       0.0266
      6  CG1       24.7030  -15.2720    4.0090 C.3    12  ILE12       0.0019
      7  CG2       25.8180  -14.9650    6.1950 C.3    12  ILE12       0.0020
      8  CD1       24.4330  -13.9450    3.3420 C.3    12  ILE12       0.0001
      9  N         21.7460  -16.8460    7.1720 N.am   13  GLY13      -0.1942
     10  CA        20.7580  -16.4710    8.1770 C.3    13  GLY13       0.2014
     11  C         20.5090  -17.3860    9.3650 C.2    13  GLY13       0.2639
     12  O         21.1650  -18.4110    9.5160 O.2    13  GLY13      -0.2714
     13  N         19.5540  -17.0200   10.2160 N.am   14  SER14      -0.1949
     14  CA        19.2440  -17.8570   11.3680 C.3    14  SER14       0.1924
     15  C         18.0640  -17.3620   12.2050 C.2    14  SER14       0.2314
     16  O         17.6750  -16.1880   12.1280 O.2    14  SER14      -0.2863
     17  CB        20.4750  -18.0070   12.2690 C.3    14  SER14       0.2116
     18  OG        20.2310  -18.9150   13.3370 O.3    14  SER14      -0.2180
     19  N         13.2530  -16.7600    8.9640 N.3    18  GLY18      -0.1225
     20  CA        13.8000  -17.1170    7.6680 C.3    18  GLY18       0.1811
     21  C         15.3180  -17.1260    7.6060 C.2    18  GLY18       0.2280
     22  O         16.0010  -16.7330    8.5430 O.2    18  GLY18      -0.2866
     23  N         18.8860  -16.1950    5.1670 N.3    20  VAL20      -0.1245
     24  CA        19.3420  -15.2200    4.1910 C.3    20  VAL20       0.1561
     25  C         20.3390  -15.9950    3.3380 C.2    20  VAL20       0.2260
     26  O         21.0730  -16.8390    3.8350 O.2    20  VAL20      -0.2867
     27  CB        20.0060  -13.9710    4.8500 C.3    20  VAL20       0.0252
     28  CG1       21.2430  -14.3710    5.6200 C.3    20  VAL20       0.0019
     29  CG2       20.3400  -12.9240    3.7780 C.3    20  VAL20       0.0019
     30  N         21.0940  -10.3030   -1.9680 N.3    32  ALA32      -0.1245
     31  CA        20.9500  -10.9610   -0.6690 C.3    32  ALA32       0.1562
     32  C         19.4590  -11.2960   -0.6010 C.2    32  ALA32       0.2260
     33  O         18.6140  -10.3940   -0.5480 O.2    32  ALA32      -0.2867
     34  CB        21.3270  -10.0180    0.4570 C.3    32  ALA32       0.0290
     35  N         16.4030  -12.7470    1.4350 N.3    34  LYS34      -0.1245
     36  CA        15.9030  -13.0850    2.7600 C.3    34  LYS34       0.1561
     37  C         14.5840  -13.8230    2.6420 C.2    34  LYS34       0.2260
     38  O         13.6010  -13.2470    2.2710 O.2    34  LYS34      -0.2867
     39  CB        15.6990  -11.8330    3.6090 C.3    34  LYS34       0.0271
     40  CG        15.4240  -12.1430    5.0590 C.3    34  LYS34       0.0035
     41  CD        15.2380  -10.8760    5.8730 C.3    34  LYS34       0.0206
     42  CE        14.9670  -11.2060    7.3810 C.3    34  LYS34       0.1093
     43  NZ        14.7900   -9.9830    8.2320 N.3    34  LYS34      -0.1314
     44  N         19.9420    0.3780    2.6170 N.3    62  VAL62      -0.1245
     45  CA        20.0310   -0.7610    1.7080 C.3    62  VAL62       0.1561
     46  C         18.7740   -0.8650    0.7970 C.2    62  VAL62       0.2260
     47  O         17.6130   -0.6880    1.2480 O.2    62  VAL62      -0.2867
     48  CB        20.2580   -2.0910    2.4920 C.3    62  VAL62       0.0252
     49  CG1       19.1330   -2.3460    3.4800 C.3    62  VAL62       0.0019
     50  CG2       20.3610   -3.2520    1.5210 C.3    62  VAL62       0.0019
     51  N         17.3320   -8.1300   -1.6220 N.3    78  PHE78      -0.1227
     52  CA        18.1250   -6.9190   -1.4500 C.3    78  PHE78       0.1736
     53  C         19.3740   -6.9090   -2.3060 C.2    78  PHE78       0.2595
     54  O         19.8130   -7.9220   -2.8200 O.2    78  PHE78      -0.2718
     55  CB        18.6150   -6.7590   -0.0080 C.3    78  PHE78       0.0547
     56  CG        17.5300   -6.7820    1.0280 C.ar   78  PHE78      -0.0202
     57  CD1       16.9410   -7.9840    1.4230 C.ar   78  PHE78      -0.0042
     58  CD2       17.1340   -5.6020    1.6590 C.ar   78  PHE78      -0.0042
     59  CE1       15.9760   -8.0140    2.4320 C.ar   78  PHE78      -0.0003
     60  CE2       16.1820   -5.6230    2.6600 C.ar   78  PHE78      -0.0003
     61  CZ        15.5990   -6.8390    3.0490 C.ar   78  PHE78      -0.0000
     62  N         19.9470   -5.7210   -2.4200 N.am   79  GLU79      -0.1965
     63  CA        21.1960   -5.5400   -3.1220 C.3    79  GLU79       0.1733
     64  C         22.2230   -6.1990   -2.1850 C.2    79  GLU79       0.2616
     65  O         22.0600   -6.1910   -0.9590 O.2    79  GLU79      -0.2715
     66  CB        21.5190   -4.0510   -3.2560 C.3    79  GLU79       0.0429
     67  CG        21.8320   -3.3670   -1.8820 C.3    79  GLU79       0.1163
     68  CD        22.1720   -1.8910   -1.9760 C.2    79  GLU79       0.3649
     69  OE1       23.1040   -1.5480   -2.7320 O.co2  79  GLU79      -0.2457
     70  OE2       21.5320   -1.0750   -1.2890 O.co2  79  GLU79      -0.2457
     71  N         23.2930   -6.7480   -2.7440 N.am   80  PHE80      -0.1960
     72  CA        24.3010   -7.3980   -1.9130 C.3    80  PHE80       0.1771
     73  C         25.3630   -6.4520   -1.3600 C.2    80  PHE80       0.2619
     74  O         26.0250   -5.7600   -2.1280 O.2    80  PHE80      -0.2715
     75  CB        25.0000   -8.5010   -2.6950 C.3    80  PHE80       0.0574
     76  CG        25.8950   -9.3450   -1.8590 C.ar   80  PHE80      -0.0200
     77  CD1       25.3630  -10.2610   -0.9600 C.ar   80  PHE80      -0.0042
     78  CD2       27.2650   -9.2530   -1.9890 C.ar   80  PHE80      -0.0042
     79  CE1       26.1950  -11.0820   -0.2050 C.ar   80  PHE80      -0.0003
     80  CE2       28.1030  -10.0620   -1.2450 C.ar   80  PHE80      -0.0003
     81  CZ        27.5780  -10.9810   -0.3530 C.ar   80  PHE80      -0.0000
     82  N         25.5260   -6.4240   -0.0350 N.am   81  MET81      -0.1963
     83  CA        26.5400   -5.5730    0.5850 C.3    81  MET81       0.1736
     84  C         27.7700   -6.4390    0.7610 C.2    81  MET81       0.2616
     85  O         27.8760   -7.2510    1.6760 O.2    81  MET81      -0.2715
     86  CB        26.0380   -5.0200    1.9140 C.3    81  MET81       0.0427
     87  CG        24.8550   -4.0580    1.7220 C.3    81  MET81       0.0599
     88  SD        25.3050   -2.6350    0.6650 S.3    81  MET81      -0.1393
     89  CE        26.0020   -1.4890    1.8620 C.3    81  MET81       0.0692
     90  N         28.6970   -6.2430   -0.1610 N.am   82  GLU82      -0.1977
     91  CA        29.9200   -7.0120   -0.2230 C.3    82  GLU82       0.1602
     92  C         30.7160   -7.2410    1.0460 C.2    82  GLU82       0.2287
     93  O         31.3500   -8.2780    1.1750 O.2    82  GLU82      -0.2864
     94  CB        30.8440   -6.4340   -1.2880 C.3    82  GLU82       0.0415
     95  CG        31.8910   -7.4150   -1.7390 C.3    82  GLU82       0.1163
     96  CD        31.2930   -8.6870   -2.3450 C.2    82  GLU82       0.3649
     97  OE1       30.5510   -8.5840   -3.3420 O.co2  82  GLU82      -0.2457
     98  OE2       31.5780   -9.7930   -1.8240 O.co2  82  GLU82      -0.2457
     99  N         29.5320   -7.4500    4.3820 N.3    84  GLY84      -0.1210
    100  CA        28.7660   -7.8920    5.5460 C.3    84  GLY84       0.1956
    101  C         28.3470   -6.8650    6.5920 C.2    84  GLY84       0.2612
    102  O         28.1960   -5.6870    6.3070 O.2    84  GLY84      -0.2717
    103  N         28.1400   -7.3440    7.8130 N.am   85  CYS85      -0.1970
    104  CA        27.7310   -6.5000    8.9340 C.3    85  CYS85       0.1712
    105  C         28.8450   -5.6310    9.4970 C.2    85  CYS85       0.2296
    106  O         29.9640   -6.1020    9.7190 O.2    85  CYS85      -0.2864
    107  CB        27.1650   -7.3670   10.0610 C.3    85  CYS85       0.0983
    108  SG        25.6000   -8.1540    9.5730 S.3    85  CYS85      -0.0798
    109  N         30.8680   -7.1400   12.2510 N.3    88  ASP88      -0.1239
    110  CA        31.9080   -8.0690   11.8500 C.3    88  ASP88       0.1674
    111  C         33.0980   -7.3950   11.1630 C.2    88  ASP88       0.2266
    112  O         34.2390   -7.7500   11.3900 O.2    88  ASP88      -0.2867
    113  CB        31.2780   -9.0980   10.9190 C.3    88  ASP88       0.1410
    114  CG        32.1410  -10.3080   10.7270 C.2    88  ASP88       0.3668
    115  OD1       33.2350  -10.1850   10.1320 O.co2  88  ASP88      -0.2456
    116  OD2       31.7190  -11.3880   11.1790 O.co2  88  ASP88      -0.2456
    117  N         25.4150   -4.7110   14.1460 N.3   129  ARG129     -0.1245
    118  CA        25.0630   -5.9420   13.4230 C.3   129  ARG129      0.1563
    119  C         23.9990   -5.7050   12.3730 C.2   129  ARG129      0.2260
    120  O         23.7750   -6.5710   11.5140 O.2   129  ARG129     -0.2867
    121  CB        24.4780   -7.0310   14.3240 C.3   129  ARG129      0.0307
    122  CG        23.7870   -6.5940   15.6070 C.3   129  ARG129      0.0489
    123  CD        23.2040   -7.8480   16.3840 C.3   129  ARG129      0.2205
    124  NE        22.1870   -8.5790   15.6030 N.pl3 129  ARG129     -0.0865
    125  CZ        22.3960   -9.3900   14.5610 C.cat 129  ARG129      0.5346
    126  NH1       23.6270   -9.6330   14.1040 N.pl3 129  ARG129      0.1354
    127  NH2       21.3530   -9.9670   13.9660 N.pl3 129  ARG129      0.1354
    128  N         25.3110   -2.4400    7.2950 N.3   132  LEU132     -0.1245
    129  CA        26.0500   -3.1920    6.2980 C.3   132  LEU132      0.1561
    130  C         27.1290   -2.3620    5.6370 C.2   132  LEU132      0.2260
    131  O         26.9860   -1.1520    5.4660 O.2   132  LEU132     -0.2867
    132  CB        25.0770   -3.7450    5.2570 C.3   132  LEU132      0.0270
    133  CG        24.0940   -4.7810    5.8350 C.3   132  LEU132      0.0019
    134  CD1       23.0400   -5.0990    4.8090 C.3   132  LEU132      0.0001
    135  CD2       24.8060   -6.0570    6.2460 C.3   132  LEU132      0.0001
    136  N         20.2430   -1.0730    7.6950 N.3   142  SER142     -0.1202
    137  CA        19.3960   -2.1860    7.3070 C.3   142  SER142      0.2020
    138  C         18.4540   -2.5890    8.4360 C.2   142  SER142      0.2618
    139  O         18.4670   -1.9960    9.5170 O.2   142  SER142     -0.2717
    140  CB        20.2600   -3.3820    6.9020 C.3   142  SER142      0.2103
    141  OG        19.4770   -4.4660    6.4370 O.3   142  SER142     -0.2182
    142  N         17.6400   -3.6040    8.1690 N.am  143  ASP143     -0.1973
    143  CA        16.6900   -4.0710    9.1510 C.3   143  ASP143      0.1709
    144  C         15.8100   -2.9200    9.6610 C.2   143  ASP143      0.2293
    145  O         15.3990   -2.8970   10.8060 O.2   143  ASP143     -0.2864
    146  CB        17.4440   -4.7460   10.2960 C.3   143  ASP143      0.1436
    147  CG        16.5240   -5.2270   11.3780 C.2   143  ASP143      0.3671
    148  OD1       15.5370   -5.9270   11.0510 O.co2 143  ASP143     -0.2456
    149  OD2       16.7870   -4.8950   12.5490 O.co2 143  ASP143     -0.2456
@<TRIPOS>BOND
     1    97    96   ar
     2    66    63    1
     3    66    67    1
     4    63    62    1
     5    63    64    1
     6    54    53    2
     7    71    64   am
     8    71    72    1
     9    69    68   ar
    10    75    72    1
    11    75    76    1
    12    62    53   am
    13    96    98   ar
    14    96    95    1
    15    53    52    1
    16    64    65    2
    17    74    73    2
    18    78    76   ar
    19    78    80   ar
    20    68    67    1
    21    68    70   ar
    22    30    31    1
    23    72    73    1
    24    76    77   ar
    25    95    94    1
    26    51    52    1
    27    52    55    1
    28    73    82   am
    29    94    91    1
    30    80    81   ar
    31    77    79   ar
    32    31    32    1
    33    31    34    1
    34    32    33    2
    35    81    79   ar
    36    91    90    1
    37    91    92    1
    38    90    84   am
    39    82    83    1
    40    55    56    1
    41    83    84    1
    42    83    86    1
    43    88    87    1
    44    88    89    1
    45    84    85    2
    46    46    47    2
    47    46    45    1
    48    56    57   ar
    49    56    58   ar
    50    92    93    2
    51    57    59   ar
    52    35    36    1
    53    50    48    1
    54    58    60   ar
    55    45    48    1
    56    45    44    1
    57    87    86    1
    58    38    37    2
    59    59    61   ar
    60    48    49    1
    61    37    36    1
    62    60    61   ar
    63    36    39    1
    64    25    26    2
    65    25    24    1
    66     8     6    1
    67    39    40    1
    68    29    27    1
    69     6     5    1
    70    24    27    1
    71    24    23    1
    72    99   100    1
    73   134   133    1
    74    27    28    1
    75     1     2    1
    76    40    41    1
    77   132   133    1
    78   132   129    1
    79   131   130    2
    80     5     2    1
    81     5     7    1
    82   100   101    1
    83   130   129    1
    84   133   135    1
    85    41    42    1
    86     2     3    1
    87   129   128    1
    88   102   101    2
    89   141   140    1
    90   101   103   am
    91   140   137    1
    92     3     9   am
    93     3     4    2
    94     9    10    1
    95   137   136    1
    96   137   138    1
    97    42    43    1
    98    21    20    1
    99    21    22    2
   100    20    19    1
   101   103   104    1
   102   142   138   am
   103   142   143    1
   104    10    11    1
   105   138   139    2
   106   104   105    1
   107   104   107    1
   108   143   144    1
   109   143   146    1
   110    11    12    2
   111    11    13   am
   112   105   106    2
   113   108   107    1
   114   144   145    2
   115   115   114   ar
   116    13    14    1
   117   146   147    1
   118   114   113    1
   119   114   116   ar
   120   113   110    1
   121   148   147   ar
   122   111   112    2
   123   111   110    1
   124    14    15    1
   125    14    17    1
   126   147   149   ar
   127   120   119    2
   128   110   109    1
   129    16    15    2
   130    17    18    1
   131   119   118    1
   132   118   117    1
   133   118   121    1
   134   127   125    1
   135   126   125    1
   136   121   122    1
   137   125   124    2
   138   124   123    1
   139   122   123    1
