@<TRIPOS>MOLECULE
tmp/3qgyB00.pdb
 160 151 0 0 0
SMALL
GASTEIGER

@<TRIPOS>ATOM
      1  N         30.3010   58.9230    9.2750 N.3    12  GLN12      -0.1245
      2  CA        30.1150   59.1800   10.6930 C.3    12  GLN12       0.1566
      3  C         31.3700   58.9420   11.5080 C.2    12  GLN12       0.2260
      4  O         32.1130   57.9980   11.2440 O.2    12  GLN12      -0.2867
      5  CB        29.0040   58.2660   11.2050 C.3    12  GLN12       0.0367
      6  CG        28.8470   58.2480   12.6750 C.3    12  GLN12       0.0905
      7  CD        27.8660   57.2000   13.1280 C.2    12  GLN12       0.2608
      8  OE1       27.4510   57.1890   14.2900 O.2    12  GLN12      -0.2717
      9  NE2       27.4880   56.3050   12.2170 N.am   12  GLN12      -0.0878
     10  N         33.4570   57.5360   14.3620 N.3    14  ILE14      -0.1245
     11  CA        33.2920   56.3310   15.1630 C.3    14  ILE14       0.1561
     12  C         34.4050   56.1810   16.1830 C.2    14  ILE14       0.2260
     13  O         34.3590   55.3090   17.0390 O.2    14  ILE14      -0.2867
     14  CB        33.2550   55.0720   14.2590 C.3    14  ILE14       0.0252
     15  CG1       34.5350   54.9820   13.4200 C.3    14  ILE14       0.0019
     16  CG2       32.0360   55.1320   13.3480 C.3    14  ILE14       0.0019
     17  CD1       34.5810   53.7910   12.4740 C.3    14  ILE14       0.0001
     18  N         38.5250   58.7400   13.8000 N.3    22  VAL22      -0.1245
     19  CA        38.2070   57.5810   12.9780 C.3    22  VAL22       0.1561
     20  C         36.7850   57.7210   12.4540 C.2    22  VAL22       0.2260
     21  O         35.8460   57.9530   13.2110 O.2    22  VAL22      -0.2867
     22  CB        38.3440   56.2560   13.7710 C.3    22  VAL22       0.0252
     23  CG1       38.0270   55.0750   12.8750 C.3    22  VAL22       0.0019
     24  CG2       39.7610   56.1230   14.3130 C.3    22  VAL22       0.0019
     25  N         33.6300   56.2270    9.6640 N.3    24  LEU24      -0.1245
     26  CA        33.0650   55.1640    8.8460 C.3    24  LEU24       0.1561
     27  C         32.8140   55.9490    7.5610 C.2    24  LEU24       0.2260
     28  O         32.4090   57.1200    7.6020 O.2    24  LEU24      -0.2867
     29  CB        31.7310   54.6730    9.4250 C.3    24  LEU24       0.0270
     30  CG        30.9000   53.6030    8.6880 C.3    24  LEU24       0.0019
     31  CD1       29.6840   53.2530    9.5370 C.3    24  LEU24       0.0001
     32  CD2       30.4280   54.0980    7.3350 C.3    24  LEU24       0.0001
     33  N         36.9980   52.4800    6.9720 N.3    34  ALA34      -0.1245
     34  CA        37.2570   53.1070    8.2570 C.3    34  ALA34       0.1562
     35  C         38.4120   54.0650    7.9760 C.2    34  ALA34       0.2260
     36  O         39.5110   53.6300    7.6550 O.2    34  ALA34      -0.2867
     37  CB        37.6660   52.0540    9.2680 C.3    34  ALA34       0.0290
     38  N         41.0870   56.9030    9.2230 N.3    36  LYS36      -0.1245
     39  CA        41.7320   57.5210   10.3720 C.3    36  LYS36       0.1561
     40  C         42.4550   58.7810    9.9180 C.2    36  LYS36       0.2260
     41  O         43.4050   58.7110    9.1300 O.2    36  LYS36      -0.2867
     42  CB        42.7460   56.5770   11.0300 C.3    36  LYS36       0.0271
     43  CG        43.4610   57.2160   12.2620 C.3    36  LYS36       0.0035
     44  CD        44.7740   56.4980   12.6420 C.3    36  LYS36       0.0206
     45  CE        44.4930   55.1580   13.2810 C.3    36  LYS36       0.1093
     46  NZ        45.6950   54.5240   13.9040 N.3    36  LYS36      -0.1314
     47  N         52.5680   54.1640   10.1130 N.3    51  GLU51      -0.1245
     48  CA        51.6470   53.0710   10.4110 C.3    51  GLU51       0.1567
     49  C         51.2830   52.3770    9.1010 C.2    51  GLU51       0.2260
     50  O         51.1240   51.1610    9.0550 O.2    51  GLU51      -0.2867
     51  CB        50.3680   53.5780   11.0820 C.3    51  GLU51       0.0388
     52  CG        49.5190   52.4380   11.6950 C.3    51  GLU51       0.1160
     53  CD        48.0940   52.8400   12.0400 C.2    51  GLU51       0.3649
     54  OE1       47.7790   54.0450   12.0180 O.co2  51  GLU51      -0.2457
     55  OE2       47.2860   51.9410   12.3470 O.co2  51  GLU51      -0.2457
     56  N         52.1750   48.7820    7.7210 N.3    55  MET55      -0.1245
     57  CA        51.0110   47.9670    7.4050 C.3    55  MET55       0.1570
     58  C         51.0720   47.4640    5.9730 C.2    55  MET55       0.2261
     59  O         50.5100   46.4230    5.6580 O.2    55  MET55      -0.2867
     60  CB        49.7280   48.7590    7.5830 C.3    55  MET55       0.0387
     61  CG        49.2080   48.7750    8.9810 C.3    55  MET55       0.0595
     62  SD        47.6140   49.5890    9.0490 S.3    55  MET55      -0.1393
     63  CE        46.5510   48.2970    8.3940 C.3    55  MET55       0.0692
     64  N         43.9440   43.5500   10.3100 N.3    64  VAL64      -0.1245
     65  CA        43.1170   44.4070    9.4830 C.3    64  VAL64       0.1561
     66  C         43.9060   44.8680    8.2620 C.2    64  VAL64       0.2260
     67  O         45.1130   45.1200    8.3410 O.2    64  VAL64      -0.2867
     68  CB        42.5680   45.6270   10.2750 C.3    64  VAL64       0.0252
     69  CG1       43.6060   46.7280   10.3490 C.3    64  VAL64       0.0019
     70  CG2       41.2830   46.1470    9.6010 C.3    64  VAL64       0.0019
     71  N         41.2670   52.1000    5.9840 N.3    80  PHE80      -0.1227
     72  CA        41.2630   50.6640    6.2560 C.3    80  PHE80       0.1736
     73  C         39.9730   50.0190    5.8250 C.2    80  PHE80       0.2595
     74  O         38.9910   50.7020    5.5630 O.2    80  PHE80      -0.2718
     75  CB        41.4220   50.3720    7.7560 C.3    80  PHE80       0.0547
     76  CG        42.5250   51.1360    8.3940 C.ar   80  PHE80      -0.0202
     77  CD1       42.2850   52.3750    8.9590 C.ar   80  PHE80      -0.0042
     78  CD2       43.8100   50.6140    8.4450 C.ar   80  PHE80      -0.0042
     79  CE1       43.3250   53.1180    9.5180 C.ar   80  PHE80      -0.0003
     80  CE2       44.8600   51.3540    9.0020 C.ar   80  PHE80      -0.0003
     81  CZ        44.6100   52.5940    9.5610 C.ar   80  PHE80      -0.0000
     82  N         39.9900   48.6940    5.7610 N.am   81  GLU81      -0.1965
     83  CA        38.8020   47.9440    5.4300 C.3    81  GLU81       0.1733
     84  C         37.8890   48.2120    6.6250 C.2    81  GLU81       0.2616
     85  O         38.3630   48.5870    7.7030 O.2    81  GLU81      -0.2715
     86  CB        39.1210   46.4490    5.3410 C.3    81  GLU81       0.0429
     87  CG        39.6150   45.8280    6.6680 C.3    81  GLU81       0.1163
     88  CD        39.8890   44.3470    6.5550 C.2    81  GLU81       0.3649
     89  OE1       40.8920   43.8850    7.1300 O.co2  81  GLU81      -0.2457
     90  OE2       39.1030   43.6450    5.8920 O.co2  81  GLU81      -0.2457
     91  N         36.5870   48.0290    6.4470 N.am   82  PHE82      -0.1960
     92  CA        35.6680   48.2660    7.5440 C.3    82  PHE82       0.1771
     93  C         35.2870   46.9500    8.1990 C.2    82  PHE82       0.2619
     94  O         34.9690   45.9760    7.5120 O.2    82  PHE82      -0.2715
     95  CB        34.4090   48.9750    7.0460 C.3    82  PHE82       0.0574
     96  CG        33.4600   49.3690    8.1340 C.ar   82  PHE82      -0.0200
     97  CD1       33.8270   50.3150    9.0840 C.ar   82  PHE82      -0.0042
     98  CD2       32.2320   48.7370    8.2610 C.ar   82  PHE82      -0.0042
     99  CE1       32.9640   50.6570   10.1200 C.ar   82  PHE82      -0.0003
    100  CE2       31.3640   49.0730    9.2920 C.ar   82  PHE82      -0.0003
    101  CZ        31.7370   50.0160   10.2350 C.ar   82  PHE82      -0.0000
    102  N         35.3370   46.9270    9.5270 N.am   83  MET83      -0.1963
    103  CA        34.9850   45.7540   10.3090 C.3    83  MET83       0.1736
    104  C         33.6330   46.0700   10.9310 C.2    83  MET83       0.2616
    105  O         33.5350   46.8740   11.8510 O.2    83  MET83      -0.2715
    106  CB        36.0550   45.5050   11.3670 C.3    83  MET83       0.0427
    107  CG        37.4360   45.1640   10.7500 C.3    83  MET83       0.0599
    108  SD        37.4150   43.5800    9.9040 S.3    83  MET83      -0.1393
    109  CE        37.5680   42.4920   11.2940 C.3    83  MET83       0.0692
    110  N         32.6010   45.4190   10.4070 N.am   84  GLU84      -0.1963
    111  CA        31.2160   45.6400   10.8040 C.3    84  GLU84       0.1733
    112  C         30.8320   45.7030   12.2800 C.2    84  GLU84       0.2616
    113  O         30.0680   46.5880   12.6860 O.2    84  GLU84      -0.2715
    114  CB        30.3190   44.6170   10.0960 C.3    84  GLU84       0.0429
    115  CG        28.8130   44.9240   10.2110 C.3    84  GLU84       0.1163
    116  CD        28.4670   46.3720    9.8280 C.2    84  GLU84       0.3649
    117  OE1       28.5920   46.7320    8.6270 O.co2  84  GLU84      -0.2457
    118  OE2       28.0740   47.1490   10.7390 O.co2  84  GLU84      -0.2457
    119  N         31.3570   44.7950   13.0930 N.am   85  HIS85      -0.1959
    120  CA        30.9700   44.7860   14.4970 C.3    85  HIS85       0.1787
    121  C         31.7920   45.5930   15.4890 C.2    85  HIS85       0.2621
    122  O         31.6490   45.4110   16.6920 O.2    85  HIS85      -0.2715
    123  CB        30.8320   43.3410   14.9770 C.3    85  HIS85       0.0785
    124  CG        29.8040   42.5650   14.2130 C.ar   85  HIS85       0.0821
    125  ND1       28.4860   42.9600   14.1320 N.ar   85  HIS85      -0.2267
    126  CD2       29.9120   41.4490   13.4520 C.ar   85  HIS85       0.1154
    127  CE1       27.8260   42.1230   13.3500 C.ar   85  HIS85       0.1986
    128  NE2       28.6680   41.1990   12.9260 N.ar   85  HIS85      -0.2212
    129  N         32.6410   46.4880   14.9970 N.am   86  GLY86      -0.1940
    130  CA        33.4310   47.3160   15.8920 C.3    86  GLY86       0.2014
    131  C         34.5020   46.6210   16.7040 C.2    86  GLY86       0.2639
    132  O         34.8670   45.4810   16.4170 O.2    86  GLY86      -0.2714
    133  N         34.9990   47.3100   17.7310 N.am   87  CYS87      -0.1967
    134  CA        36.0580   46.7620   18.5730 C.3    87  CYS87       0.1712
    135  C         35.6140   45.5950   19.4530 C.2    87  CYS87       0.2296
    136  O         34.4430   45.4810   19.8370 O.2    87  CYS87      -0.2864
    137  CB        36.7150   47.8760   19.4170 C.3    87  CYS87       0.0983
    138  SG        35.8230   48.4990   20.8700 S.3    87  CYS87      -0.0798
    139  N         39.3620   44.1600   16.2020 N.3   134  LEU134     -0.1245
    140  CA        38.0800   44.3730   15.5570 C.3   134  LEU134      0.1561
    141  C         37.3440   43.0690   15.3400 C.2   134  LEU134      0.2260
    142  O         37.9630   42.0040   15.2590 O.2   134  LEU134     -0.2867
    143  CB        38.2940   45.0900   14.2200 C.3   134  LEU134      0.0270
    144  CG        38.9690   46.4590   14.3640 C.3   134  LEU134      0.0019
    145  CD1       39.2870   47.0130   12.9910 C.3   134  LEU134      0.0001
    146  CD2       38.0560   47.4190   15.1510 C.3   134  LEU134      0.0001
    147  N         44.3460   45.2340   14.9110 N.3   144  SER144     -0.1202
    148  CA        44.5040   46.4790   14.1760 C.3   144  SER144      0.2020
    149  C         45.3710   47.4100   14.9950 C.2   144  SER144      0.2618
    150  O         46.0150   46.9850   15.9490 O.2   144  SER144     -0.2717
    151  CB        43.1470   47.1370   13.9180 C.3   144  SER144      0.2103
    152  OG        42.6280   47.6890   15.1090 O.3   144  SER144     -0.2182
    153  N         45.3890   48.6800   14.6050 N.am  145  ASP145     -0.1973
    154  CA        46.1570   49.7010   15.3100 C.3   145  ASP145      0.1709
    155  C         47.6570   49.4080   15.3150 C.2   145  ASP145      0.2293
    156  O         48.2260   49.0580   16.3540 O.2   145  ASP145     -0.2864
    157  CB        45.6550   49.8070   16.7490 C.3   145  ASP145      0.1436
    158  CG        45.8220   51.1870   17.3160 C.2   145  ASP145      0.3671
    159  OD1       46.9670   51.6980   17.3390 O.co2 145  ASP145     -0.2456
    160  OD2       44.7940   51.7600   17.7370 O.co2 145  ASP145     -0.2456
@<TRIPOS>BOND
     1    86    83    1
     2    86    87    1
     3    83    82    1
     4    83    84    1
     5    74    73    2
     6    59    58    2
     7    82    73   am
     8    73    72    1
     9    90    88   ar
    10    58    57    1
    11    71    72    1
    12    72    75    1
    13    91    84   am
    14    91    92    1
    15    88    87    1
    16    88    89   ar
    17    84    85    2
    18    33    34    1
    19    95    92    1
    20    95    96    1
    21    32    30    1
    22    57    60    1
    23    57    56    1
    24    94    93    2
    25    92    93    1
    26    27    28    2
    27    27    26    1
    28    60    61    1
    29    36    35    2
    30    75    76    1
    31    35    34    1
    32    96    98   ar
    33    96    97   ar
    34    93   102   am
    35    34    37    1
    36    98   100   ar
    37    66    67    2
    38    66    65    1
    39    76    78   ar
    40    76    77   ar
    41    63    62    1
    42    78    80   ar
    43   117   116   ar
    44    30    29    1
    45    30    31    1
    46    26    29    1
    47    26    25    1
    48    77    79   ar
    49    61    62    1
    50    80    81   ar
    51    50    49    2
    52    97    99   ar
    53    49    48    1
    54    41    40    2
    55    38    39    1
    56     1     2    1
    57   100   101   ar
    58    65    68    1
    59    65    64    1
    60    79    81   ar
    61   102   103    1
    62    70    68    1
    63   116   115    1
    64   116   118   ar
    65   108   107    1
    66   108   109    1
    67    40    39    1
    68   114   115    1
    69   114   111    1
    70    47    48    1
    71    99   101   ar
    72    68    69    1
    73   103   104    1
    74   103   106    1
    75    39    42    1
    76   110   111    1
    77   110   104   am
    78    48    51    1
    79     2     5    1
    80     2     3    1
    81   107   106    1
    82   111   112    1
    83   104   105    2
    84    42    43    1
    85    51    52    1
    86     5     6    1
    87     4     3    2
    88    52    53    1
    89    54    53   ar
    90    53    55   ar
    91     9     7   am
    92    43    44    1
    93   112   113    2
    94   112   119   am
    95    20    19    1
    96    20    21    2
    97    17    15    1
    98    44    45    1
    99     6     7    1
   100    23    22    1
   101   128   127   ar
   102   128   126   ar
   103    19    22    1
   104    19    18    1
   105   145   144    1
   106   119   120    1
   107     7     8    2
   108    45    46    1
   109    16    14    1
   110   127   125   ar
   111    15    14    1
   112   126   124   ar
   113    22    24    1
   114   151   148    1
   115   151   152    1
   116   125   124   ar
   117   148   147    1
   118   148   149    1
   119   124   123    1
   120   143   144    1
   121   143   140    1
   122    14    11    1
   123    10    11    1
   124   144   146    1
   125   120   123    1
   126   120   121    1
   127   153   149   am
   128   153   154    1
   129   149   150    2
   130   129   121   am
   131   129   130    1
   132    11    12    1
   133   142   141    2
   134   154   155    1
   135   154   157    1
   136   155   156    2
   137   141   140    1
   138   121   122    2
   139   140   139    1
   140   130   131    1
   141    12    13    2
   142   132   131    2
   143   131   133   am
   144   157   158    1
   145   158   159   ar
   146   158   160   ar
   147   133   134    1
   148   134   137    1
   149   134   135    1
   150   137   138    1
   151   135   136    2
