@<TRIPOS>MOLECULE
tmp/3qh0A00.pdb
 210 201 0 0 0
SMALL
GASTEIGER

@<TRIPOS>ATOM
      1  N         11.9870    5.1620   72.7740 N.3    61  LEU61      -0.1245
      2  CA        13.3050    4.9080   72.2180 C.3    61  LEU61       0.1561
      3  C         14.3450    4.5280   73.2800 C.2    61  LEU61       0.2260
      4  O         15.3850    3.9490   72.9600 O.2    61  LEU61      -0.2867
      5  CB        13.7880    6.1320   71.4340 C.3    61  LEU61       0.0270
      6  CG        13.2040    6.3040   70.0340 C.3    61  LEU61       0.0019
      7  CD1       13.3640    7.7590   69.6060 C.3    61  LEU61       0.0001
      8  CD2       13.8770    5.3500   69.0400 C.3    61  LEU61       0.0001
      9  N         13.2720    8.8840   60.7070 N.3    85  VAL85      -0.1245
     10  CA        14.0910    9.7950   61.5050 C.3    85  VAL85       0.1561
     11  C         14.6800   10.8840   60.5940 C.2    85  VAL85       0.2260
     12  O         14.4840   12.0830   60.8380 O.2    85  VAL85      -0.2867
     13  CB        15.1910    9.0470   62.3020 C.3    85  VAL85       0.0252
     14  CG1       16.2190   10.0310   62.8940 C.3    85  VAL85       0.0019
     15  CG2       14.5670    8.1730   63.4070 C.3    85  VAL85       0.0019
     16  N         12.8760   14.8760   60.6780 N.3    89  ARG89      -0.1245
     17  CA        13.7590   15.8980   61.2580 C.3    89  ARG89       0.1563
     18  C         14.1730   16.9630   60.2320 C.2    89  ARG89       0.2260
     19  O         14.1620   18.1550   60.5350 O.2    89  ARG89      -0.2867
     20  CB        15.0050   15.2830   61.8900 C.3    89  ARG89       0.0307
     21  CG        14.7530   14.2760   63.0010 C.3    89  ARG89       0.0489
     22  CD        14.0460   14.8840   64.1820 C.3    89  ARG89       0.2205
     23  NE        14.3910   14.1900   65.4210 N.pl3  89  ARG89      -0.0865
     24  CZ        14.0770   14.6310   66.6340 C.cat  89  ARG89       0.5346
     25  NH1       13.3980   15.7640   66.7750 N.pl3  89  ARG89       0.1354
     26  NH2       14.4390   13.9420   67.7030 N.pl3  89  ARG89       0.1354
     27  N         35.2810   18.3600   65.6340 N.3   174  PHE174     -0.1241
     28  CA        34.3210   18.1620   64.5350 C.3   174  PHE174      0.1605
     29  C         33.5300   19.4300   64.1690 C.2   174  PHE174      0.2264
     30  O         33.4440   19.7930   62.9940 O.2   174  PHE174     -0.2867
     31  CB        33.3440   17.0150   64.8710 C.3   174  PHE174      0.0534
     32  CG        32.2170   16.8620   63.8820 C.ar  174  PHE174     -0.0203
     33  CD1       32.4760   16.5010   62.5590 C.ar  174  PHE174     -0.0042
     34  CD2       30.8960   17.1040   64.2690 C.ar  174  PHE174     -0.0042
     35  CE1       31.4310   16.3680   61.6330 C.ar  174  PHE174     -0.0003
     36  CE2       29.8480   16.9610   63.3610 C.ar  174  PHE174     -0.0003
     37  CZ        30.1230   16.5990   62.0310 C.ar  174  PHE174     -0.0000
     38  N         32.7570   23.8550   60.9530 N.3   178  PHE178     -0.1241
     39  CA        31.6310   24.6010   60.3790 C.3   178  PHE178      0.1605
     40  C         31.0910   25.7570   61.2250 C.2   178  PHE178      0.2264
     41  O         30.3240   26.5790   60.7110 O.2   178  PHE178     -0.2867
     42  CB        30.5090   23.6880   59.8270 C.3   178  PHE178      0.0534
     43  CG        30.0560   22.6130   60.7800 C.ar  178  PHE178     -0.0203
     44  CD1       29.2860   22.9310   61.9120 C.ar  178  PHE178     -0.0042
     45  CD2       30.3580   21.2690   60.5170 C.ar  178  PHE178     -0.0042
     46  CE1       28.8440   21.9150   62.7880 C.ar  178  PHE178     -0.0003
     47  CE2       29.9300   20.2360   61.3910 C.ar  178  PHE178     -0.0003
     48  CZ        29.1750   20.5520   62.5170 C.ar  178  PHE178     -0.0000
     49  N         30.1990   10.0680   63.0380 N.3   313  VAL313     -0.1245
     50  CA        29.3170   11.0340   63.7060 C.3   313  VAL313      0.1561
     51  C         27.9070   10.4490   63.9470 C.2   313  VAL313      0.2260
     52  O         27.3640   10.5710   65.0560 O.2   313  VAL313     -0.2867
     53  CB        29.2820   12.3910   62.9590 C.3   313  VAL313      0.0252
     54  CG1       28.1650   13.3060   63.4890 C.3   313  VAL313      0.0019
     55  CG2       30.6650   13.0950   63.0870 C.3   313  VAL313      0.0019
     56  N         28.8870    8.9210   67.5680 N.3   317  TYR317     -0.1227
     57  CA        28.7090   10.1940   68.2810 C.3   317  TYR317      0.1736
     58  C         27.2440   10.5180   68.6000 C.2   317  TYR317      0.2595
     59  O         26.8850   10.7310   69.7640 O.2   317  TYR317     -0.2718
     60  CB        29.3240   11.3060   67.4370 C.3   317  TYR317      0.0548
     61  CG        29.2410   12.7010   67.9900 C.ar  317  TYR317     -0.0200
     62  CD1       30.1590   13.1480   68.9290 C.ar  317  TYR317     -0.0009
     63  CD2       28.2720   13.5860   67.5350 C.ar  317  TYR317     -0.0009
     64  CE1       30.1040   14.4390   69.4230 C.ar  317  TYR317      0.0417
     65  CE2       28.2000   14.8740   68.0100 C.ar  317  TYR317      0.0417
     66  CZ        29.1160   15.3000   68.9560 C.ar  317  TYR317      0.1957
     67  OH        29.0600   16.5860   69.4350 O.3   317  TYR317     -0.2866
     68  N         26.4090   10.5770   67.5630 N.am  318  VAL318     -0.1980
     69  CA        24.9870   10.8670   67.7350 C.3   318  VAL318      0.1595
     70  C         24.3180    9.6960   68.4700 C.2   318  VAL318      0.2287
     71  O         23.4640    9.9140   69.3340 O.2   318  VAL318     -0.2864
     72  CB        24.2680   11.2000   66.3800 C.3   318  VAL318      0.0276
     73  CG1       22.7610   11.3840   66.5930 C.3   318  VAL318      0.0022
     74  CG2       24.8310   12.5030   65.7520 C.3   318  VAL318      0.0022
     75  N         25.0750   10.2050   72.1880 N.3   321  LEU321     -0.1231
     76  CA        24.2580   11.3230   72.6480 C.3   321  LEU321      0.1693
     77  C         22.7910   10.9570   72.8440 C.2   321  LEU321      0.2592
     78  O         22.1840   11.3630   73.8360 O.2   321  LEU321     -0.2718
     79  CB        24.3320   12.4820   71.6440 C.3   321  LEU321      0.0284
     80  CG        25.5290   13.3950   71.8200 C.3   321  LEU321      0.0019
     81  CD1       25.4580   14.5520   70.8340 C.3   321  LEU321      0.0001
     82  CD2       25.6240   13.8880   73.2860 C.3   321  LEU321      0.0001
     83  N         22.2330   10.2150   71.8850 N.am  322  SER322     -0.1952
     84  CA        20.7970    9.9240   71.8380 C.3   322  SER322      0.1924
     85  C         20.3250    9.1130   73.0330 C.2   322  SER322      0.2314
     86  O         19.2320    9.3420   73.5590 O.2   322  SER322     -0.2863
     87  CB        20.4280    9.1770   70.5490 C.3   322  SER322      0.2116
     88  OG        20.8870    7.8270   70.5610 O.3   322  SER322     -0.2180
     89  N         19.5030    6.1340   72.6430 N.3   324  TYR324     -0.1241
     90  CA        18.5110    5.2160   72.0700 C.3   324  TYR324      0.1605
     91  C         19.0120    3.7840   72.0920 C.2   324  TYR324      0.2264
     92  O         20.2130    3.5380   71.9450 O.2   324  TYR324     -0.2867
     93  CB        18.1500    5.5840   70.6250 C.3   324  TYR324      0.0534
     94  CG        17.5810    6.9720   70.4140 C.ar  324  TYR324     -0.0201
     95  CD1       17.0200    7.6930   71.4660 C.ar  324  TYR324     -0.0009
     96  CD2       17.5820    7.5540   69.1420 C.ar  324  TYR324     -0.0009
     97  CE1       16.5010    8.9580   71.2720 C.ar  324  TYR324      0.0417
     98  CE2       17.0490    8.8280   68.9340 C.ar  324  TYR324      0.0417
     99  CZ        16.5160    9.5190   70.0060 C.ar  324  TYR324      0.1957
    100  OH        15.9980   10.7760   69.8250 O.3   324  TYR324     -0.2866
    101  N         21.0490    3.6920   65.2070 N.3   328  LEU328     -0.1245
    102  CA        21.1390    4.6450   64.0850 C.3   328  LEU328      0.1561
    103  C         22.0050    4.1170   62.9390 C.2   328  LEU328      0.2260
    104  O         22.8810    3.2720   63.1500 O.2   328  LEU328     -0.2867
    105  CB        21.6730    6.0010   64.5710 C.3   328  LEU328      0.0270
    106  CG        20.8090    6.7330   65.6180 C.3   328  LEU328      0.0019
    107  CD1       21.5380    7.9730   66.1550 C.3   328  LEU328      0.0001
    108  CD2       19.4170    7.1040   65.0690 C.3   328  LEU328      0.0001
    109  N         22.1590   27.0540   65.4130 N.3   350  PHE350     -0.1241
    110  CA        22.8020   25.7590   65.5370 C.3   350  PHE350      0.1605
    111  C         24.1670   25.9400   66.2040 C.2   350  PHE350      0.2264
    112  O         24.5540   25.1460   67.0720 O.2   350  PHE350     -0.2867
    113  CB        22.9520   25.1380   64.1490 C.3   350  PHE350      0.0534
    114  CG        23.5390   23.7550   64.1470 C.ar  350  PHE350     -0.0203
    115  CD1       23.2460   22.8470   65.1560 C.ar  350  PHE350     -0.0042
    116  CD2       24.3150   23.3350   63.0710 C.ar  350  PHE350     -0.0042
    117  CE1       23.7620   21.5450   65.1200 C.ar  350  PHE350     -0.0003
    118  CE2       24.8440   22.0220   63.0200 C.ar  350  PHE350     -0.0003
    119  CZ        24.5660   21.1360   64.0430 C.ar  350  PHE350     -0.0000
    120  N         23.3230   26.8200   69.9910 N.3   353  LEU353     -0.1231
    121  CA        22.9240   25.6750   70.8150 C.3   353  LEU353      0.1693
    122  C         24.1040   24.7400   71.1140 C.2   353  LEU353      0.2592
    123  O         24.0770   23.9990   72.0980 O.2   353  LEU353     -0.2718
    124  CB        21.7170   24.9130   70.2040 C.3   353  LEU353      0.0284
    125  CG        21.8830   24.0250   68.9720 C.3   353  LEU353      0.0019
    126  CD1       22.4620   22.6350   69.3660 C.3   353  LEU353      0.0001
    127  CD2       20.5340   23.8510   68.2660 C.3   353  LEU353      0.0001
    128  N         25.1300   24.7990   70.2610 N.am  354  TYR354     -0.1976
    129  CA        26.3120   23.9490   70.3850 C.3   354  TYR354      0.1639
    130  C         27.4220   24.5330   71.2840 C.2   354  TYR354      0.2290
    131  O         28.5410   24.0090   71.3160 O.2   354  TYR354     -0.2864
    132  CB        26.8910   23.6570   69.0000 C.3   354  TYR354      0.0560
    133  CG        26.9970   22.1950   68.7240 C.ar  354  TYR354     -0.0198
    134  CD1       26.2370   21.6000   67.7150 C.ar  354  TYR354     -0.0009
    135  CD2       27.8430   21.3890   69.4840 C.ar  354  TYR354     -0.0009
    136  CE1       26.3380   20.2420   67.4560 C.ar  354  TYR354      0.0417
    137  CE2       27.9460   20.0340   69.2360 C.ar  354  TYR354      0.0417
    138  CZ        27.1890   19.4670   68.2430 C.ar  354  TYR354      0.1957
    139  OH        27.3220   18.1170   68.0210 O.3   354  TYR354     -0.2866
    140  N         28.5080   24.0930   74.2320 N.3   356  TRP356     -0.1241
    141  CA        28.4210   23.1120   75.3160 C.3   356  TRP356      0.1605
    142  C         29.5810   23.2420   76.2880 C.2   356  TRP356      0.2264
    143  O         30.2700   22.2610   76.5890 O.2   356  TRP356     -0.2867
    144  CB        28.3950   21.6880   74.7620 C.3   356  TRP356      0.0550
    145  CG        27.2250   21.3810   73.8920 C.ar  356  TRP356      0.0003
    146  CD1       26.0920   22.1410   73.7200 C.ar  356  TRP356      0.0946
    147  CD2       27.0370   20.1970   73.1170 C.ar  356  TRP356      0.0152
    148  NE1       25.2260   21.5080   72.8610 N.ar  356  TRP356     -0.2442
    149  CE2       25.7820   20.3150   72.4700 C.ar  356  TRP356      0.0810
    150  CE3       27.8200   19.0520   72.8810 C.ar  356  TRP356      0.0012
    151  CZ2       25.2930   19.3320   71.5880 C.ar  356  TRP356      0.0191
    152  CZ3       27.3250   18.0650   72.0120 C.ar  356  TRP356      0.0001
    153  CH2       26.0680   18.2130   71.3860 C.ar  356  TRP356      0.0015
    154  N         21.1370   16.2290   78.0990 N.3   487  PHE487     -0.1241
    155  CA        20.3660   17.3350   77.4960 C.3   487  PHE487      0.1605
    156  C         18.9000   17.3210   77.8790 C.2   487  PHE487      0.2264
    157  O         18.3460   16.2770   78.2050 O.2   487  PHE487     -0.2867
    158  CB        20.3730   17.2330   75.9520 C.3   487  PHE487      0.0534
    159  CG        21.7230   17.3460   75.3360 C.ar  487  PHE487     -0.0203
    160  CD1       22.6630   18.2320   75.8450 C.ar  487  PHE487     -0.0042
    161  CD2       22.0400   16.6010   74.2000 C.ar  487  PHE487     -0.0042
    162  CE1       23.9290   18.3280   75.2730 C.ar  487  PHE487     -0.0003
    163  CE2       23.2810   16.7100   73.6190 C.ar  487  PHE487     -0.0003
    164  CZ        24.2350   17.5770   74.1640 C.ar  487  PHE487     -0.0000
    165  N         17.2170   21.1580   73.5060 N.3   491  MET491     -0.1230
    166  CA        18.4880   20.8700   72.8520 C.3   491  MET491      0.1702
    167  C         18.3200   19.8560   71.7220 C.2   491  MET491      0.2592
    168  O         18.8210   20.0550   70.6130 O.2   491  MET491     -0.2718
    169  CB        19.5180   20.3480   73.8570 C.3   491  MET491      0.0401
    170  CG        20.9060   20.2010   73.2440 C.3   491  MET491      0.0596
    171  SD        21.6390   21.8200   72.8700 S.3   491  MET491     -0.1393
    172  CE        22.1490   22.3020   74.5290 C.3   491  MET491      0.0692
    173  N         17.6070   18.7710   72.0190 N.am  492  VAL492     -0.1980
    174  CA        17.4430   17.6600   71.0880 C.3   492  VAL492      0.1595
    175  C         16.5390   18.0130   69.9070 C.2   492  VAL492      0.2287
    176  O         16.8780   17.7370   68.7530 O.2   492  VAL492     -0.2864
    177  CB        16.9080   16.4050   71.8190 C.3   492  VAL492      0.0276
    178  CG1       16.5450   15.3130   70.8370 C.3   492  VAL492      0.0022
    179  CG2       17.9500   15.8880   72.8270 C.3   492  VAL492      0.0022
    180  N         18.4520   20.6620   67.8370 N.3   495  GLY495     -0.1210
    181  CA        19.7600   20.1960   67.3890 C.3   495  GLY495      0.1956
    182  C         19.7190   19.0650   66.3760 C.2   495  GLY495      0.2611
    183  O         20.5320   19.0290   65.4400 O.2   495  GLY495     -0.2717
    184  N         18.8030   18.1220   66.5740 N.am  496  ALA496     -0.1979
    185  CA        18.7500   16.9540   65.7050 C.3   496  ALA496      0.1597
    186  C         18.3770   17.3040   64.2450 C.2   496  ALA496      0.2287
    187  O         19.0110   16.8000   63.3260 O.2   496  ALA496     -0.2864
    188  CB        17.8550   15.8610   66.2960 C.3   496  ALA496      0.0319
    189  N         21.5240   18.9540   62.6970 N.3   499  SER499     -0.1202
    190  CA        22.6030   17.9740   62.6050 C.3   499  SER499      0.2020
    191  C         22.4210   16.9970   61.4530 C.2   499  SER499      0.2618
    192  O         23.3250   16.8450   60.6150 O.2   499  SER499     -0.2717
    193  CB        22.7530   17.2180   63.9190 C.3   499  SER499      0.2103
    194  OG        23.2440   18.0880   64.9210 O.3   499  SER499     -0.2182
    195  N         21.2600   16.3500   61.4040 N.am  500  LEU500     -0.1979
    196  CA        21.0060   15.3260   60.4010 C.3   500  LEU500      0.1596
    197  C         20.9400   15.9080   59.0080 C.2   500  LEU500      0.2287
    198  O         21.4500   15.3210   58.0480 O.2   500  LEU500     -0.2864
    199  CB        19.7360   14.5450   60.7410 C.3   500  LEU500      0.0297
    200  CG        19.7280   13.8350   62.1000 C.3   500  LEU500      0.0022
    201  CD1       18.3330   13.2300   62.3410 C.3   500  LEU500      0.0001
    202  CD2       20.8060   12.7400   62.2070 C.3   500  LEU500      0.0001
    203  N         24.4700   16.4960   57.9260 N.3   503  LEU503     -0.1245
    204  CA        25.1950   15.2420   57.6930 C.3   503  LEU503      0.1561
    205  C         24.7630   14.6080   56.3730 C.2   503  LEU503      0.2260
    206  O         25.6000   14.2640   55.5400 O.2   503  LEU503     -0.2867
    207  CB        25.0120   14.2620   58.8780 C.3   503  LEU503      0.0270
    208  CG        25.7130   14.7190   60.1600 C.3   503  LEU503      0.0019
    209  CD1       25.1980   13.9630   61.3840 C.3   503  LEU503      0.0001
    210  CD2       27.2410   14.5660   60.0210 C.3   503  LEU503      0.0001
@<TRIPOS>BOND
     1   206   205    2
     2   205   204    1
     3   204   203    1
     4   204   207    1
     5   198   197    2
     6   207   208    1
     7   197   196    1
     8    42    39    1
     9    42    43    1
    10   210   208    1
    11   208   209    1
    12    18    19    2
    13    18    17    1
    14    39    38    1
    15    39    40    1
    16   196   199    1
    17   196   195    1
    18    45    43   ar
    19    45    47   ar
    20    11    12    2
    21    11    10    1
    22   192   191    2
    23    16    17    1
    24     9    10    1
    25    41    40    2
    26   199   200    1
    27    43    44   ar
    28    17    20    1
    29    47    48   ar
    30   195   191   am
    31   191   190    1
    32    10    13    1
    33    35    37   ar
    34    35    33   ar
    35    20    21    1
    36    44    46   ar
    37    37    36   ar
    38   200   202    1
    39   200   201    1
    40    13    14    1
    41    13    15    1
    42    48    46   ar
    43    33    32   ar
    44   190   189    1
    45   190   193    1
    46   103   104    2
    47   103   102    1
    48    53    55    1
    49    53    54    1
    50    53    50    1
    51    30    29    2
    52    21    22    1
    53   118   116   ar
    54   118   119   ar
    55    49    50    1
    56   116   114   ar
    57   187   186    2
    58    36    34   ar
    59    50    51    1
    60    32    34   ar
    61    32    31    1
    62   193   194    1
    63    51    52    2
    64   119   117   ar
    65   102   105    1
    66   102   101    1
    67   114   113    1
    68   114   115   ar
    69   113   110    1
    70    29    28    1
    71    22    23    1
    72   186   185    1
    73    28    31    1
    74    28    27    1
    75   105   106    1
    76   108   106    1
    77   117   115   ar
    78   109   110    1
    79    23    24    2
    80   183   182    2
    81   110   111    1
    82   106   107    1
    83   185   188    1
    84   185   184    1
    85    74    72    1
    86   111   112    2
    87   182   184   am
    88   182   181    1
    89    72    73    1
    90    72    69    1
    91    24    25    1
    92    24    26    1
    93   181   180    1
    94    60    61    1
    95    60    57    1
    96   136   134   ar
    97   136   138   ar
    98    63    61   ar
    99    63    65   ar
   100    68    69    1
   101    68    58   am
   102    56    57    1
   103   134   133   ar
   104    69    70    1
   105    61    62   ar
   106    65    66   ar
   107   139   138    1
   108   138   137   ar
   109   127   125    1
   110    57    58    1
   111    70    71    2
   112    58    59    2
   113   133   132    1
   114   133   135   ar
   115   176   175    2
   116    62    64   ar
   117    98    96   ar
   118    98    99   ar
   119    66    64   ar
   120    66    67    1
   121   125   126    1
   122   125   124    1
   123   132   129    1
   124     8     6    1
   125    96    94   ar
   126   137   135   ar
   127     7     6    1
   128   100    99    1
   129   175   174    1
   130   120   121    1
   131    99    97   ar
   132     6     5    1
   133   124   121    1
   134   128   129    1
   135   128   122   am
   136   129   130    1
   137    94    93    1
   138    94    95   ar
   139    87    88    1
   140    87    84    1
   141   168   167    2
   142    93    90    1
   143   121   122    1
   144    81    80    1
   145   178   177    1
   146   174   177    1
   147   174   173    1
   148   122   123    2
   149    97    95   ar
   150   130   131    2
   151   153   151   ar
   152   153   152   ar
   153     5     2    1
   154   151   149   ar
   155    79    80    1
   156    79    76    1
   157   167   173   am
   158   167   166    1
   159   177   179    1
   160    80    82    1
   161    84    83    1
   162    84    85    1
   163    83    77   am
   164    92    91    2
   165   152   150   ar
   166    90    91    1
   167    90    89    1
   168    75    76    1
   169     2     1    1
   170     2     3    1
   171   149   148   ar
   172   149   147   ar
   173    76    77    1
   174    77    78    2
   175   166   165    1
   176   166   169    1
   177   148   146   ar
   178   171   170    1
   179   171   172    1
   180   150   147   ar
   181     4     3    2
   182    85    86    2
   183   147   145   ar
   184   170   169    1
   185   163   164   ar
   186   163   161   ar
   187   146   145   ar
   188   145   144    1
   189   164   162   ar
   190   161   159   ar
   191   140   141    1
   192   144   141    1
   193   162   160   ar
   194   141   142    1
   195   159   160   ar
   196   159   158    1
   197   158   155    1
   198   142   143    2
   199   155   156    1
   200   155   154    1
   201   156   157    2
