@<TRIPOS>MOLECULE
tmp/3qh1A00.pdb
 149 144 0 0 0
SMALL
GASTEIGER

@<TRIPOS>ATOM
      1  N        -13.9550  -46.6620    1.4490 N.3   111  ASN111     -0.1225
      2  CA       -12.7840  -45.8510    1.7580 C.3   111  ASN111      0.1785
      3  C        -12.5230  -44.8680    0.6230 C.2   111  ASN111      0.2597
      4  O        -11.4480  -44.8890    0.0110 O.2   111  ASN111     -0.2718
      5  CB       -11.5620  -46.7620    1.9220 C.3   111  ASN111      0.1169
      6  CG       -11.5130  -47.4780    3.2380 C.2   111  ASN111      0.2627
      7  OD1      -11.8120  -46.9110    4.2700 O.2   111  ASN111     -0.2716
      8  ND2      -11.0730  -48.7360    3.2020 N.am  111  ASN111     -0.0877
      9  N        -13.5400  -44.1370    0.2360 N.am  112  ASN112     -0.1960
     10  CA       -13.4570  -43.2600   -0.8940 C.3   112  ASN112      0.1819
     11  C        -14.5330  -42.1620   -0.8460 C.2   112  ASN112      0.2621
     12  O        -15.5330  -42.2920   -0.0930 O.2   112  ASN112     -0.2715
     13  CB       -13.6530  -44.1300   -2.1090 C.3   112  ASN112      0.1195
     14  CG       -13.2640  -43.4640   -3.3530 C.2   112  ASN112      0.2630
     15  OD1      -12.2390  -42.7670   -3.4250 O.2   112  ASN112     -0.2716
     16  ND2      -14.0750  -43.6870   -4.3910 N.am  112  ASN112     -0.0877
     17  N        -14.3120  -41.0960   -1.5960 N.am  113  ALA113     -0.1963
     18  CA       -15.2550  -40.0190   -1.8410 C.3   113  ALA113      0.1728
     19  C        -15.1090  -39.7120   -3.3220 C.2   113  ALA113      0.2616
     20  O        -14.0520  -39.9710   -3.8790 O.2   113  ALA113     -0.2715
     21  CB       -14.9910  -38.7740   -0.9600 C.3   113  ALA113      0.0334
     22  N        -16.1380  -39.1220   -3.9110 N.am  114  PHE114     -0.1974
     23  CA       -16.0820  -38.8060   -5.3410 C.3   114  PHE114      0.1639
     24  C        -17.1160  -37.7730   -5.7390 C.2   114  PHE114      0.2290
     25  O        -18.0920  -37.5270   -5.0140 O.2   114  PHE114     -0.2864
     26  CB       -16.1740  -40.0570   -6.2030 C.3   114  PHE114      0.0560
     27  CG       -17.3940  -40.8710   -6.0170 C.ar  114  PHE114     -0.0200
     28  CD1      -17.4200  -41.8850   -5.0320 C.ar  114  PHE114     -0.0042
     29  CD2      -18.4910  -40.7370   -6.8490 C.ar  114  PHE114     -0.0042
     30  CE1      -18.5130  -42.7140   -4.9020 C.ar  114  PHE114     -0.0003
     31  CE2      -19.5800  -41.5260   -6.6890 C.ar  114  PHE114     -0.0003
     32  CZ       -19.5900  -42.5230   -5.7260 C.ar  114  PHE114     -0.0000
     33  N         -9.7310  -45.2450    6.6980 N.3   130  PHE130     -0.1241
     34  CA       -10.4280  -43.9620    6.8040 C.3   130  PHE130      0.1605
     35  C        -11.5430  -44.0250    7.8190 C.2   130  PHE130      0.2264
     36  O        -12.1560  -45.0830    7.9920 O.2   130  PHE130     -0.2867
     37  CB       -11.1080  -43.5720    5.4890 C.3   130  PHE130      0.0534
     38  CG       -10.1560  -43.0820    4.4320 C.ar  130  PHE130     -0.0203
     39  CD1       -9.6490  -41.8130    4.4800 C.ar  130  PHE130     -0.0042
     40  CD2       -9.8630  -43.8660    3.3140 C.ar  130  PHE130     -0.0042
     41  CE1       -8.8270  -41.3400    3.4970 C.ar  130  PHE130     -0.0003
     42  CE2       -9.0220  -43.3680    2.3300 C.ar  130  PHE130     -0.0003
     43  CZ        -8.5050  -42.1090    2.4500 C.ar  130  PHE130     -0.0000
     44  N        -15.4580  -39.7460    5.3020 N.3   133  LEU133     -0.1245
     45  CA       -14.5370  -38.9270    4.5170 C.3   133  LEU133      0.1561
     46  C        -14.8910  -37.4320    4.4830 C.2   133  LEU133      0.2260
     47  O        -14.0130  -36.5900    4.2690 O.2   133  LEU133     -0.2867
     48  CB       -14.4000  -39.4520    3.0770 C.3   133  LEU133      0.0270
     49  CG       -13.4460  -40.6410    3.0420 C.3   133  LEU133      0.0019
     50  CD1      -13.9780  -42.0200    3.3590 C.3   133  LEU133      0.0001
     51  CD2      -12.4360  -40.5290    2.0760 C.3   133  LEU133      0.0001
     52  N        -10.8710  -32.8200    1.7460 N.3   139  VAL139     -0.1245
     53  CA       -11.5540  -33.8260    0.9650 C.3   139  VAL139      0.1561
     54  C        -12.8160  -33.2490    0.3040 C.2   139  VAL139      0.2260
     55  O        -13.0560  -33.4180   -0.8820 O.2   139  VAL139     -0.2867
     56  CB       -11.9580  -35.0370    1.8460 C.3   139  VAL139      0.0252
     57  CG1      -12.7730  -36.0470    1.0300 C.3   139  VAL139      0.0019
     58  CG2      -10.7400  -35.6970    2.4810 C.3   139  VAL139      0.0019
     59  N        -11.8040  -30.7630   -2.3140 N.3   142  HIS142     -0.1226
     60  CA       -11.2220  -31.5350   -3.4200 C.3   142  HIS142      0.1752
     61  C        -12.3580  -32.0000   -4.3350 C.2   142  HIS142      0.2595
     62  O        -12.3130  -31.8120   -5.5610 O.2   142  HIS142     -0.2718
     63  CB       -10.4120  -32.7180   -2.8950 C.3   142  HIS142      0.0759
     64  CG        -9.8340  -33.6270   -3.9570 C.ar  142  HIS142      0.0818
     65  ND1       -8.4880  -33.7510   -4.1500 N.ar  142  HIS142     -0.2268
     66  CD2      -10.4140  -34.5090   -4.8210 C.ar  142  HIS142      0.1154
     67  CE1       -8.2480  -34.6350   -5.1250 C.ar  142  HIS142      0.1986
     68  NE2       -9.4030  -35.1300   -5.5430 N.ar  142  HIS142     -0.2212
     69  N        -13.3880  -32.5980   -3.7560 N.am  143  GLU143     -0.1979
     70  CA       -14.4940  -33.0920   -4.5430 C.3   143  GLU143      0.1602
     71  C        -15.2820  -31.9760   -5.2190 C.2   143  GLU143      0.2287
     72  O        -15.6280  -32.1250   -6.4090 O.2   143  GLU143     -0.2864
     73  CB       -15.4110  -33.9680   -3.7390 C.3   143  GLU143      0.0415
     74  CG       -14.7250  -35.2230   -3.1060 C.3   143  GLU143      0.1163
     75  CD       -13.9790  -36.1160   -4.0760 C.2   143  GLU143      0.3649
     76  OE1      -14.2310  -36.0400   -5.2920 O.co2 143  GLU143     -0.2457
     77  OE2      -13.1230  -36.9340   -3.5820 O.co2 143  GLU143     -0.2457
     78  N        -13.5920  -30.7910   -8.2790 N.3   146  HIS146     -0.1241
     79  CA       -13.8170  -31.5840   -9.5070 C.3   146  HIS146      0.1621
     80  C        -14.9500  -31.0220  -10.3150 C.2   146  HIS146      0.2264
     81  O        -14.8900  -31.0270  -11.5520 O.2   146  HIS146     -0.2867
     82  CB       -14.0370  -33.0720   -9.2100 C.3   146  HIS146      0.0745
     83  CG       -12.7640  -33.8420   -8.9370 C.ar  146  HIS146      0.0817
     84  ND1      -11.7010  -33.8180   -9.8200 N.ar  146  HIS146     -0.2268
     85  CD2      -12.3800  -34.6580   -7.9160 C.ar  146  HIS146      0.1154
     86  CE1      -10.7280  -34.6030   -9.3680 C.ar  146  HIS146      0.1986
     87  NE2      -11.1140  -35.1340   -8.2160 N.ar  146  HIS146     -0.2212
     88  N         -9.8920  -37.0170  -17.6200 N.3   157  TYR157     -0.1241
     89  CA        -9.3780  -37.7260  -16.4430 C.3   157  TYR157      0.1605
     90  C         -8.4740  -38.9010  -16.7660 C.2   157  TYR157      0.2264
     91  O         -8.7340  -40.0370  -16.4060 O.2   157  TYR157     -0.2867
     92  CB       -10.5230  -38.1030  -15.5080 C.3   157  TYR157      0.0534
     93  CG       -10.1760  -38.2590  -14.0970 C.ar  157  TYR157     -0.0201
     94  CD1       -9.8360  -37.1600  -13.3140 C.ar  157  TYR157     -0.0009
     95  CD2      -10.1950  -39.5010  -13.5090 C.ar  157  TYR157     -0.0009
     96  CE1       -9.5260  -37.3160  -12.0010 C.ar  157  TYR157      0.0417
     97  CE2       -9.9230  -39.6430  -12.1590 C.ar  157  TYR157      0.0417
     98  CZ        -9.5990  -38.5510  -11.4200 C.ar  157  TYR157      0.1957
     99  OH        -9.3030  -38.6940  -10.0550 O.3   157  TYR157     -0.2866
    100  N         -6.4410  -33.6650  -10.9620 N.3   166  GLU166     -0.1245
    101  CA        -6.2270  -34.0650   -9.5860 C.3   166  GLU166      0.1567
    102  C         -5.5040  -32.9840   -8.7660 C.2   166  GLU166      0.2260
    103  O         -5.9080  -32.6530   -7.6710 O.2   166  GLU166     -0.2867
    104  CB        -5.4490  -35.3740   -9.5310 C.3   166  GLU166      0.0388
    105  CG        -6.3500  -36.5430   -9.5080 C.3   166  GLU166      0.1160
    106  CD        -7.3210  -36.5150   -8.3360 C.2   166  GLU166      0.3649
    107  OE1       -6.8220  -36.4060   -7.1810 O.co2 166  GLU166     -0.2457
    108  OE2       -8.5140  -36.5760   -8.5900 O.co2 166  GLU166     -0.2457
    109  N         -2.7670  -33.8740    2.3830 N.3   188  ILE188     -0.1231
    110  CA        -4.1120  -34.1940    1.8720 C.3   188  ILE188      0.1692
    111  C         -4.7290  -35.3500    2.5940 C.2   188  ILE188      0.2592
    112  O         -4.1970  -36.4700    2.5760 O.2   188  ILE188     -0.2718
    113  CB        -4.0990  -34.4960    0.3710 C.3   188  ILE188      0.0266
    114  CG1       -3.3860  -33.3910   -0.4290 C.3   188  ILE188      0.0019
    115  CG2       -5.5480  -34.8080   -0.2100 C.3   188  ILE188      0.0020
    116  CD1       -4.0740  -31.9940   -0.4340 C.3   188  ILE188      0.0001
    117  N         -5.8560  -35.0520    3.2710 N.am  189  GLY189     -0.1957
    118  CA        -6.6470  -36.0750    3.9270 C.3   189  GLY189      0.1869
    119  C         -6.3040  -36.4920    5.3230 C.2   189  GLY189      0.2309
    120  O         -6.9100  -37.4340    5.8400 O.2   189  GLY189     -0.2863
    121  N         -2.7990  -39.0520    3.0720 N.3   202  LEU202     -0.1231
    122  CA        -2.8680  -39.8260    1.8540 C.3   202  LEU202      0.1693
    123  C         -1.8670  -39.3500    0.8000 C.2   202  LEU202      0.2591
    124  O         -1.2370  -40.2000    0.1460 O.2   202  LEU202     -0.2718
    125  CB        -4.2690  -39.7590    1.2910 C.3   202  LEU202      0.0284
    126  CG        -4.5830  -40.5860    0.0910 C.3   202  LEU202      0.0019
    127  CD1       -4.4730  -42.1040    0.4160 C.3   202  LEU202      0.0001
    128  CD2       -6.0090  -40.2420   -0.5070 C.3   202  LEU202      0.0001
    129  N         -1.7500  -38.0230    0.6650 N.am  203  ARG203     -0.1980
    130  CA        -0.7310  -37.4060   -0.2000 C.3   203  ARG203      0.1597
    131  C         -0.1510  -36.2190    0.5360 C.2   203  ARG203      0.2287
    132  O         -0.7650  -35.7230    1.5140 O.2   203  ARG203     -0.2864
    133  CB        -1.3400  -36.9010   -1.5060 C.3   203  ARG203      0.0334
    134  CG        -1.8240  -37.9200   -2.4310 C.3   203  ARG203      0.0492
    135  CD        -2.3770  -37.2860   -3.7120 C.3   203  ARG203      0.2205
    136  NE        -3.6570  -36.6310   -3.5190 N.pl3 203  ARG203     -0.0865
    137  CZ        -4.8310  -37.2550   -3.5100 C.cat 203  ARG203      0.5346
    138  NH1       -4.9120  -38.5960   -3.5590 N.pl3 203  ARG203      0.1354
    139  NH2       -5.9540  -36.5350   -3.4480 N.pl3 203  ARG203      0.1354
    140  N         -3.5720  -39.8170   -9.7110 N.3   231  HIS231     -0.1241
    141  CA        -3.3080  -39.5280   -8.3140 C.3   231  HIS231      0.1621
    142  C         -1.8600  -39.6380   -7.9020 C.2   231  HIS231      0.2264
    143  O         -1.5370  -39.4540   -6.7280 O.2   231  HIS231     -0.2867
    144  CB        -4.1300  -40.4500   -7.4030 C.3   231  HIS231      0.0745
    145  CG        -5.6000  -40.3430   -7.5760 C.ar  231  HIS231      0.0817
    146  ND1       -6.3310  -41.1550   -8.4380 N.ar  231  HIS231     -0.2268
    147  CD2       -6.4840  -39.4800   -7.0210 C.ar  231  HIS231      0.1154
    148  CE1       -7.6100  -40.7670   -8.4000 C.ar  231  HIS231      0.1986
    149  NE2       -7.7170  -39.7570   -7.5440 N.ar  231  HIS231     -0.2212
@<TRIPOS>BOND
     1    88    89    1
     2    90    89    1
     3    90    91    2
     4    89    92    1
     5    92    93    1
     6    93    95   ar
     7    93    94   ar
     8    95    97   ar
     9    94    96   ar
    10    97    98   ar
    11    96    98   ar
    12    81    80    2
    13    98    99    1
    14   100   101    1
    15    80    79    1
    16    84    86   ar
    17    84    83   ar
    18   140   141    1
    19   101   104    1
    20   101   102    1
    21   104   105    1
    22   105   106    1
    23    79    82    1
    24    79    78    1
    25    86    87   ar
    26    82    83    1
    27    83    85   ar
    28   102   103    2
    29   108   106   ar
    30   146   148   ar
    31   146   145   ar
    32   148   149   ar
    33   106   107   ar
    34   141   142    1
    35   141   144    1
    36    87    85   ar
    37   142   143    2
    38   145   144    1
    39   145   147   ar
    40   149   147   ar
    41    29    31   ar
    42    29    27   ar
    43    31    32   ar
    44    72    71    2
    45    26    27    1
    46    26    23    1
    47    27    28   ar
    48    24    23    1
    49    24    25    2
    50    32    30   ar
    51    62    61    2
    52    68    67   ar
    53    68    66   ar
    54    23    22    1
    55    76    75   ar
    56    71    70    1
    57    67    65   ar
    58    28    30   ar
    59    66    64   ar
    60    70    69    1
    61    70    73    1
    62    16    14   am
    63    61    69   am
    64    61    60    1
    65    65    64   ar
    66    75    77   ar
    67    75    74    1
    68    64    63    1
    69    22    19   am
    70    20    19    2
    71    73    74    1
    72   135   136    1
    73   135   134    1
    74   138   137    1
    75   136   137    2
    76   137   139    1
    77    15    14    2
    78    60    63    1
    79    60    59    1
    80    14    13    1
    81    19    18    1
    82   134   133    1
    83    13    10    1
    84    18    17    1
    85    18    21    1
    86    17    11   am
    87   133   130    1
    88    10    11    1
    89    10     9    1
    90    55    54    2
    91    11    12    2
    92   128   126    1
    93   116   114    1
    94   114   113    1
    95   115   113    1
    96   130   131    1
    97   130   129    1
    98     4     3    2
    99   126   127    1
   100   126   125    1
   101   124   123    2
   102     9     3   am
   103    54    53    1
   104   113   110    1
   105   131   132    2
   106     3     2    1
   107   129   123   am
   108   123   122    1
   109    53    52    1
   110    53    56    1
   111    57    56    1
   112   125   122    1
   113     1     2    1
   114     2     5    1
   115    56    58    1
   116   122   121    1
   117   110   109    1
   118   110   111    1
   119     5     6    1
   120    51    49    1
   121    42    43   ar
   122    42    40   ar
   123    43    41   ar
   124   112   111    2
   125   111   117   am
   126    49    48    1
   127    49    50    1
   128    48    45    1
   129     8     6   am
   130     6     7    2
   131   117   118    1
   132    40    38   ar
   133    41    39   ar
   134   118   119    1
   135    47    46    2
   136    38    39   ar
   137    38    37    1
   138    46    45    1
   139    45    44    1
   140   119   120    2
   141    37    34    1
   142    33    34    1
   143    34    35    1
   144    35    36    2
