@<TRIPOS>MOLECULE
tmp/3qh2D00.pdb
 129 123 0 0 0
SMALL
GASTEIGER

@<TRIPOS>ATOM
      1  N         31.6090   36.8460   89.4770 N.3     8  ILE8       -0.1245
      2  CA        31.6200   36.1620   88.1660 C.3     8  ILE8        0.1561
      3  C         32.4450   34.8640   88.2730 C.2     8  ILE8        0.2260
      4  O         33.6330   34.9060   88.6200 O.2     8  ILE8       -0.2867
      5  CB        32.2700   37.0520   87.0360 C.3     8  ILE8        0.0252
      6  CG1       31.8040   38.5180   87.1110 C.3     8  ILE8        0.0019
      7  CG2       32.0100   36.4680   85.6050 C.3     8  ILE8        0.0019
      8  CD1       30.3020   38.7650   86.7800 C.3     8  ILE8        0.0001
      9  N         29.4310   31.7630   84.4560 N.3    35  ARG35      -0.1245
     10  CA        30.1350   32.0200   83.1890 C.3    35  ARG35       0.1563
     11  C         31.1260   30.8820   82.8820 C.2    35  ARG35       0.2260
     12  O         32.3320   31.1040   82.7470 O.2    35  ARG35      -0.2867
     13  CB        30.8690   33.3610   83.2910 C.3    35  ARG35       0.0307
     14  CG        31.3850   33.9650   81.9820 C.3    35  ARG35       0.0489
     15  CD        32.0850   35.3300   82.2650 C.3    35  ARG35       0.2205
     16  NE        32.6040   35.9350   81.0420 N.pl3  35  ARG35      -0.0865
     17  CZ        33.7900   35.6540   80.5040 C.cat  35  ARG35       0.5346
     18  NH1       34.1590   36.2460   79.3790 N.pl3  35  ARG35       0.1354
     19  NH2       34.6080   34.7750   81.0750 N.pl3  35  ARG35       0.1354
     20  N         27.0850   43.0200   77.7910 N.3   102  SER102     -0.1202
     21  CA        28.4920   43.2910   78.0250 C.3   102  SER102      0.2020
     22  C         29.0160   44.2200   76.9190 C.2   102  SER102      0.2619
     23  O         28.9230   43.8650   75.7460 O.2   102  SER102     -0.2717
     24  CB        29.2810   41.9720   77.9990 C.3   102  SER102      0.2103
     25  OG        28.8260   41.0590   78.9880 O.3   102  SER102     -0.2182
     26  N         29.5430   45.3980   77.2740 N.am  103  VAL103     -0.1965
     27  CA        29.9480   46.4050   76.2680 C.3   103  VAL103      0.1727
     28  C         31.3580   46.9140   76.5760 C.2   103  VAL103      0.2616
     29  O         31.7950   46.8890   77.7290 O.2   103  VAL103     -0.2715
     30  CB        28.9590   47.6040   76.1710 C.3   103  VAL103      0.0290
     31  CG1       27.5330   47.1040   75.9690 C.3   103  VAL103      0.0023
     32  CG2       29.0340   48.5050   77.4300 C.3   103  VAL103      0.0023
     33  N         32.0630   47.3680   75.5370 N.am  104  HIS104     -0.1973
     34  CA        33.4810   47.6770   75.6430 C.3   104  HIS104      0.1656
     35  C         33.8360   49.0400   75.0680 C.2   104  HIS104      0.2291
     36  O         35.0030   49.3660   74.9350 O.2   104  HIS104     -0.2864
     37  CB        34.2960   46.5850   74.9470 C.3   104  HIS104      0.0771
     38  CG        33.9100   45.2100   75.3770 C.ar  104  HIS104      0.0820
     39  ND1       32.9410   44.4750   74.7270 N.ar  104  HIS104     -0.2267
     40  CD2       34.3000   44.4650   76.4380 C.ar  104  HIS104      0.1154
     41  CE1       32.7870   43.3140   75.3410 C.ar  104  HIS104      0.1986
     42  NE2       33.5990   43.2850   76.3840 N.ar  104  HIS104     -0.2212
     43  N         27.2880   45.8310   81.5110 N.3   121  LEU121     -0.1245
     44  CA        28.5640   45.6120   82.1760 C.3   121  LEU121      0.1561
     45  C         29.6160   46.2440   81.2680 C.2   121  LEU121      0.2260
     46  O         29.7670   45.8090   80.1420 O.2   121  LEU121     -0.2867
     47  CB        28.8620   44.1200   82.2680 C.3   121  LEU121      0.0270
     48  CG        29.2000   43.5360   83.6320 C.3   121  LEU121      0.0019
     49  CD1       27.9900   43.7060   84.5010 C.3   121  LEU121      0.0001
     50  CD2       29.5360   42.0590   83.5020 C.3   121  LEU121      0.0001
     51  N         33.6260   47.1140   80.5350 N.3   123  GLY123     -0.1210
     52  CA        35.0150   46.8260   80.8900 C.3   123  GLY123      0.1956
     53  C         35.9550   46.7940   79.6820 C.2   123  GLY123      0.2611
     54  O         35.5060   46.9850   78.5500 O.2   123  GLY123     -0.2717
     55  N         37.2530   46.5440   79.8910 N.am  124  HIS124     -0.1975
     56  CA        37.8470   46.3430   81.1990 C.3   124  HIS124      0.1656
     57  C         38.3420   47.7030   81.7040 C.2   124  HIS124      0.2291
     58  O         39.0610   48.3850   81.0030 O.2   124  HIS124     -0.2864
     59  CB        39.0050   45.3400   81.0900 C.3   124  HIS124      0.0771
     60  CG        40.1110   45.7940   80.1840 C.ar  124  HIS124      0.0820
     61  ND1       39.9080   46.1110   78.8540 N.ar  124  HIS124     -0.2267
     62  CD2       41.4330   45.9940   80.4150 C.ar  124  HIS124      0.1154
     63  CE1       41.0530   46.4850   78.3100 C.ar  124  HIS124      0.1986
     64  NE2       41.9960   46.4220   79.2370 N.ar  124  HIS124     -0.2212
     65  N         40.7810   50.6050   80.0200 N.3   129  ARG129     -0.1245
     66  CA        40.0150   51.6510   79.3340 C.3   129  ARG129      0.1563
     67  C         39.7670   52.9490   80.1320 C.2   129  ARG129      0.2260
     68  O         39.4630   53.9820   79.5420 O.2   129  ARG129     -0.2867
     69  CB        38.6860   51.0860   78.8390 C.3   129  ARG129      0.0307
     70  CG        38.8820   49.9230   77.9060 C.3   129  ARG129      0.0489
     71  CD        37.5830   49.4640   77.2990 C.3   129  ARG129      0.2205
     72  NE        37.6710   48.0650   76.9000 N.pl3 129  ARG129     -0.0865
     73  CZ        38.2530   47.6350   75.7850 C.cat 129  ARG129      0.5346
     74  NH1       38.8110   48.5020   74.9460 N.pl3 129  ARG129      0.1354
     75  NH2       38.2780   46.3330   75.5120 N.pl3 129  ARG129      0.1354
     76  N         33.5810   46.4980   85.3290 N.3   148  ILE148     -0.1231
     77  CA        34.3260   45.2260   85.4530 C.3   148  ILE148      0.1692
     78  C         35.7720   45.3300   84.9000 C.2   148  ILE148      0.2593
     79  O         36.0420   46.1220   84.0020 O.2   148  ILE148     -0.2718
     80  CB        33.5880   44.0740   84.7370 C.3   148  ILE148      0.0266
     81  CG1       34.2260   42.7170   85.0710 C.3   148  ILE148      0.0019
     82  CG2       33.5680   44.2890   83.1970 C.3   148  ILE148      0.0020
     83  CD1       33.4740   41.5250   84.4680 C.3   148  ILE148      0.0001
     84  N         36.6810   44.5290   85.4480 N.am  149  GLY149     -0.1942
     85  CA        38.0510   44.4130   84.9490 C.3   149  GLY149      0.2014
     86  C         39.0520   44.9990   85.9340 C.2   149  GLY149      0.2639
     87  O         39.1980   46.2190   86.0250 O.2   149  GLY149     -0.2714
     88  N         39.7200   44.1340   86.6970 N.am  150  GLY150     -0.1939
     89  CA        40.7000   44.5830   87.6750 C.3   150  GLY150      0.2014
     90  C         40.1300   45.2610   88.9270 C.2   150  GLY150      0.2638
     91  O         40.8370   46.0080   89.5920 O.2   150  GLY150     -0.2714
     92  N         38.8630   45.0120   89.2570 N.am  151  MET151     -0.1976
     93  CA        38.2690   45.5600   90.4790 C.3   151  MET151      0.1605
     94  C         38.8800   44.9410   91.7430 C.2   151  MET151      0.2287
     95  O         38.7740   43.7270   91.9740 O.2   151  MET151     -0.2864
     96  CB        36.7510   45.3270   90.4780 C.3   151  MET151      0.0413
     97  CG        36.0300   45.9740   89.2930 C.3   151  MET151      0.0598
     98  SD        36.1380   47.7940   89.3090 S.3   151  MET151     -0.1393
     99  CE        36.2620   48.0850   87.5560 C.3   151  MET151      0.0692
    100  N         31.8270   44.3100   89.2790 N.3   168  ALA168     -0.1231
    101  CA        31.8320   42.8820   88.9990 C.3   168  ALA168      0.1694
    102  C         33.2470   42.3680   89.2550 C.2   168  ALA168      0.2592
    103  O         34.2330   42.9940   88.8550 O.2   168  ALA168     -0.2718
    104  CB        31.4220   42.6140   87.5360 C.3   168  ALA168      0.0304
    105  N         33.3450   41.2300   89.9260 N.am  169  VAL169     -0.1966
    106  CA        34.6290   40.6930   90.3620 C.3   169  VAL169      0.1727
    107  C         34.7470   39.2180   89.9480 C.2   169  VAL169      0.2616
    108  O         33.8760   38.4250   90.2650 O.2   169  VAL169     -0.2715
    109  CB        34.7460   40.8120   91.9300 C.3   169  VAL169      0.0290
    110  CG1       36.0360   40.1810   92.4430 C.3   169  VAL169      0.0023
    111  CG2       34.6390   42.2790   92.3850 C.3   169  VAL169      0.0023
    112  N         35.8160   38.8460   89.2510 N.am  170  MET170     -0.1963
    113  CA        36.0580   37.4380   88.9430 C.3   170  MET170      0.1736
    114  C         37.2070   36.9150   89.7970 C.2   170  MET170      0.2617
    115  O         36.9590   36.2730   90.8180 O.2   170  MET170     -0.2715
    116  CB        36.3370   37.1970   87.4370 C.3   170  MET170      0.0427
    117  CG        36.3140   35.6870   87.0350 C.3   170  MET170      0.0599
    118  SD        36.5170   35.3660   85.2350 S.3   170  MET170     -0.1393
    119  CE        38.2370   35.7350   85.0720 C.3   170  MET170      0.0692
    120  N         38.4570   37.2030   89.4130 N.am  171  SER171     -0.1936
    121  CA        39.6210   36.5930   90.0940 C.3   171  SER171      0.2055
    122  C         39.7400   36.9990   91.5830 C.2   171  SER171      0.2643
    123  O         40.1210   36.1840   92.4260 O.2   171  SER171     -0.2714
    124  CB        40.9270   36.9150   89.3570 C.3   171  SER171      0.2130
    125  OG        41.2120   38.3090   89.4160 O.3   171  SER171     -0.2179
    126  N         39.3980   38.2460   91.8970 N.am  172  GLY172     -0.1954
    127  CA        39.4480   38.7370   93.2640 C.3   172  GLY172      0.1869
    128  C         38.6550   37.9130   94.2720 C.2   172  GLY172      0.2309
    129  O         38.9100   38.0030   95.4760 O.2   172  GLY172     -0.2863
@<TRIPOS>BOND
     1    39    41   ar
     2    39    38   ar
     3    36    35    2
     4    74    73    1
     5    37    38    1
     6    37    34    1
     7    35    34    1
     8    41    42   ar
     9    38    40   ar
    10    75    73    1
    11    33    34    1
    12    33    28   am
    13    23    22    2
    14    73    72    2
    15    31    30    1
    16    30    27    1
    17    30    32    1
    18    27    28    1
    19    27    26    1
    20    42    40   ar
    21    28    29    2
    22    72    71    1
    23    22    26   am
    24    22    21    1
    25    71    70    1
    26    20    21    1
    27    70    69    1
    28    24    21    1
    29    24    25    1
    30    63    61   ar
    31    63    64   ar
    32    54    53    2
    33    69    66    1
    34    61    60   ar
    35    64    62   ar
    36    66    65    1
    37    66    67    1
    38    18    17    1
    39    68    67    2
    40    53    55   am
    41    53    52    1
    42    55    56    1
    43    46    45    2
    44    60    62   ar
    45    60    59    1
    46    17    16    2
    47    17    19    1
    48    51    52    1
    49    58    57    2
    50    16    15    1
    51    59    56    1
    52    56    57    1
    53    45    44    1
    54    43    44    1
    55    14    15    1
    56    14    13    1
    57    44    47    1
    58    47    48    1
    59    12    11    2
    60    11    10    1
    61    10    13    1
    62    10     9    1
    63    82    80    1
    64    50    48    1
    65    48    49    1
    66    79    78    2
    67    83    81    1
    68    80    81    1
    69    80    77    1
    70    78    84   am
    71    78    77    1
    72    85    84    1
    73    85    86    1
    74   119   118    1
    75   118   117    1
    76    76    77    1
    77     7     5    1
    78    86    87    2
    79    86    88   am
    80    88    89    1
    81     8     6    1
    82   117   116    1
    83     5     6    1
    84     5     2    1
    85   116   113    1
    86   104   101    1
    87    99    98    1
    88    89    90    1
    89     2     3    1
    90     2     1    1
    91     3     4    2
    92   103   102    2
    93    90    92   am
    94    90    91    2
    95   113   112    1
    96   113   114    1
    97   101   102    1
    98   101   100    1
    99   112   107   am
   100   102   105   am
   101    92    93    1
   102    97    98    1
   103    97    96    1
   104   124   125    1
   105   124   121    1
   106   120   114   am
   107   120   121    1
   108   114   115    2
   109   105   106    1
   110   107   108    2
   111   107   106    1
   112   121   122    1
   113   106   109    1
   114    96    93    1
   115    93    94    1
   116   122   126   am
   117   122   123    2
   118    94    95    2
   119   126   127    1
   120   109   111    1
   121   109   110    1
   122   127   128    1
   123   128   129    2
