@<TRIPOS>MOLECULE
tmp/3qh5A03.pdb
 82 80 0 0 0
SMALL
GASTEIGER

@<TRIPOS>ATOM
      1  N         28.8340   45.0800   12.3870 N.3    13  VAL13      -0.1245
      2  CA        29.5180   43.8050   12.5220 C.3    13  VAL13       0.1561
      3  C         30.6290   43.8050   13.5880 C.2    13  VAL13       0.2260
      4  O         30.8630   42.8020   14.2640 O.2    13  VAL13      -0.2867
      5  CB        30.0750   43.4100   11.1120 C.3    13  VAL13       0.0252
      6  CG1       30.9370   42.1730   11.1720 C.3    13  VAL13       0.0019
      7  CG2       28.9190   43.1640   10.0860 C.3    13  VAL13       0.0019
      8  N         20.1900   33.7190    3.6320 N.3    46  TYR46      -0.1241
      9  CA        21.1200   32.6170    3.4520 C.3    46  TYR46       0.1605
     10  C         20.9720   31.9210    2.1080 C.2    46  TYR46       0.2264
     11  O         21.5890   30.8580    1.8950 O.2    46  TYR46      -0.2867
     12  CB        21.0320   31.5620    4.5670 C.3    46  TYR46       0.0534
     13  CG        21.1980   32.0910    5.9660 C.ar   46  TYR46      -0.0201
     14  CD1       20.4260   31.5920    7.0090 C.ar   46  TYR46      -0.0009
     15  CD2       22.1930   33.0030    6.2670 C.ar   46  TYR46      -0.0009
     16  CE1       20.6080   32.0240    8.3090 C.ar   46  TYR46       0.0417
     17  CE2       22.3780   33.4500    7.5640 C.ar   46  TYR46       0.0417
     18  CZ        21.5970   32.9320    8.5860 C.ar   46  TYR46       0.1957
     19  OH        21.7400   33.3530    9.8850 O.3    46  TYR46      -0.2866
     20  N         22.3870   40.1480   16.3890 N.3    65  SER65      -0.1202
     21  CA        23.5440   39.7180   15.6010 C.3    65  SER65       0.2020
     22  C         23.1680   39.6210   14.1190 C.2    65  SER65       0.2618
     23  O         23.9490   40.0280   13.2570 O.2    65  SER65      -0.2717
     24  CB        24.1250   38.3990   16.1130 C.3    65  SER65       0.2103
     25  OG        23.1960   37.3370   16.0110 O.3    65  SER65      -0.2182
     26  N         21.9650   39.1080   13.8230 N.am   66  TYR66      -0.1975
     27  CA        21.4720   38.9530   12.4560 C.3    66  TYR66       0.1639
     28  C         21.3840   40.3150   11.7570 C.2    66  TYR66       0.2290
     29  O         21.5270   40.3870   10.5260 O.2    66  TYR66      -0.2864
     30  CB        20.1150   38.2360   12.4490 C.3    66  TYR66       0.0560
     31  CG        19.7000   37.7170   11.0740 C.ar   66  TYR66      -0.0198
     32  CD1       18.7840   38.4230   10.2860 C.ar   66  TYR66      -0.0009
     33  CD2       20.2230   36.5490   10.5530 C.ar   66  TYR66      -0.0009
     34  CE1       18.4310   38.0040    9.0100 C.ar   66  TYR66       0.0417
     35  CE2       19.8540   36.1070    9.2850 C.ar   66  TYR66       0.0417
     36  CZ        18.9480   36.8200    8.5210 C.ar   66  TYR66       0.1957
     37  OH        18.6400   36.3630    7.2480 O.3    66  TYR66      -0.2866
     38  N         23.4400   42.9290   12.1200 N.3    68  ALA68      -0.1231
     39  CA        24.7090   43.6760   12.0230 C.3    68  ALA68       0.1679
     40  C         25.1970   43.8710   10.5800 C.2    68  ALA68       0.2434
     41  O         25.5860   44.9630   10.2050 O.2    68  ALA68      -0.2733
     42  CB        25.7870   42.9810   12.8750 C.3    68  ALA68       0.0304
     43  N         25.1560   42.8160    9.7470 N.am   69  PRO69      -0.2729
     44  CA        25.6680   43.0050    8.3840 C.3    69  PRO69       0.1401
     45  C         24.7860   43.9790    7.5930 C.2    69  PRO69       0.2269
     46  O         25.2730   44.6980    6.7460 O.2    69  PRO69      -0.2865
     47  CB        25.5850   41.5970    7.8020 C.3    69  PRO69       0.0296
     48  CG        25.6230   40.7290    8.9600 C.3    69  PRO69       0.0237
     49  CD        24.8680   41.4060   10.0080 C.3    69  PRO69       0.0939
     50  N         23.4850   38.5350    4.0940 N.3   105  HIS105     -0.1241
     51  CA        23.2040   37.1440    4.3340 C.3   105  HIS105      0.1621
     52  C         23.0740   36.3360    3.0480 C.2   105  HIS105      0.2264
     53  O         22.2040   35.4900    2.9120 O.2   105  HIS105     -0.2867
     54  CB        21.9780   36.9650    5.2300 C.3   105  HIS105      0.0745
     55  CG        22.1350   37.5460    6.5950 C.ar  105  HIS105      0.0817
     56  ND1       23.1520   37.1760    7.4580 N.ar  105  HIS105     -0.2268
     57  CD2       21.3960   38.4740    7.2510 C.ar  105  HIS105      0.1154
     58  CE1       23.0140   37.8540    8.5900 C.ar  105  HIS105      0.1986
     59  NE2       21.9630   38.6550    8.4840 N.ar  105  HIS105     -0.2212
     60  N         28.3090   36.2900    4.5820 N.3   124  ASP124     -0.1239
     61  CA        28.5530   36.3620    6.0040 C.3   124  ASP124      0.1674
     62  C         29.9380   35.8700    6.3970 C.2   124  ASP124      0.2266
     63  O         30.3430   35.9730    7.5690 O.2   124  ASP124     -0.2867
     64  CB        27.5210   35.5070    6.7230 C.3   124  ASP124      0.1410
     65  CG        26.1550   36.1420    6.7500 C.2   124  ASP124      0.3668
     66  OD1       25.1490   35.4120    6.7760 O.co2 124  ASP124     -0.2456
     67  OD2       26.0810   37.3790    6.8050 O.co2 124  ASP124     -0.2456
     68  N         34.5160   37.4570    8.4950 N.3   131  ILE131     -0.1231
     69  CA        33.2420   37.7460    9.1700 C.3   131  ILE131      0.1678
     70  C         32.4070   38.5370    8.1320 C.2   131  ILE131      0.2434
     71  O         32.8720   38.7520    7.0060 O.2   131  ILE131     -0.2733
     72  CB        33.4500   38.4860   10.5100 C.3   131  ILE131      0.0265
     73  CG1       34.1490   39.8470   10.2900 C.3   131  ILE131      0.0019
     74  CG2       34.2660   37.5780   11.4710 C.3   131  ILE131      0.0020
     75  CD1       34.3180   40.7330   11.6010 C.3   131  ILE131      0.0001
     76  N         31.1620   38.9030    8.4590 N.am  132  PRO132     -0.2729
     77  CA        30.3060   39.4090    7.3630 C.3   132  PRO132      0.1401
     78  C         30.9200   40.5900    6.6310 C.2   132  PRO132      0.2269
     79  O         31.3950   41.5440    7.2540 O.2   132  PRO132     -0.2865
     80  CB        28.9860   39.7210    8.1090 C.3   132  PRO132      0.0296
     81  CG        28.9610   38.6670    9.1530 C.3   132  PRO132      0.0237
     82  CD        30.3610   38.6410    9.6620 C.3   132  PRO132      0.0939
@<TRIPOS>BOND
     1    11    10    2
     2    10     9    1
     3    53    52    2
     4    52    51    1
     5     9     8    1
     6     9    12    1
     7    50    51    1
     8    51    54    1
     9    12    13    1
    10    60    61    1
    11    54    55    1
    12    13    15   ar
    13    13    14   ar
    14    61    62    1
    15    61    64    1
    16    15    17   ar
    17    62    63    2
    18    55    57   ar
    19    55    56   ar
    20    78    79    2
    21    78    77    1
    22    64    65    1
    23    46    45    2
    24    65    66   ar
    25    65    67   ar
    26    71    70    2
    27    14    16   ar
    28    37    36    1
    29    57    59   ar
    30    77    80    1
    31    77    76    1
    32    56    58   ar
    33    17    18   ar
    34    45    44    1
    35    47    44    1
    36    47    48    1
    37    80    81    1
    38    70    76   am
    39    70    69    1
    40    16    18   ar
    41    44    43    1
    42    76    82    1
    43    59    58   ar
    44    68    69    1
    45    36    34   ar
    46    36    35   ar
    47    18    19    1
    48    48    49    1
    49    34    32   ar
    50    81    82    1
    51    69    72    1
    52    35    33   ar
    53    43    49    1
    54    43    40   am
    55     7     5    1
    56    41    40    2
    57    32    31   ar
    58    73    72    1
    59    73    75    1
    60    72    74    1
    61    29    28    2
    62    33    31   ar
    63    40    39    1
    64    31    30    1
    65     5     6    1
    66     5     2    1
    67    28    27    1
    68    39    38    1
    69    39    42    1
    70     1     2    1
    71    30    27    1
    72    27    26    1
    73     2     3    1
    74    23    22    2
    75     3     4    2
    76    26    22   am
    77    22    21    1
    78    21    24    1
    79    21    20    1
    80    25    24    1
