@<TRIPOS>MOLECULE
tmp/3qh8A00.pdb
 127 124 0 0 0
SMALL
GASTEIGER

@<TRIPOS>ATOM
      1  N          8.2730   -6.2580  -14.9550 N.3    18  SER18      -0.1217
      2  CA         7.1550   -6.9690  -15.5480 C.3    18  SER18       0.1889
      3  C          5.7380   -6.3190  -15.4320 C.2    18  SER18       0.2288
      4  O          4.9590   -6.4460  -16.3620 O.2    18  SER18      -0.2866
      5  CB         7.1220   -8.4410  -15.1520 C.3    18  SER18       0.2089
      6  OG         6.8280   -8.6020  -13.7730 O.3    18  SER18      -0.2183
      7  N         11.4180  -16.9790  -22.1120 N.3    87  PRO87      -0.2102
      8  CA         9.9580  -17.0540  -22.3140 C.3    87  PRO87       0.1504
      9  C          9.1400  -16.6600  -21.0900 C.2    87  PRO87       0.2576
     10  O          8.4170  -17.5040  -20.4650 O.2    87  PRO87      -0.2718
     11  CB         9.7590  -18.5360  -22.6030 C.3    87  PRO87       0.0282
     12  CG        10.7230  -19.2020  -21.7530 C.3    87  PRO87       0.0208
     13  CD        11.9480  -18.3160  -21.7640 C.3    87  PRO87       0.0893
     14  N          9.3620  -15.4600  -20.6270 N.am   88  HIS88      -0.1962
     15  CA         8.4860  -14.8490  -19.6150 C.3    88  HIS88       0.1787
     16  C          7.4910  -13.8790  -20.2700 C.2    88  HIS88       0.2620
     17  O          7.7910  -13.2500  -21.2790 O.2    88  HIS88      -0.2715
     18  CB         9.3100  -14.1270  -18.5420 C.3    88  HIS88       0.0785
     19  CG         9.8940  -15.0620  -17.5320 C.ar   88  HIS88       0.0821
     20  ND1       10.8650  -14.6990  -16.6220 N.ar   88  HIS88      -0.2267
     21  CD2        9.6220  -16.3750  -17.3030 C.ar   88  HIS88       0.1154
     22  CE1       11.1470  -15.7410  -15.8560 C.ar   88  HIS88       0.1986
     23  NE2       10.4180  -16.7740  -16.2540 N.ar   88  HIS88      -0.2212
     24  N          6.2950  -13.7970  -19.6940 N.am   89  ALA89      -0.1963
     25  CA         5.1870  -12.9940  -20.2230 C.3    89  ALA89       0.1728
     26  C          5.5330  -11.6130  -20.7500 C.2    89  ALA89       0.2616
     27  O          5.1030  -11.2130  -21.8560 O.2    89  ALA89      -0.2715
     28  CB         4.1070  -12.8410  -19.0950 C.3    89  ALA89       0.0334
     29  N          6.3140  -10.8850  -19.9730 N.am   90  ASP90      -0.1971
     30  CA         6.6780   -9.4960  -20.2690 C.3    90  ASP90       0.1709
     31  C          7.5970   -9.3540  -21.4880 C.2    90  ASP90       0.2293
     32  O          7.8320   -8.2350  -21.9160 O.2    90  ASP90      -0.2864
     33  CB         7.2340   -8.7380  -19.0470 C.3    90  ASP90       0.1436
     34  CG         8.3700   -9.4470  -18.2960 C.2    90  ASP90       0.3671
     35  OD1        8.3040  -10.6990  -18.1030 O.co2  90  ASP90      -0.2456
     36  OD2        9.3530   -8.7690  -17.8730 O.co2  90  ASP90      -0.2456
     37  N          7.2470  -11.8570  -24.2750 N.3    92  ILE92      -0.1231
     38  CA         6.7160  -12.6260  -25.3880 C.3    92  ILE92       0.1692
     39  C          5.2300  -12.4180  -25.7070 C.2    92  ILE92       0.2592
     40  O          4.8110  -12.7780  -26.8040 O.2    92  ILE92      -0.2718
     41  CB         6.9530  -14.1590  -25.1960 C.3    92  ILE92       0.0266
     42  CG1        6.3050  -14.6760  -23.8940 C.3    92  ILE92       0.0019
     43  CG2        8.4330  -14.5000  -25.2740 C.3    92  ILE92       0.0020
     44  CD1        6.2300  -16.2380  -23.8470 C.3    92  ILE92       0.0001
     45  N          4.4290  -11.8350  -24.8170 N.am   93  HIS93      -0.1976
     46  CA         2.9730  -11.8340  -25.0230 C.3    93  HIS93       0.1656
     47  C          2.4700  -10.8330  -26.0890 C.2    93  HIS93       0.2291
     48  O          1.2790  -10.7870  -26.3550 O.2    93  HIS93      -0.2864
     49  CB         2.2360  -11.7290  -23.6950 C.3    93  HIS93       0.0771
     50  CG         2.2490  -12.9920  -22.8820 C.ar   93  HIS93       0.0820
     51  ND1        1.6840  -13.0540  -21.6250 N.ar   93  HIS93      -0.2267
     52  CD2        2.7320  -14.2340  -23.1390 C.ar   93  HIS93       0.1154
     53  CE1        1.8560  -14.2710  -21.1380 C.ar   93  HIS93       0.1986
     54  NE2        2.4720  -15.0140  -22.0350 N.ar   93  HIS93      -0.2212
     55  N          8.6190  -23.2930  -25.3840 N.3   120  ARG120     -0.1245
     56  CA         7.5200  -22.5830  -24.6820 C.3   120  ARG120      0.1563
     57  C          6.6510  -21.7610  -25.6630 C.2   120  ARG120      0.2260
     58  O          5.3970  -21.7250  -25.5340 O.2   120  ARG120     -0.2867
     59  CB         8.0560  -21.7180  -23.5400 C.3   120  ARG120      0.0307
     60  CG         8.7100  -22.5390  -22.4330 C.3   120  ARG120      0.0489
     61  CD         7.7770  -23.5130  -21.7190 C.3   120  ARG120      0.2205
     62  NE         6.6050  -22.7980  -21.1920 N.pl3 120  ARG120     -0.0865
     63  CZ         6.5690  -22.1690  -20.0490 C.cat 120  ARG120      0.5346
     64  NH1        7.6030  -22.1900  -19.2140 N.pl3 120  ARG120      0.1354
     65  NH2        5.5080  -21.4920  -19.6720 N.pl3 120  ARG120      0.1354
     66  N         19.0450  -16.4820  -14.3950 N.3   170  HIS170     -0.1241
     67  CA        17.8730  -15.6560  -14.1350 C.3   170  HIS170      0.1621
     68  C         17.0150  -16.3940  -13.1160 C.2   170  HIS170      0.2264
     69  O         16.0020  -17.0170  -13.4390 O.2   170  HIS170     -0.2867
     70  CB        17.1310  -15.3850  -15.4620 C.3   170  HIS170      0.0745
     71  CG        15.8570  -14.5800  -15.3510 C.ar  170  HIS170      0.0817
     72  ND1       15.6640  -13.5700  -14.4230 N.ar  170  HIS170     -0.2268
     73  CD2       14.7180  -14.6340  -16.0930 C.ar  170  HIS170      0.1154
     74  CE1       14.4530  -13.0450  -14.6060 C.ar  170  HIS170      0.1986
     75  NE2       13.8560  -13.6780  -15.6060 N.ar  170  HIS170     -0.2212
     76  N         17.1340   -9.3210  -17.2540 N.3   188  ASP188     -0.1239
     77  CA        16.6480  -10.5410  -16.6020 C.3   188  ASP188      0.1674
     78  C         17.8110  -11.4600  -16.2340 C.2   188  ASP188      0.2266
     79  O         17.9530  -12.5980  -16.7000 O.2   188  ASP188     -0.2867
     80  CB        15.5620  -11.2240  -17.4360 C.3   188  ASP188      0.1410
     81  CG        14.3240  -10.3850  -17.5650 C.2   188  ASP188      0.3668
     82  OD1       14.3790   -9.3920  -18.3220 O.co2 188  ASP188     -0.2456
     83  OD2       13.2940  -10.7120  -16.9340 O.co2 188  ASP188     -0.2456
     84  N         16.7290   -4.0880  -10.8620 N.3   211  LEU211     -0.1245
     85  CA        15.2850   -4.1200  -10.6080 C.3   211  LEU211      0.1561
     86  C         14.8710   -3.0880   -9.5630 C.2   211  LEU211      0.2260
     87  O         13.9010   -2.3350   -9.7570 O.2   211  LEU211     -0.2867
     88  CB        14.8340   -5.5430  -10.1590 C.3   211  LEU211      0.0270
     89  CG        13.3500   -5.7480   -9.8700 C.3   211  LEU211      0.0019
     90  CD1       12.5890   -5.8600  -11.1980 C.3   211  LEU211      0.0001
     91  CD2       13.0850   -6.9470   -8.9760 C.3   211  LEU211      0.0001
     92  N         16.4800   -9.5970   -4.8060 N.3   216  HIS216     -0.1241
     93  CA        15.3930  -10.3070   -5.4630 C.3   216  HIS216      0.1621
     94  C         16.0200  -11.5700   -6.0580 C.2   216  HIS216      0.2264
     95  O         17.1540  -11.5310   -6.5130 O.2   216  HIS216     -0.2867
     96  CB        14.7610   -9.4680   -6.5890 C.3   216  HIS216      0.0745
     97  CG        13.5180  -10.0680   -7.1840 C.ar  216  HIS216      0.0817
     98  ND1       13.5560  -11.0700   -8.1400 N.ar  216  HIS216     -0.2268
     99  CD2       12.2080   -9.7700   -7.0020 C.ar  216  HIS216      0.1154
    100  CE1       12.3150  -11.3840   -8.4780 C.ar  216  HIS216      0.1986
    101  NE2       11.4820  -10.6060   -7.8090 N.ar  216  HIS216     -0.2212
    102  N         15.6650  -13.1980   -8.8240 N.3   218  SER218     -0.1202
    103  CA        15.7400  -13.3080  -10.2920 C.3   218  SER218      0.2020
    104  C         16.4660  -12.1650  -10.9860 C.2   218  SER218      0.2618
    105  O         16.6870  -12.2080  -12.2070 O.2   218  SER218     -0.2717
    106  CB        14.3170  -13.3670  -10.8630 C.3   218  SER218      0.2103
    107  OG        13.6280  -14.5100  -10.3990 O.3   218  SER218     -0.2182
    108  N         16.7930  -11.1030  -10.2430 N.am  219  HIS219     -0.1975
    109  CA        17.4000   -9.8970  -10.8260 C.3   219  HIS219      0.1656
    110  C         18.4090   -9.2700   -9.9010 C.2   219  HIS219      0.2291
    111  O         18.2640   -9.3410   -8.6560 O.2   219  HIS219     -0.2864
    112  CB        16.3570   -8.8060  -11.0960 C.3   219  HIS219      0.0771
    113  CG        15.1940   -9.2390  -11.9210 C.ar  219  HIS219      0.0820
    114  ND1       15.1500   -9.0770  -13.2830 N.ar  219  HIS219     -0.2267
    115  CD2       14.0040   -9.7820  -11.5530 C.ar  219  HIS219      0.1154
    116  CE1       13.9780   -9.5340  -13.7190 C.ar  219  HIS219      0.1986
    117  NE2       13.2700   -9.9670  -12.6880 N.ar  219  HIS219     -0.2212
    118  N         14.9900   -2.5870  -16.9470 N.3   241  HIS241     -0.1241
    119  CA        14.1430   -3.5100  -16.1800 C.3   241  HIS241      0.1621
    120  C         13.9250   -2.9970  -14.7780 C.2   241  HIS241      0.2264
    121  O         13.8620   -3.7530  -13.8170 O.2   241  HIS241     -0.2867
    122  CB        14.6790   -4.9540  -16.1960 C.3   241  HIS241      0.0745
    123  CG        13.6060   -6.0030  -16.1370 C.ar  241  HIS241      0.0817
    124  ND1       12.9150   -6.2840  -14.9870 N.ar  241  HIS241     -0.2268
    125  CD2       13.1350   -6.8640  -17.0800 C.ar  241  HIS241      0.1154
    126  CE1       12.0720   -7.2760  -15.2170 C.ar  241  HIS241      0.1986
    127  NE2       12.1580   -7.6240  -16.4880 N.ar  241  HIS241     -0.2212
@<TRIPOS>BOND
     1    40    39    2
     2    48    47    2
     3    47    46    1
     4    39    38    1
     5    39    45   am
     6    57    58    2
     7    57    56    1
     8    38    41    1
     9    38    37    1
    10    55    56    1
    11    43    41    1
    12    41    42    1
    13    46    45    1
    14    46    49    1
    15    56    59    1
    16    42    44    1
    17    49    50    1
    18    59    60    1
    19    52    50   ar
    20    52    54   ar
    21    50    51   ar
    22    11     8    1
    23    11    12    1
    24    60    61    1
    25     8     7    1
    26     8     9    1
    27     7    13    1
    28    54    53   ar
    29    32    31    2
    30    27    26    2
    31    13    12    1
    32    61    62    1
    33    51    53   ar
    34    31    30    1
    35    17    16    2
    36    62    63    2
    37     9    14   am
    38     9    10    2
    39    26    25    1
    40    26    29   am
    41    14    15    1
    42    16    24   am
    43    16    15    1
    44    30    29    1
    45    30    33    1
    46    25    24    1
    47    25    28    1
    48    63    65    1
    49    63    64    1
    50    15    18    1
    51    33    34    1
    52    18    19    1
    53    82    81   ar
    54    34    35   ar
    55    34    36   ar
    56    81    80    1
    57    81    83   ar
    58    19    21   ar
    59    19    20   ar
    60    80    77    1
    61    21    23   ar
    62    76    77    1
    63   125   127   ar
    64   125   123   ar
    65   118   119    1
    66    79    78    2
    67    20    22   ar
    68    77    78    1
    69   127   126   ar
    70     4     3    2
    71    23    22   ar
    72   122   119    1
    73   122   123    1
    74   119   120    1
    75   123   124   ar
    76    73    75   ar
    77    73    71   ar
    78    75    74   ar
    79     2     3    1
    80     2     5    1
    81     2     1    1
    82    70    71    1
    83    70    67    1
    84    71    72   ar
    85   126   124   ar
    86     5     6    1
    87   120   121    2
    88    74    72   ar
    89    66    67    1
    90    67    68    1
    91   116   114   ar
    92   116   117   ar
    93    69    68    2
    94   114   113   ar
    95   117   115   ar
    96   105   104    2
    97   113   115   ar
    98   113   112    1
    99    90    89    1
   100   112   109    1
   101   104   103    1
   102   104   108   am
   103   106   107    1
   104   106   103    1
   105    84    85    1
   106   109   108    1
   107   109   110    1
   108    85    88    1
   109    85    86    1
   110   103   102    1
   111    88    89    1
   112   110   111    2
   113    89    91    1
   114    87    86    2
   115   100    98   ar
   116   100   101   ar
   117    98    97   ar
   118   101    99   ar
   119    97    99   ar
   120    97    96    1
   121    96    93    1
   122    95    94    2
   123    94    93    1
   124    93    92    1
