@<TRIPOS>MOLECULE
tmp/3qhdA02.pdb
 103 99 0 0 0
SMALL
GASTEIGER

@<TRIPOS>ATOM
      1  N          2.1040  -33.8610  -22.6060 N.3    62  HIS62      -0.1226
      2  CA         0.9250  -34.3990  -21.9270 C.3    62  HIS62       0.1752
      3  C          0.0950  -33.4160  -21.1450 C.2    62  HIS62       0.2596
      4  O         -1.1350  -33.5400  -21.1270 O.2    62  HIS62      -0.2718
      5  CB         1.3190  -35.5960  -21.0690 C.3    62  HIS62       0.0759
      6  CG         1.5950  -36.7980  -21.8960 C.ar   62  HIS62       0.0818
      7  ND1        0.6010  -37.6780  -22.2560 N.ar   62  HIS62      -0.2268
      8  CD2        2.7170  -37.2040  -22.5340 C.ar   62  HIS62       0.1154
      9  CE1        1.1060  -38.5960  -23.0630 C.ar   62  HIS62       0.1986
     10  NE2        2.3940  -38.3380  -23.2380 N.ar   62  HIS62      -0.2212
     11  N          0.7580  -32.4240  -20.5450 N.am   63  PHE63      -0.1962
     12  CA         0.0910  -31.4680  -19.6690 C.3    63  PHE63       0.1771
     13  C          0.5160  -30.0840  -20.1010 C.2    63  PHE63       0.2620
     14  O          1.5920  -29.6080  -19.7390 O.2    63  PHE63      -0.2715
     15  CB         0.4620  -31.7380  -18.2010 C.3    63  PHE63       0.0574
     16  CG         0.2190  -33.1650  -17.7790 C.ar   63  PHE63      -0.0200
     17  CD1       -1.0700  -33.7040  -17.7920 C.ar   63  PHE63      -0.0042
     18  CD2        1.2680  -33.9730  -17.3410 C.ar   63  PHE63      -0.0042
     19  CE1       -1.2960  -35.0260  -17.4070 C.ar   63  PHE63      -0.0003
     20  CE2        1.0410  -35.2940  -16.9550 C.ar   63  PHE63      -0.0003
     21  CZ        -0.2490  -35.8230  -16.9820 C.ar   63  PHE63      -0.0000
     22  N         -0.3270  -29.4710  -20.9150 N.am   64  SER64      -0.1950
     23  CA        -0.0530  -28.1500  -21.4680 C.3    64  SER64       0.1924
     24  C         -0.2500  -27.0620  -20.4190 C.2    64  SER64       0.2314
     25  O         -1.2660  -27.0490  -19.7150 O.2    64  SER64      -0.2863
     26  CB        -0.9820  -27.9080  -22.6550 C.3    64  SER64       0.2116
     27  OG        -0.9360  -26.5730  -23.0990 O.3    64  SER64      -0.2180
     28  N         -3.6350  -25.2290  -20.4590 N.3    67  ASP67      -0.1239
     29  CA        -4.8220  -25.7330  -19.7820 C.3    67  ASP67       0.1674
     30  C         -5.0080  -24.8770  -18.5140 C.2    67  ASP67       0.2266
     31  O         -4.0560  -24.6900  -17.7470 O.2    67  ASP67      -0.2867
     32  CB        -4.6390  -27.2250  -19.4440 C.3    67  ASP67       0.1410
     33  CG        -5.9490  -27.9160  -19.0550 C.2    67  ASP67       0.3668
     34  OD1       -6.4730  -27.6310  -17.9530 O.co2  67  ASP67      -0.2456
     35  OD2       -6.4510  -28.7520  -19.8420 O.co2  67  ASP67      -0.2456
     36  N         -6.0860  -25.5760  -15.8760 N.3    69  ARG69      -0.1231
     37  CA        -5.8420  -26.4050  -14.7090 C.3    69  ARG69       0.1694
     38  C         -4.3630  -26.4790  -14.3580 C.2    69  ARG69       0.2592
     39  O         -4.0160  -26.9200  -13.2610 O.2    69  ARG69      -0.2718
     40  CB        -6.3800  -27.8230  -14.9260 C.3    69  ARG69       0.0321
     41  CG        -7.9000  -27.9560  -14.9660 C.3    69  ARG69       0.0489
     42  CD        -8.3010  -29.4020  -15.2240 C.3    69  ARG69       0.2205
     43  NE        -7.8710  -29.8460  -16.5490 N.pl3  69  ARG69      -0.0865
     44  CZ        -7.9380  -31.1000  -16.9920 C.cat  69  ARG69       0.5346
     45  NH1       -7.5280  -31.3900  -18.2220 N.pl3  69  ARG69       0.1354
     46  NH2       -8.4190  -32.0630  -16.2150 N.pl3  69  ARG69       0.1354
     47  N         -3.4940  -26.0490  -15.2720 N.am   70  PHE70      -0.1976
     48  CA        -2.0650  -26.1470  -15.0070 C.3    70  PHE70       0.1639
     49  C         -1.6150  -25.1810  -13.9200 C.2    70  PHE70       0.2290
     50  O         -0.7120  -25.4940  -13.1620 O.2    70  PHE70      -0.2864
     51  CB        -1.2320  -25.9230  -16.2780 C.3    70  PHE70       0.0560
     52  CG         0.1900  -26.4420  -16.1550 C.ar   70  PHE70      -0.0200
     53  CD1        0.4670  -27.7940  -16.3580 C.ar   70  PHE70      -0.0042
     54  CD2        1.2360  -25.5830  -15.8190 C.ar   70  PHE70      -0.0042
     55  CE1        1.7780  -28.2880  -16.2340 C.ar   70  PHE70      -0.0003
     56  CE2        2.5450  -26.0630  -15.6820 C.ar   70  PHE70      -0.0003
     57  CZ         2.8180  -27.4120  -15.8960 C.ar   70  PHE70      -0.0000
     58  N         -1.1740  -26.4100  -10.4030 N.3    73  ALA73      -0.1231
     59  CA        -1.5240  -27.8370  -10.4900 C.3    73  ALA73       0.1694
     60  C         -0.8120  -28.6980   -9.4650 C.2    73  ALA73       0.2592
     61  O          0.3860  -28.5520   -9.2430 O.2    73  ALA73      -0.2718
     62  CB        -1.2410  -28.3900  -11.8780 C.3    73  ALA73       0.0304
     63  N         -1.5850  -29.6010   -8.8640 N.am   74  ASP74      -0.1974
     64  CA        -1.0640  -30.6170   -7.9390 C.3    74  ASP74       0.1709
     65  C         -0.3020  -31.6060   -8.7800 C.2    74  ASP74       0.2293
     66  O         -0.8960  -32.3490   -9.6040 O.2    74  ASP74      -0.2864
     67  CB        -2.2620  -31.2900   -7.2660 C.3    74  ASP74       0.1436
     68  CG        -1.8770  -32.3570   -6.2610 C.2    74  ASP74       0.3671
     69  OD1       -0.7100  -32.7790   -6.1990 O.co2  74  ASP74      -0.2456
     70  OD2       -2.8020  -32.7860   -5.5420 O.co2  74  ASP74      -0.2456
     71  N         -1.5190  -35.1310   -8.8410 N.3    77  ALA77      -0.1231
     72  CA        -2.5940  -35.4210   -9.8030 C.3    77  ALA77       0.1694
     73  C         -1.9920  -35.6520  -11.1990 C.2    77  ALA77       0.2591
     74  O         -2.4160  -36.5730  -11.9410 O.2    77  ALA77      -0.2718
     75  CB        -3.5910  -34.2630   -9.8200 C.3    77  ALA77       0.0304
     76  N         -0.9780  -34.8540  -11.5490 N.am   78  LEU78      -0.1980
     77  CA        -0.2740  -35.0510  -12.8250 C.3    78  LEU78       0.1596
     78  C          0.4260  -36.4110  -12.8780 C.2    78  LEU78       0.2287
     79  O          0.3130  -37.1460  -13.8760 O.2    78  LEU78      -0.2864
     80  CB         0.7300  -33.9250  -13.0860 C.3    78  LEU78       0.0297
     81  CG         0.1880  -32.4920  -13.1820 C.3    78  LEU78       0.0022
     82  CD1        1.3250  -31.5360  -13.5150 C.3    78  LEU78       0.0001
     83  CD2       -0.9560  -32.3290  -14.1880 C.3    78  LEU78       0.0001
     84  N         -2.1420  -39.1760  -13.4070 N.3    81  GLU81      -0.1245
     85  CA        -2.6260  -39.2130  -14.7890 C.3    81  GLU81       0.1567
     86  C         -1.5650  -39.7760  -15.7360 C.2    81  GLU81       0.2260
     87  O         -1.8800  -40.5150  -16.6840 O.2    81  GLU81      -0.2867
     88  CB        -3.1230  -37.8380  -15.2570 C.3    81  GLU81       0.0388
     89  CG        -3.5860  -37.8240  -16.7350 C.3    81  GLU81       0.1160
     90  CD        -4.7630  -38.7710  -17.0320 C.2    81  GLU81       0.3649
     91  OE1       -5.5200  -39.1640  -16.1080 O.co2  81  GLU81      -0.2457
     92  OE2       -4.9670  -39.0980  -18.2170 O.co2  81  GLU81      -0.2457
     93  N         -1.9390  -43.0380  -18.1260 N.3    85  ARG85      -0.1245
     94  CA        -1.6480  -43.1040  -19.5680 C.3    85  ARG85       0.1563
     95  C         -0.6170  -44.1900  -19.8740 C.2    85  ARG85       0.2260
     96  O         -0.7230  -44.8850  -20.8830 O.2    85  ARG85      -0.2867
     97  CB        -1.2100  -41.7460  -20.1080 C.3    85  ARG85       0.0307
     98  CG        -2.3570  -40.7600  -19.9970 C.3    85  ARG85       0.0489
     99  CD        -1.9520  -39.3570  -20.4730 C.3    85  ARG85       0.2205
    100  NE        -3.0130  -38.3990  -20.1310 N.pl3  85  ARG85      -0.0865
    101  CZ        -2.9940  -37.1060  -20.4400 C.cat  85  ARG85       0.5346
    102  NH1       -1.9830  -36.5910  -21.1330 N.pl3  85  ARG85       0.1354
    103  NH2       -4.0090  -36.3270  -20.0700 N.pl3  85  ARG85       0.1354
@<TRIPOS>BOND
     1    10     9   ar
     2    10     8   ar
     3    27    26    1
     4     9     7   ar
     5    26    23    1
     6     1     2    1
     7     8     6   ar
     8     7     6   ar
     9     2     3    1
    10     2     5    1
    11     6     5    1
    12    23    22    1
    13    23    24    1
    14     3     4    2
    15     3    11   am
    16   102   101    1
    17    22    13   am
    18    96    95    2
    19    11    12    1
    20    99   100    1
    21    99    98    1
    22    28    29    1
    23   101   100    2
    24   101   103    1
    25    24    25    2
    26    97    98    1
    27    97    94    1
    28    13    14    2
    29    13    12    1
    30    95    94    1
    31    35    33   ar
    32    29    32    1
    33    29    30    1
    34    12    15    1
    35    94    93    1
    36    32    33    1
    37    33    34   ar
    38    30    31    2
    39    45    44    1
    40    92    90   ar
    41    15    16    1
    42    17    16   ar
    43    17    19   ar
    44    16    18   ar
    45    19    21   ar
    46    18    20   ar
    47    90    89    1
    48    90    91   ar
    49    44    43    2
    50    44    46    1
    51    21    20   ar
    52    89    88    1
    53    87    86    2
    54    43    42    1
    55    53    55   ar
    56    53    52   ar
    57    51    52    1
    58    51    48    1
    59    55    57   ar
    60    52    54   ar
    61    57    56   ar
    62    36    37    1
    63    54    56   ar
    64    86    85    1
    65    47    48    1
    66    47    38   am
    67    88    85    1
    68    42    41    1
    69    48    49    1
    70    41    40    1
    71    40    37    1
    72    85    84    1
    73    37    38    1
    74    38    39    2
    75    83    81    1
    76    49    50    2
    77    79    78    2
    78    82    81    1
    79    81    80    1
    80    80    77    1
    81    78    77    1
    82    77    76    1
    83    74    73    2
    84    62    59    1
    85    76    73   am
    86    73    72    1
    87    59    58    1
    88    59    60    1
    89    75    72    1
    90    72    71    1
    91    66    65    2
    92    60    61    2
    93    60    63   am
    94    63    64    1
    95    65    64    1
    96    64    67    1
    97    67    68    1
    98    68    69   ar
    99    68    70   ar
