@<TRIPOS>MOLECULE
tmp/3qhdA01.pdb
 99 98 0 0 0
SMALL
GASTEIGER

@<TRIPOS>ATOM
      1  N         14.7190  -32.6300  -13.7170 N.3    10  ASP10      -0.1225
      2  CA        14.0380  -31.3280  -13.5620 C.3    10  ASP10       0.1805
      3  C         14.8210  -30.3970  -12.6500 C.2    10  ASP10       0.2598
      4  O         15.6230  -30.8430  -11.8500 O.2    10  ASP10      -0.2718
      5  CB        12.6280  -31.5520  -13.0090 C.3    10  ASP10       0.1424
      6  CG        11.7230  -30.3600  -13.1920 C.2    10  ASP10       0.3668
      7  OD1       12.0020  -29.4860  -14.0540 O.co2  10  ASP10      -0.2456
      8  OD2       10.6660  -30.3230  -12.4940 O.co2  10  ASP10      -0.2456
      9  N         14.6280  -29.0940  -12.8220 N.am   11  VAL11      -0.1966
     10  CA        15.2200  -28.1150  -11.9030 C.3    11  VAL11       0.1727
     11  C         14.2660  -26.9190  -11.7970 C.2    11  VAL11       0.2616
     12  O         13.6440  -26.5440  -12.7910 O.2    11  VAL11      -0.2715
     13  CB        16.6690  -27.6910  -12.3450 C.3    11  VAL11       0.0290
     14  CG1       16.6520  -26.8850  -13.6370 C.3    11  VAL11       0.0023
     15  CG2       17.3570  -26.8680  -11.2680 C.3    11  VAL11       0.0023
     16  N         14.1210  -26.3550  -10.5950 N.am   12  HIS12      -0.1973
     17  CA        13.3700  -25.1040  -10.4390 C.3    12  HIS12       0.1656
     18  C         14.1450  -24.1820   -9.5320 C.2    12  HIS12       0.2291
     19  O         14.8460  -24.6400   -8.6150 O.2    12  HIS12      -0.2864
     20  CB        12.0130  -25.3580   -9.7530 C.3    12  HIS12       0.0771
     21  CG        11.0030  -26.0300  -10.6330 C.ar   12  HIS12       0.0820
     22  ND1       10.0430  -25.3220  -11.3220 N.ar   12  HIS12      -0.2267
     23  CD2       10.8200  -27.3310  -10.9550 C.ar   12  HIS12       0.1154
     24  CE1        9.2880  -26.1660  -12.0100 C.ar   12  HIS12       0.1986
     25  NE2        9.7500  -27.3880  -11.8180 N.ar   12  HIS12      -0.2212
     26  N          4.8720  -22.6550  -12.8670 N.3    36  HIS36      -0.1226
     27  CA         3.4450  -22.3840  -13.0890 C.3    36  HIS36       0.1752
     28  C          2.5470  -23.3680  -12.3330 C.2    36  HIS36       0.2596
     29  O          1.4820  -22.9770  -11.8580 O.2    36  HIS36      -0.2718
     30  CB         3.0760  -22.3340  -14.5790 C.3    36  HIS36       0.0759
     31  CG         1.8240  -21.5590  -14.8640 C.ar   36  HIS36       0.0818
     32  ND1        0.7820  -22.0690  -15.6110 N.ar   36  HIS36      -0.2268
     33  CD2        1.4400  -20.3150  -14.4880 C.ar   36  HIS36       0.1154
     34  CE1       -0.1820  -21.1700  -15.6930 C.ar   36  HIS36       0.1986
     35  NE2        0.1900  -20.0980  -15.0150 N.ar   36  HIS36      -0.2212
     36  N          2.9590  -24.6610  -12.1690 N.am   37  SER37      -0.1952
     37  CA         2.2640  -25.5960  -11.3330 C.3    37  SER37       0.1924
     38  C          2.7540  -25.4100   -9.9240 C.2    37  SER37       0.2314
     39  O          3.3070  -24.4160   -9.5910 O.2    37  SER37      -0.2863
     40  CB         2.5650  -27.0530  -11.7380 C.3    37  SER37       0.2116
     41  OG         3.9350  -27.3220  -11.6380 O.3    37  SER37      -0.2180
     42  N          7.9060  -34.1270  -11.0980 N.3    44  HIS44      -0.1241
     43  CA         8.0750  -33.8620  -12.5260 C.3    44  HIS44       0.1621
     44  C          9.1400  -34.7690  -13.1460 C.2    44  HIS44       0.2264
     45  O          8.9370  -35.3160  -14.2490 O.2    44  HIS44      -0.2867
     46  CB         8.4270  -32.3970  -12.8080 C.3    44  HIS44       0.0745
     47  CG         7.3410  -31.4450  -12.4280 C.ar   44  HIS44       0.0817
     48  ND1        7.5060  -30.0770  -12.4320 N.ar   44  HIS44      -0.2268
     49  CD2        6.0710  -31.6690  -12.0140 C.ar   44  HIS44       0.1154
     50  CE1        6.3920  -29.4970  -12.0250 C.ar   44  HIS44       0.1986
     51  NE2        5.5000  -30.4420  -11.7750 N.ar   44  HIS44      -0.2212
     52  N          6.5500  -34.5320  -20.2850 N.3    59  ILE59      -0.1231
     53  CA         5.4990  -33.9530  -19.4790 C.3    59  ILE59       0.1692
     54  C          4.7990  -32.7470  -20.1570 C.2    59  ILE59       0.2592
     55  O          3.6010  -32.5190  -19.9860 O.2    59  ILE59      -0.2718
     56  CB         6.1050  -33.6060  -18.0730 C.3    59  ILE59       0.0266
     57  CG1        5.0060  -33.2960  -17.0600 C.3    59  ILE59       0.0019
     58  CG2        7.2070  -32.5110  -18.2100 C.3    59  ILE59       0.0020
     59  CD1        5.5770  -33.0190  -15.6610 C.3    59  ILE59       0.0001
     60  N          5.5320  -32.0030  -20.9800 N.am   60  GLY60      -0.1957
     61  CA         4.9540  -30.8160  -21.6180 C.3    60  GLY60       0.1869
     62  C          4.0030  -31.2010  -22.7320 C.2    60  GLY60       0.2309
     63  O          3.0410  -30.4910  -23.0010 O.2    60  GLY60      -0.2863
     64  N          0.7580  -32.4240  -20.5450 N.3    63  PHE63      -0.1227
     65  CA         0.0910  -31.4680  -19.6690 C.3    63  PHE63       0.1736
     66  C          0.5160  -30.0840  -20.1010 C.2    63  PHE63       0.2596
     67  O          1.5920  -29.6080  -19.7390 O.2    63  PHE63      -0.2718
     68  CB         0.4620  -31.7380  -18.2010 C.3    63  PHE63       0.0547
     69  CG         0.2190  -33.1650  -17.7790 C.ar   63  PHE63      -0.0202
     70  CD1       -1.0700  -33.7040  -17.7920 C.ar   63  PHE63      -0.0042
     71  CD2        1.2680  -33.9730  -17.3410 C.ar   63  PHE63      -0.0042
     72  CE1       -1.2960  -35.0260  -17.4070 C.ar   63  PHE63      -0.0003
     73  CE2        1.0410  -35.2940  -16.9550 C.ar   63  PHE63      -0.0003
     74  CZ        -0.2490  -35.8230  -16.9820 C.ar   63  PHE63      -0.0000
     75  N         -0.3270  -29.4710  -20.9150 N.am   64  SER64      -0.1938
     76  CA        -0.0530  -28.1500  -21.4680 C.3    64  SER64       0.2055
     77  C         -0.2500  -27.0620  -20.4190 C.2    64  SER64       0.2643
     78  O         -1.2660  -27.0490  -19.7150 O.2    64  SER64      -0.2714
     79  CB        -0.9820  -27.9080  -22.6550 C.3    64  SER64       0.2130
     80  OG        -0.9360  -26.5730  -23.0990 O.3    64  SER64      -0.2179
     81  N          0.7210  -26.1580  -20.3170 N.am   65  ASP65      -0.1971
     82  CA         0.5680  -24.9960  -19.4520 C.3    65  ASP65       0.1709
     83  C         -0.4620  -23.9930  -19.9850 C.2    65  ASP65       0.2293
     84  O         -0.6780  -22.9450  -19.3660 O.2    65  ASP65      -0.2864
     85  CB         1.9140  -24.3310  -19.1010 C.3    65  ASP65       0.1436
     86  CG         2.7240  -23.9070  -20.3160 C.2    65  ASP65       0.3671
     87  OD1        2.3370  -24.1920  -21.4720 O.co2  65  ASP65      -0.2456
     88  OD2        3.7650  -23.2490  -20.0940 O.co2  65  ASP65      -0.2456
     89  N         -3.4940  -26.0490  -15.2720 N.3    70  PHE70      -0.1241
     90  CA        -2.0650  -26.1470  -15.0070 C.3    70  PHE70       0.1605
     91  C         -1.6150  -25.1810  -13.9200 C.2    70  PHE70       0.2264
     92  O         -0.7120  -25.4940  -13.1620 O.2    70  PHE70      -0.2867
     93  CB        -1.2320  -25.9230  -16.2780 C.3    70  PHE70       0.0534
     94  CG         0.1900  -26.4420  -16.1550 C.ar   70  PHE70      -0.0203
     95  CD1        0.4670  -27.7940  -16.3580 C.ar   70  PHE70      -0.0042
     96  CD2        1.2360  -25.5830  -15.8190 C.ar   70  PHE70      -0.0042
     97  CE1        1.7780  -28.2880  -16.2340 C.ar   70  PHE70      -0.0003
     98  CE2        2.5450  -26.0630  -15.6820 C.ar   70  PHE70      -0.0003
     99  CZ         2.8180  -27.4120  -15.8960 C.ar   70  PHE70      -0.0000
@<TRIPOS>BOND
     1    80    79    1
     2    63    62    2
     3    62    61    1
     4    79    76    1
     5    61    60    1
     6    87    86   ar
     7    76    75    1
     8    76    77    1
     9    60    54   am
    10    75    66   am
    11    64    65    1
    12    77    81   am
    13    77    78    2
    14    81    82    1
    15    86    88   ar
    16    86    85    1
    17    52    53    1
    18    54    55    2
    19    54    53    1
    20    66    67    2
    21    66    65    1
    22    83    82    1
    23    83    84    2
    24    65    68    1
    25    53    56    1
    26    82    85    1
    27    58    56    1
    28    68    69    1
    29    56    57    1
    30    70    69   ar
    31    70    72   ar
    32    69    71   ar
    33    72    74   ar
    34    71    73   ar
    35    57    59    1
    36    74    73   ar
    37    95    97   ar
    38    95    94   ar
    39    93    94    1
    40    93    90    1
    41    97    99   ar
    42    94    96   ar
    43    99    98   ar
    44    96    98   ar
    45    34    32   ar
    46    34    35   ar
    47    32    31   ar
    48    89    90    1
    49    35    33   ar
    50    90    91    1
    51    31    30    1
    52    31    33   ar
    53    30    27    1
    54    45    44    2
    55     7     6   ar
    56    91    92    2
    57     1     2    1
    58    14    13    1
    59     2     5    1
    60     2     3    1
    61     6     5    1
    62     6     8   ar
    63    44    43    1
    64    27    26    1
    65    27    28    1
    66     9     3   am
    67     9    10    1
    68    46    43    1
    69    46    47    1
    70    12    11    2
    71     3     4    2
    72    43    42    1
    73    48    47   ar
    74    48    50   ar
    75    47    49   ar
    76    13    10    1
    77    13    15    1
    78    28    36   am
    79    28    29    2
    80    36    37    1
    81    50    51   ar
    82    49    51   ar
    83    24    25   ar
    84    24    22   ar
    85    10    11    1
    86    25    23   ar
    87    11    16   am
    88    40    41    1
    89    40    37    1
    90    37    38    1
    91    22    21   ar
    92    23    21   ar
    93    21    20    1
    94    16    17    1
    95    17    20    1
    96    17    18    1
    97    38    39    2
    98    18    19    2
