@<TRIPOS>MOLECULE
tmp/3qhoC00.pdb
 251 250 0 0 0
SMALL
GASTEIGER

@<TRIPOS>ATOM
      1  N         55.4740   10.4810   30.5050 N.3    36  PHE36      -0.1241
      2  CA        56.3190   11.6950   30.3510 C.3    36  PHE36       0.1605
      3  C         55.8680   12.5970   29.2370 C.2    36  PHE36       0.2264
      4  O         55.0500   12.2280   28.3770 O.2    36  PHE36      -0.2867
      5  CB        57.8030   11.3140   30.2660 C.3    36  PHE36       0.0534
      6  CG        58.1910   10.6310   28.9620 C.ar   36  PHE36      -0.0203
      7  CD1       58.3980    9.2500   28.9290 C.ar   36  PHE36      -0.0042
      8  CD2       58.3830   11.3770   27.7920 C.ar   36  PHE36      -0.0042
      9  CE1       58.8000    8.6140   27.7330 C.ar   36  PHE36      -0.0003
     10  CE2       58.8020   10.7170   26.5760 C.ar   36  PHE36      -0.0003
     11  CZ        58.9970    9.3460   26.5950 C.ar   36  PHE36      -0.0000
     12  N         57.8350   17.5770   30.6790 N.3    39  GLU39      -0.1231
     13  CA        59.2070   18.0330   30.8420 C.3    39  GLU39       0.1699
     14  C         59.8670   18.3160   29.4850 C.2    39  GLU39       0.2592
     15  O         61.0500   18.7010   29.4360 O.2    39  GLU39      -0.2718
     16  CB        60.0300   17.0180   31.5930 C.3    39  GLU39       0.0402
     17  CG        60.6180   15.8480   30.7790 C.3    39  GLU39       0.1161
     18  CD        59.5850   14.7160   30.4920 C.2    39  GLU39       0.3649
     19  OE1       58.3510   14.9380   30.6670 O.co2  39  GLU39      -0.2457
     20  OE2       60.0730   13.6160   30.1040 O.co2  39  GLU39      -0.2457
     21  N         59.1090   18.1330   28.3890 N.am   40  THR40      -0.1953
     22  CA        59.6820   18.2710   27.0660 C.3    40  THR40       0.1897
     23  C         59.0660   19.5270   26.4420 C.2    40  THR40       0.2313
     24  O         58.2160   20.2060   27.0330 O.2    40  THR40      -0.2863
     25  CB        59.3240   17.0430   26.1690 C.3    40  THR40       0.1794
     26  OG1       57.9300   17.1260   25.9140 O.3    40  THR40      -0.2208
     27  CG2       59.6980   15.6890   26.7830 C.3    40  THR40       0.0378
     28  N         52.8910   13.0480   26.4530 N.3    46  HIS46      -0.1241
     29  CA        52.9020   12.6620   25.0520 C.3    46  HIS46       0.1621
     30  C         51.7990   11.6560   24.7730 C.2    46  HIS46       0.2264
     31  O         51.3510   10.9480   25.7230 O.2    46  HIS46      -0.2867
     32  CB        54.2170   12.0270   24.7850 C.3    46  HIS46       0.0745
     33  CG        55.3240   13.0140   24.6920 C.ar   46  HIS46       0.0817
     34  ND1       56.5730   12.6800   24.2170 N.ar   46  HIS46      -0.2268
     35  CD2       55.3680   14.3330   25.0090 C.ar   46  HIS46       0.1154
     36  CE1       57.3620   13.7420   24.2760 C.ar   46  HIS46       0.1986
     37  NE2       56.6510   14.7630   24.7320 N.ar   46  HIS46      -0.2212
     38  N         61.7560   16.9840   36.6160 N.3   122  HIS122     -0.1226
     39  CA        62.6660   16.1420   35.8410 C.3   122  HIS122      0.1752
     40  C         63.8010   16.9140   35.0950 C.2   122  HIS122      0.2595
     41  O         64.8340   16.3470   34.8360 O.2   122  HIS122     -0.2718
     42  CB        61.7950   15.4700   34.7840 C.3   122  HIS122      0.0759
     43  CG        62.3440   14.1990   34.2140 C.ar  122  HIS122      0.0818
     44  ND1       62.1360   12.9700   34.8040 N.ar  122  HIS122     -0.2268
     45  CD2       62.9320   13.9480   33.0100 C.ar  122  HIS122      0.1154
     46  CE1       62.6230   12.0230   34.0190 C.ar  122  HIS122      0.1986
     47  NE2       63.1340   12.5920   32.9310 N.ar  122  HIS122     -0.2212
     48  N         63.5040   18.1260   34.6570 N.am  123  ARG123     -0.1980
     49  CA        64.4440   18.9830   33.9080 C.3   123  ARG123      0.1597
     50  C         64.1800   20.3960   34.3390 C.2   123  ARG123      0.2287
     51  O         63.0550   20.7720   34.5750 O.2   123  ARG123     -0.2864
     52  CB        64.1380   18.9380   32.3890 C.3   123  ARG123      0.0334
     53  CG        64.3080   17.5570   31.7670 C.3   123  ARG123      0.0492
     54  CD        63.9230   17.6030   30.3220 C.3   123  ARG123      0.2205
     55  NE        64.2700   16.4090   29.5580 N.pl3 123  ARG123     -0.0865
     56  CZ        63.9230   16.2810   28.2810 C.cat 123  ARG123      0.5346
     57  NH1       63.2430   17.2840   27.6870 N.pl3 123  ARG123      0.1354
     58  NH2       64.3180   15.2200   27.5900 N.pl3 123  ARG123      0.1354
     59  N         68.0310   16.5570   30.8360 N.3   129  ILE129     -0.1245
     60  CA        68.2120   16.4720   32.3090 C.3   129  ILE129      0.1561
     61  C         69.5850   17.0130   32.7210 C.2   129  ILE129      0.2260
     62  O         70.6250   16.4070   32.3990 O.2   129  ILE129     -0.2867
     63  CB        68.1370   15.0300   32.8790 C.3   129  ILE129      0.0252
     64  CG1       66.8340   14.2750   32.4800 C.3   129  ILE129      0.0019
     65  CG2       68.5340   14.9800   34.4210 C.3   129  ILE129      0.0019
     66  CD1       67.0730   12.7690   32.4300 C.3   129  ILE129      0.0001
     67  N         65.0650   14.8280   39.2450 N.3   167  ASN167     -0.1225
     68  CA        65.3700   13.6200   38.5140 C.3   167  ASN167      0.1785
     69  C         66.8760   13.4420   38.2030 C.2   167  ASN167      0.2597
     70  O         67.5120   14.3470   37.6240 O.2   167  ASN167     -0.2718
     71  CB        64.5670   13.6310   37.1950 C.3   167  ASN167      0.1169
     72  CG        64.8360   12.3990   36.3170 C.2   167  ASN167      0.2627
     73  OD1       65.4630   12.5150   35.2340 O.2   167  ASN167     -0.2716
     74  ND2       64.3920   11.2190   36.7640 N.am  167  ASN167     -0.0877
     75  N         67.3980   12.3030   38.6140 N.am  168  GLU168     -0.1979
     76  CA        68.6800   11.7700   38.1580 C.3   168  GLU168      0.1602
     77  C         69.7900   12.8050   38.2870 C.2   168  GLU168      0.2287
     78  O         70.4070   13.1700   37.2850 O.2   168  GLU168     -0.2864
     79  CB        68.5030   11.2700   36.7050 C.3   168  GLU168      0.0415
     80  CG        67.8140    9.9260   36.7700 C.3   168  GLU168      0.1163
     81  CD        67.4920    9.3100   35.4290 C.2   168  GLU168      0.3649
     82  OE1       67.1110    8.0920   35.4010 O.co2 168  GLU168     -0.2457
     83  OE2       67.6360   10.0430   34.4220 O.co2 168  GLU168     -0.2457
     84  N         74.9240    9.6190   40.5330 N.3   222  GLN222     -0.1231
     85  CA        75.6740    8.6710   39.7250 C.3   222  GLN222      0.1698
     86  C         76.9760    8.2960   40.4400 C.2   222  GLN222      0.2592
     87  O         77.3000    7.1240   40.6030 O.2   222  GLN222     -0.2718
     88  CB        75.9590    9.2630   38.3520 C.3   222  GLN222      0.0381
     89  CG        76.8460    8.3490   37.4940 C.3   222  GLN222      0.0905
     90  CD        77.2220    8.9920   36.1760 C.2   222  GLN222      0.2608
     91  OE1       77.0380   10.2100   35.9890 O.2   222  GLN222     -0.2717
     92  NE2       77.7230    8.1890   35.2480 N.am  222  GLN222     -0.0878
     93  N         77.6860    9.3340   40.8850 N.am  223  PHE223     -0.1976
     94  CA        78.8050    9.2080   41.8150 C.3   223  PHE223      0.1639
     95  C         78.4790    9.8900   43.1350 C.2   223  PHE223      0.2290
     96  O         77.7570   10.9070   43.1770 O.2   223  PHE223     -0.2864
     97  CB        80.0830    9.8200   41.1660 C.3   223  PHE223      0.0560
     98  CG        80.4270    9.1950   39.8580 C.ar  223  PHE223     -0.0200
     99  CD1       80.7850    7.8390   39.7960 C.ar  223  PHE223     -0.0042
    100  CD2       80.3390    9.9440   38.6670 C.ar  223  PHE223     -0.0042
    101  CE1       81.1000    7.2430   38.5670 C.ar  223  PHE223     -0.0003
    102  CE2       80.6260    9.3720   37.4380 C.ar  223  PHE223     -0.0003
    103  CZ        80.9880    8.0210   37.3750 C.ar  223  PHE223     -0.0000
    104  N         81.6210    2.4870   40.3780 N.3   236  TYR236     -0.1227
    105  CA        81.6390    3.5090   39.3230 C.3   236  TYR236      0.1736
    106  C         80.6900    3.1890   38.1650 C.2   236  TYR236      0.2595
    107  O         80.6480    3.8960   37.1380 O.2   236  TYR236     -0.2718
    108  CB        83.0590    3.6810   38.7800 C.3   236  TYR236      0.0548
    109  CG        84.0770    3.9930   39.8560 C.ar  236  TYR236     -0.0200
    110  CD1       84.0490    5.2090   40.5400 C.ar  236  TYR236     -0.0009
    111  CD2       85.0720    3.0790   40.1730 C.ar  236  TYR236     -0.0009
    112  CE1       84.9920    5.4970   41.5350 C.ar  236  TYR236      0.0417
    113  CE2       86.0230    3.3510   41.1660 C.ar  236  TYR236      0.0417
    114  CZ        85.9740    4.5600   41.8380 C.ar  236  TYR236      0.1957
    115  OH        86.9180    4.8230   42.8140 O.3   236  TYR236     -0.2866
    116  N         79.9090    2.1310   38.3190 N.am  237  ASN237     -0.1960
    117  CA        79.0140    1.7130   37.2350 C.3   237  ASN237      0.1819
    118  C         77.5190    1.7810   37.6000 C.2   237  ASN237      0.2621
    119  O         76.7140    0.8900   37.1940 O.2   237  ASN237     -0.2715
    120  CB        79.4240    0.3240   36.7560 C.3   237  ASN237      0.1195
    121  CG        80.8420    0.3260   36.2140 C.2   237  ASN237      0.2630
    122  OD1       81.8000    0.0110   36.9350 O.2   237  ASN237     -0.2716
    123  ND2       80.9870    0.7860   34.9690 N.am  237  ASN237     -0.0877
    124  N         77.1650    2.7990   38.3920 N.am  238  ALA238     -0.1963
    125  CA        75.7620    3.0500   38.7300 C.3   238  ALA238      0.1728
    126  C         75.1170    3.9620   37.6920 C.2   238  ALA238      0.2616
    127  O         75.7670    4.8450   37.0680 O.2   238  ALA238     -0.2715
    128  CB        75.6410    3.6580   40.1130 C.3   238  ALA238      0.0334
    129  N         73.8090    3.8030   37.5530 N.am  239  TRP239     -0.1960
    130  CA        73.0150    4.6850   36.7130 C.3   239  TRP239      0.1771
    131  C         72.9290    6.0830   37.2430 C.2   239  TRP239      0.2619
    132  O         73.0310    6.2650   38.4110 O.2   239  TRP239     -0.2715
    133  CB        71.5920    4.0860   36.5940 C.3   239  TRP239      0.0590
    134  CG        71.6990    2.7770   36.0380 C.ar  239  TRP239      0.0006
    135  CD1       71.8550    1.5860   36.7250 C.ar  239  TRP239      0.0946
    136  CD2       71.8570    2.4720   34.6670 C.ar  239  TRP239      0.0152
    137  NE1       72.0080    0.5530   35.8390 N.ar  239  TRP239     -0.2442
    138  CE2       72.0410    1.0710   34.5680 C.ar  239  TRP239      0.0810
    139  CE3       71.8020    3.2320   33.4980 C.ar  239  TRP239      0.0012
    140  CZ2       72.1940    0.4330   33.3370 C.ar  239  TRP239      0.0191
    141  CZ3       71.9580    2.6010   32.2840 C.ar  239  TRP239      0.0001
    142  CH2       72.1370    1.2150   32.2030 C.ar  239  TRP239      0.0015
    143  N         72.6230    7.0700   36.4000 N.am  240  TRP240     -0.1974
    144  CA        72.2300    8.3730   36.9080 C.3   240  TRP240      0.1640
    145  C         71.0320    8.1180   37.8530 C.2   240  TRP240      0.2290
    146  O         70.1990    7.2490   37.5670 O.2   240  TRP240     -0.2864
    147  CB        71.7330    9.2230   35.7840 C.3   240  TRP240      0.0576
    148  CG        72.7330    9.5360   34.7040 C.ar  240  TRP240      0.0006
    149  CD1       74.0790    9.1970   34.6320 C.ar  240  TRP240      0.0946
    150  CD2       72.4380   10.2650   33.5260 C.ar  240  TRP240      0.0152
    151  NE1       74.6110    9.6970   33.4640 N.ar  240  TRP240     -0.2442
    152  CE2       73.6420   10.4080   32.8020 C.ar  240  TRP240      0.0810
    153  CE3       71.2840   10.9010   33.0580 C.ar  240  TRP240      0.0012
    154  CZ2       73.6940   11.0860   31.5880 C.ar  240  TRP240      0.0191
    155  CZ3       71.3420   11.5940   31.8710 C.ar  240  TRP240      0.0001
    156  CH2       72.5450   11.6580   31.1330 C.ar  240  TRP240      0.0015
    157  N         68.5810    0.4120   35.2350 N.3   266  PHE266     -0.1241
    158  CA        68.3040    0.0850   33.8740 C.3   266  PHE266      0.1605
    159  C         69.0890   -1.1380   33.3470 C.2   266  PHE266      0.2264
    160  O         69.9120   -1.7350   34.0570 O.2   266  PHE266     -0.2867
    161  CB        68.4600    1.3330   32.9830 C.3   266  PHE266      0.0534
    162  CG        67.3260    2.3090   33.0840 C.ar  266  PHE266     -0.0203
    163  CD1       66.1180    2.1010   32.3940 C.ar  266  PHE266     -0.0042
    164  CD2       67.4900    3.4640   33.8160 C.ar  266  PHE266     -0.0042
    165  CE1       65.0520    3.0770   32.4410 C.ar  266  PHE266     -0.0003
    166  CE2       66.4650    4.4370   33.8790 C.ar  266  PHE266     -0.0003
    167  CZ        65.2240    4.2340   33.1770 C.ar  266  PHE266     -0.0000
    168  N         69.8340    0.5920   27.6030 N.3   270  VAL270     -0.1231
    169  CA        70.0300    1.9930   27.9100 C.3   270  VAL270      0.1692
    170  C         71.5240    2.3500   27.8710 C.2   270  VAL270      0.2592
    171  O         71.9210    3.4130   27.3840 O.2   270  VAL270     -0.2718
    172  CB        69.4250    2.3670   29.2890 C.3   270  VAL270      0.0266
    173  CG1       69.8350    3.7660   29.7070 C.3   270  VAL270      0.0020
    174  CG2       67.9230    2.2970   29.1880 C.3   270  VAL270      0.0020
    175  N         72.3190    1.4460   28.3960 N.am  271  TYR271     -0.1976
    176  CA        73.7810    1.5550   28.3710 C.3   271  TYR271      0.1639
    177  C         74.3490    0.1610   28.5030 C.2   271  TYR271      0.2290
    178  O         73.8810   -0.6350   29.3210 O.2   271  TYR271     -0.2864
    179  CB        74.3100    2.4400   29.5040 C.3   271  TYR271      0.0560
    180  CG        75.8020    2.7420   29.3690 C.ar  271  TYR271     -0.0198
    181  CD1       76.2840    3.6870   28.4510 C.ar  271  TYR271     -0.0009
    182  CD2       76.7170    2.0480   30.1380 C.ar  271  TYR271     -0.0009
    183  CE1       77.6960    3.9450   28.3470 C.ar  271  TYR271      0.0417
    184  CE2       78.0970    2.2810   30.0300 C.ar  271  TYR271      0.0417
    185  CZ        78.5640    3.2200   29.1450 C.ar  271  TYR271      0.1957
    186  OH        79.9170    3.3830   29.1040 O.3   271  TYR271     -0.2866
    187  N         76.4990   -1.7240   30.2120 N.3   273  GLN273     -0.1245
    188  CA        77.3270   -1.8370   31.4390 C.3   273  GLN273      0.1566
    189  C         78.3080   -3.0340   31.3930 C.2   273  GLN273      0.2260
    190  O         77.9620   -4.0650   30.8380 O.2   273  GLN273     -0.2867
    191  CB        76.4540   -1.9720   32.7110 C.3   273  GLN273      0.0367
    192  CG        75.5280   -0.7940   33.0040 C.3   273  GLN273      0.0905
    193  CD        76.2360    0.4390   33.5120 C.2   273  GLN273      0.2608
    194  OE1       77.4380    0.4040   33.8450 O.2   273  GLN273     -0.2717
    195  NE2       75.5010    1.5560   33.5640 N.am  273  GLN273     -0.0878
    196  N         62.4880    4.4890   38.2630 N.3   309  GLU309     -0.1245
    197  CA        62.4880    4.2470   36.7990 C.3   309  GLU309      0.1567
    198  C         63.2460    2.9610   36.5850 C.2   309  GLU309      0.2260
    199  O         64.2540    2.7700   37.1960 O.2   309  GLU309     -0.2867
    200  CB        63.2390    5.3420   36.0080 C.3   309  GLU309      0.0388
    201  CG        62.5840    6.7220   35.9840 C.3   309  GLU309      0.1160
    202  CD        63.3600    7.7220   35.1010 C.2   309  GLU309      0.3649
    203  OE1       64.2150    7.2760   34.2960 O.co2 309  GLU309     -0.2457
    204  OE2       63.0830    8.9340   35.2000 O.co2 309  GLU309     -0.2457
    205  N         59.6010    2.6060   33.5080 N.3   344  TRP344     -0.1241
    206  CA        59.9170    3.6410   32.4780 C.3   344  TRP344      0.1605
    207  C         59.7450    2.9540   31.0830 C.2   344  TRP344      0.2264
    208  O         60.5480    2.1260   30.7220 O.2   344  TRP344     -0.2867
    209  CB        61.3550    4.2070   32.6500 C.3   344  TRP344      0.0550
    210  CG        61.5930    5.3310   31.6440 C.ar  344  TRP344      0.0003
    211  CD1       62.0430    5.2020   30.3510 C.ar  344  TRP344      0.0946
    212  CD2       61.2890    6.7250   31.8230 C.ar  344  TRP344      0.0152
    213  NE1       62.0310    6.4270   29.7270 N.ar  344  TRP344     -0.2442
    214  CE2       61.5860    7.3850   30.5940 C.ar  344  TRP344      0.0810
    215  CE3       60.8340    7.4970   32.9170 C.ar  344  TRP344      0.0012
    216  CZ2       61.4150    8.7990   30.4070 C.ar  344  TRP344      0.0191
    217  CZ3       60.6440    8.9190   32.7340 C.ar  344  TRP344      0.0001
    218  CH2       60.9690    9.5490   31.4920 C.ar  344  TRP344      0.0015
    219  N         57.3990    6.2820   23.1350 N.3   349  ASP349     -0.1225
    220  CA        58.3250    7.2160   22.3980 C.3   349  ASP349      0.1805
    221  C         59.5460    7.5240   23.2790 C.2   349  ASP349      0.2598
    222  O         60.0150    8.6570   23.4450 O.2   349  ASP349     -0.2718
    223  CB        57.5910    8.4380   21.8730 C.3   349  ASP349      0.1424
    224  CG        57.1110    9.3720   22.9450 C.2   349  ASP349      0.3668
    225  OD1       56.6710    8.8950   24.0190 O.co2 349  ASP349     -0.2456
    226  OD2       57.1190   10.6110   22.6910 O.co2 349  ASP349     -0.2456
    227  N         60.0280    6.4740   23.8980 N.am  350  SER350     -0.1938
    228  CA        61.2870    6.5120   24.6170 C.3   350  SER350      0.2055
    229  C         62.3390    5.7710   23.7620 C.2   350  SER350      0.2644
    230  O         62.2950    4.5250   23.6020 O.2   350  SER350     -0.2714
    231  CB        61.1550    5.8940   26.0090 C.3   350  SER350      0.2130
    232  OG        62.4080    5.7170   26.6380 O.3   350  SER350     -0.2179
    233  N         63.2810    6.5250   23.1850 N.am  351  GLY351     -0.1939
    234  CA        64.1610    5.9290   22.1510 C.3   351  GLY351      0.2014
    235  C         64.9180    4.6690   22.5550 C.2   351  GLY351      0.2639
    236  O         65.0510    3.7330   21.7530 O.2   351  GLY351     -0.2714
    237  N         65.4280    4.6100   23.7750 N.am  352  ASP352     -0.1957
    238  CA        66.2530    3.4920   24.1690 C.3   352  ASP352      0.1840
    239  C         65.5330    2.4230   24.9860 C.2   352  ASP352      0.2622
    240  O         66.1160    1.3540   25.2290 O.2   352  ASP352     -0.2715
    241  CB        67.4600    3.9420   25.0010 C.3   352  ASP352      0.1450
    242  CG        67.0580    4.8560   26.1790 C.2   352  ASP352      0.3671
    243  OD1       67.9510    5.2880   26.9530 O.co2 352  ASP352     -0.2456
    244  OD2       65.8460    5.1640   26.3230 O.co2 352  ASP352     -0.2456
    245  N         64.3190    2.7050   25.4740 N.am  353  THR353     -0.1951
    246  CA        63.6650    1.6860   26.3070 C.3   353  THR353      0.1897
    247  C         62.3650    1.2300   25.6990 C.2   353  THR353      0.2313
    248  O         61.8600    0.1770   26.0640 O.2   353  THR353     -0.2863
    249  CB        63.3040    2.2030   27.7200 C.3   353  THR353      0.1794
    250  OG1       62.3980    3.3000   27.6030 O.3   353  THR353     -0.2208
    251  CG2       64.5460    2.5270   28.5700 C.3   353  THR353      0.0378
@<TRIPOS>BOND
     1   236   235    2
     2   223   220    1
     3   223   224    1
     4   234   235    1
     5   234   233    1
     6   220   219    1
     7   220   221    1
     8   235   237   am
     9   226   224   ar
    10   224   225   ar
    11   233   229   am
    12   221   222    2
    13   221   227   am
    14   230   229    2
    15   229   228    1
    16   237   238    1
    17   227   228    1
    18   238   239    1
    19   238   241    1
    20    34    36   ar
    21    34    33   ar
    22    36    37   ar
    23   228   231    1
    24    33    32    1
    25    33    35   ar
    26    37    35   ar
    27    30    29    1
    28    30    31    2
    29    32    29    1
    30   239   240    2
    31   239   245   am
    32   241   242    1
    33    29    28    1
    34   245   246    1
    35   247   248    2
    36   247   246    1
    37    26    25    1
    38   231   232    1
    39    25    27    1
    40    25    22    1
    41   242   244   ar
    42   242   243   ar
    43   246   249    1
    44    23    24    2
    45    23    22    1
    46    10    11   ar
    47    10     8   ar
    48    11     9   ar
    49    22    21    1
    50   171   170    2
    51    58    56    1
    52   168   169    1
    53   250   249    1
    54    57    56    1
    55   249   251    1
    56     9     7   ar
    57     8     6   ar
    58   170   169    1
    59   170   175   am
    60   169   172    1
    61    56    55    2
    62   183   181   ar
    63   183   185   ar
    64   176   175    1
    65   176   177    1
    66   176   179    1
    67     4     3    2
    68    21    14   am
    69   181   180   ar
    70   177   178    2
    71     7     6   ar
    72     6     5    1
    73   186   185    1
    74   185   184   ar
    75   174   172    1
    76     3     2    1
    77   172   173    1
    78   180   179    1
    79   180   182   ar
    80    15    14    2
    81    14    13    1
    82    55    54    1
    83   213   211   ar
    84   213   214   ar
    85   184   182   ar
    86    20    18   ar
    87   187   188    1
    88     5     2    1
    89    54    53    1
    90   211   210   ar
    91     2     1    1
    92   216   214   ar
    93   216   218   ar
    94    18    19   ar
    95    18    17    1
    96   214   212   ar
    97    12    13    1
    98   208   207    2
    99    17    16    1
   100    59    60    1
   101   190   189    2
   102    13    16    1
   103   207   206    1
   104   156   154   ar
   105   156   155   ar
   106   189   188    1
   107   188   191    1
   108   218   217   ar
   109   154   152   ar
   110   210   212   ar
   111   210   209    1
   112    53    52    1
   113   212   215   ar
   114   155   153   ar
   115   142   141   ar
   116   142   140   ar
   117   141   139   ar
   118    60    61    1
   119    60    63    1
   120    52    49    1
   121   163   165   ar
   122   163   162   ar
   123    62    61    2
   124    66    64    1
   125   165   167   ar
   126   206   209    1
   127   206   205    1
   128    64    63    1
   129   191   192    1
   130   217   215   ar
   131   152   151   ar
   132   152   150   ar
   133    63    65    1
   134    47    45   ar
   135    47    46   ar
   136   161   162    1
   137   161   158    1
   138   192   193    1
   139    45    43   ar
   140   153   150   ar
   141   162   164   ar
   142   167   166   ar
   143   140   138   ar
   144   159   158    1
   145   159   160    2
   146   151   149   ar
   147   139   136   ar
   148   193   195   am
   149   193   194    2
   150   150   148   ar
   151   164   166   ar
   152   158   157    1
   153    49    50    1
   154    49    48    1
   155    46    44   ar
   156    43    42    1
   157    43    44   ar
   158   203   202   ar
   159    50    51    2
   160    83    81   ar
   161   138   136   ar
   162   138   137   ar
   163   149   148   ar
   164    48    40   am
   165   136   134   ar
   166   148   147    1
   167    42    39    1
   168    41    40    2
   169   123   121   am
   170    40    39    1
   171   202   204   ar
   172   202   201    1
   173    73    72    2
   174    92    90   am
   175    82    81   ar
   176    81    80    1
   177   147   144    1
   178   137   135   ar
   179    39    38    1
   180   201   200    1
   181    91    90    2
   182   200   197    1
   183   134   133    1
   184   134   135   ar
   185    90    89    1
   186   121   120    1
   187   121   122    2
   188    72    74   am
   189    72    71    1
   190   143   144    1
   191   143   131   am
   192   198   197    1
   193   198   199    2
   194   133   130    1
   195    79    80    1
   196    79    76    1
   197   130   131    1
   198   130   129    1
   199   120   117    1
   200   197   196    1
   201   144   145    1
   202   127   126    2
   203   107   106    2
   204   119   118    2
   205    71    68    1
   206   117   118    1
   207   117   116    1
   208   131   132    2
   209    78    77    2
   210   103   102   ar
   211   103   101   ar
   212   102   100   ar
   213    89    88    1
   214   129   126   am
   215   146   145    2
   216   118   124   am
   217    70    69    2
   218   126   125    1
   219    76    77    1
   220    76    75    1
   221   106   116   am
   222   106   105    1
   223    69    68    1
   224    69    75   am
   225    88    85    1
   226   124   125    1
   227    68    67    1
   228   101    99   ar
   229   100    98   ar
   230   125   128    1
   231   108   105    1
   232   108   109    1
   233   105   104    1
   234    85    86    1
   235    85    84    1
   236    99    98   ar
   237   109   111   ar
   238   109   110   ar
   239    98    97    1
   240   111   113   ar
   241    86    87    2
   242    86    93   am
   243   110   112   ar
   244    93    94    1
   245   113   114   ar
   246    97    94    1
   247   112   114   ar
   248    94    95    1
   249   114   115    1
   250    95    96    2
