@<TRIPOS>MOLECULE
tmp/3qhrB00.pdb
 217 214 0 0 0
SMALL
GASTEIGER

@<TRIPOS>ATOM
      1  N         10.9560  -42.4600   10.6050 N.3    42  ILE42      -0.1231
      2  CA         9.7410  -43.2490   10.6010 C.3    42  ILE42       0.1692
      3  C          9.3250  -43.5920    9.1750 C.2    42  ILE42       0.2591
      4  O          8.9490  -44.7290    8.8870 O.2    42  ILE42      -0.2718
      5  CB         8.5960  -42.5210   11.3430 C.3    42  ILE42       0.0266
      6  CG1        8.8310  -42.5740   12.8600 C.3    42  ILE42       0.0019
      7  CG2        7.2500  -43.1430   11.0050 C.3    42  ILE42       0.0020
      8  CD1        8.0110  -41.5350   13.6330 C.3    42  ILE42       0.0001
      9  N          9.3860  -42.5990    8.2930 N.am   43  LEU43      -0.1980
     10  CA         9.1020  -42.7920    6.8630 C.3    43  LEU43       0.1596
     11  C          9.9950  -43.8560    6.2000 C.2    43  LEU43       0.2287
     12  O          9.5160  -44.7610    5.4890 O.2    43  LEU43      -0.2864
     13  CB         9.2690  -41.4710    6.1180 C.3    43  LEU43       0.0297
     14  CG         9.0210  -41.5490    4.6070 C.3    43  LEU43       0.0022
     15  CD1        7.5730  -41.9430    4.2950 C.3    43  LEU43       0.0001
     16  CD2        9.3870  -40.2450    3.9230 C.3    43  LEU43       0.0001
     17  N         11.8270  -46.2100    7.6090 N.3    45  ASP45      -0.1225
     18  CA        11.6170  -47.5140    8.2400 C.3    45  ASP45       0.1805
     19  C         10.3640  -48.1780    7.6600 C.2    45  ASP45       0.2597
     20  O         10.3540  -49.3760    7.3880 O.2    45  ASP45      -0.2718
     21  CB        11.5180  -47.3780    9.7580 C.3    45  ASP45       0.1424
     22  CG        11.3180  -48.7210   10.4500 C.2    45  ASP45       0.3668
     23  OD1       12.3280  -49.3910   10.7400 O.co2  45  ASP45      -0.2456
     24  OD2       10.1520  -49.1190   10.6850 O.co2  45  ASP45      -0.2456
     25  N          9.3310  -47.3720    7.4370 N.am   46  TRP46      -0.1976
     26  CA         8.1210  -47.8180    6.7590 C.3    46  TRP46       0.1640
     27  C          8.4090  -48.2810    5.3240 C.2    46  TRP46       0.2290
     28  O          7.8930  -49.3150    4.8830 O.2    46  TRP46      -0.2864
     29  CB         7.0620  -46.6980    6.7530 C.3    46  TRP46       0.0576
     30  CG         5.8110  -47.0930    6.0350 C.ar   46  TRP46       0.0006
     31  CD1        4.9320  -48.0740    6.4000 C.ar   46  TRP46       0.0946
     32  CD2        5.3080  -46.5430    4.8120 C.ar   46  TRP46       0.0152
     33  NE1        3.9100  -48.1630    5.4860 N.ar   46  TRP46      -0.2442
     34  CE2        4.1130  -47.2300    4.5050 C.ar   46  TRP46       0.0810
     35  CE3        5.7530  -45.5450    3.9450 C.ar   46  TRP46       0.0012
     36  CZ2        3.3620  -46.9480    3.3750 C.ar   46  TRP46       0.0191
     37  CZ3        5.0000  -45.2610    2.8300 C.ar   46  TRP46       0.0001
     38  CH2        3.8190  -45.9540    2.5530 C.ar   46  TRP46       0.0015
     39  N          9.7170  -51.6550    5.1770 N.3    49  GLU49      -0.1245
     40  CA         8.6850  -52.6760    5.3380 C.3    49  GLU49       0.1567
     41  C          7.9300  -52.8400    4.0340 C.2    49  GLU49       0.2260
     42  O          7.6240  -53.9570    3.6350 O.2    49  GLU49      -0.2867
     43  CB         7.6920  -52.3290    6.4630 C.3    49  GLU49       0.0388
     44  CG         8.2280  -52.4890    7.8650 C.3    49  GLU49       0.1160
     45  CD         7.1430  -52.3270    8.9400 C.2    49  GLU49       0.3649
     46  OE1        6.2660  -51.4430    8.7860 O.co2  49  GLU49      -0.2457
     47  OE2        7.1660  -53.0930    9.9340 O.co2  49  GLU49      -0.2457
     48  N          7.3330  -56.2650    1.9520 N.3    53  GLU53      -0.1231
     49  CA         6.0280  -56.7450    1.5240 C.3    53  GLU53       0.1699
     50  C          6.0180  -57.0260    0.0290 C.2    53  GLU53       0.2592
     51  O          5.5320  -58.0650   -0.3850 O.2    53  GLU53      -0.2718
     52  CB         4.9020  -55.7470    1.8440 C.3    53  GLU53       0.0402
     53  CG         4.9760  -55.0600    3.2090 C.3    53  GLU53       0.1161
     54  CD         4.6380  -55.9780    4.3760 C.2    53  GLU53       0.3649
     55  OE1        4.3170  -55.4600    5.4690 O.co2  53  GLU53      -0.2457
     56  OE2        4.6940  -57.2140    4.2020 O.co2  53  GLU53      -0.2457
     57  N          6.5380  -56.1010   -0.7810 N.am   54  TYR54      -0.1962
     58  CA         6.4550  -56.2370   -2.2450 C.3    54  TYR54       0.1771
     59  C          7.6730  -56.8840   -2.9070 C.2    54  TYR54       0.2619
     60  O          7.7420  -56.9900   -4.1360 O.2    54  TYR54      -0.2715
     61  CB         6.1000  -54.8980   -2.9050 C.3    54  TYR54       0.0574
     62  CG         4.6660  -54.5480   -2.6370 C.ar   54  TYR54      -0.0198
     63  CD1        3.6540  -54.9890   -3.4860 C.ar   54  TYR54      -0.0009
     64  CD2        4.3090  -53.8370   -1.4970 C.ar   54  TYR54      -0.0009
     65  CE1        2.3280  -54.7100   -3.2110 C.ar   54  TYR54       0.0417
     66  CE2        2.9930  -53.5490   -1.2210 C.ar   54  TYR54       0.0417
     67  CZ         2.0110  -53.9790   -2.0790 C.ar   54  TYR54       0.1957
     68  OH         0.7010  -53.6840   -1.8020 O.3    54  TYR54      -0.2866
     69  N          8.6090  -57.3460   -2.0830 N.am   55  LYS55      -0.1963
     70  CA         9.8120  -58.0040   -2.5800 C.3    55  LYS55       0.1728
     71  C         10.5430  -57.1370   -3.6080 C.2    55  LYS55       0.2616
     72  O         10.9620  -57.6180   -4.6480 O.2    55  LYS55      -0.2715
     73  CB         9.4630  -59.3940   -3.1390 C.3    55  LYS55       0.0311
     74  CG         8.7190  -60.2710   -2.1060 C.3    55  LYS55       0.0038
     75  CD         8.3780  -61.6420   -2.6670 C.3    55  LYS55       0.0206
     76  CE         7.5970  -62.4700   -1.6580 C.3    55  LYS55       0.1093
     77  NZ         8.3080  -62.5870   -0.3520 N.3    55  LYS55      -0.1314
     78  N         10.6830  -55.8530   -3.2920 N.am   56  LEU56      -0.1963
     79  CA        11.4550  -54.9310   -4.1010 C.3    56  LEU56       0.1728
     80  C         12.9490  -55.0720   -3.7970 C.2    56  LEU56       0.2616
     81  O         13.3410  -55.4460   -2.6880 O.2    56  LEU56      -0.2715
     82  CB        10.9970  -53.4830   -3.8410 C.3    56  LEU56       0.0311
     83  CG         9.4840  -53.2910   -3.9770 C.3    56  LEU56       0.0022
     84  CD1        9.0350  -51.8490   -3.7520 C.3    56  LEU56       0.0001
     85  CD2        9.0130  -53.7930   -5.3200 C.3    56  LEU56       0.0001
     86  N         13.7740  -54.7540   -4.7870 N.am   57  GLN57      -0.1977
     87  CA        15.2240  -54.7600   -4.6400 C.3    57  GLN57       0.1601
     88  C         15.6530  -53.7300   -3.6120 C.2    57  GLN57       0.2287
     89  O         15.0130  -52.6980   -3.4510 O.2    57  GLN57      -0.2864
     90  CB        15.8700  -54.3930   -5.9760 C.3    57  GLN57       0.0394
     91  CG        15.6150  -55.4090   -7.0970 C.3    57  GLN57       0.0908
     92  CD        16.1610  -56.7760   -6.7450 C.2    57  GLN57       0.2608
     93  OE1       17.3540  -56.9360   -6.4810 O.2    57  GLN57      -0.2717
     94  NE2       15.2900  -57.7740   -6.7550 N.am   57  GLN57      -0.0878
     95  N          3.7810  -32.3620    7.7450 N.3    79  ARG79      -0.1245
     96  CA         3.8710  -33.7320    8.2240 C.3    79  ARG79       0.1563
     97  C          2.8000  -34.6690    7.6520 C.2    79  ARG79       0.2260
     98  O          3.0660  -35.8490    7.4060 O.2    79  ARG79      -0.2867
     99  CB         3.8410  -33.7690    9.7440 C.3    79  ARG79       0.0307
    100  CG         2.4720  -33.5410   10.3530 C.3    79  ARG79       0.0489
    101  CD         2.5790  -33.3680   11.8580 C.3    79  ARG79       0.2205
    102  NE         3.3240  -32.1610   12.2120 N.pl3  79  ARG79      -0.0865
    103  CZ         3.7990  -31.9000   13.4280 C.cat  79  ARG79       0.5346
    104  NH1        3.6230  -32.7710   14.4260 N.pl3  79  ARG79       0.1354
    105  NH2        4.4590  -30.7720   13.6460 N.pl3  79  ARG79       0.1354
    106  N          4.1630  -38.7200    4.0350 N.3    83  GLN83      -0.1245
    107  CA         4.0210  -40.0970    3.5780 C.3    83  GLN83       0.1566
    108  C          3.6620  -40.1460    2.0970 C.2    83  GLN83       0.2260
    109  O          3.9760  -41.1170    1.4040 O.2    83  GLN83      -0.2867
    110  CB         2.9810  -40.8600    4.3960 C.3    83  GLN83       0.0367
    111  CG         2.8190  -42.3350    3.9640 C.3    83  GLN83       0.0905
    112  CD         1.8760  -43.1190    4.8720 C.2    83  GLN83       0.2608
    113  OE1        0.9960  -42.5540    5.5100 O.2    83  GLN83      -0.2717
    114  NE2        2.0630  -44.4290    4.9270 N.am   83  GLN83      -0.0878
    115  N         12.7290  -51.6520  -11.0050 N.3    98  GLU98      -0.1231
    116  CA        12.1190  -52.9850  -10.9720 C.3    98  GLU98       0.1699
    117  C         11.7290  -53.4840  -12.3400 C.2    98  GLU98       0.2592
    118  O         11.4120  -52.7120  -13.2390 O.2    98  GLU98      -0.2718
    119  CB        10.8700  -53.0190  -10.0600 C.3    98  GLU98       0.0402
    120  CG        11.1390  -52.7120   -8.5940 C.3    98  GLU98       0.1161
    121  CD        11.9130  -53.8080   -7.8790 C.2    98  GLU98       0.3649
    122  OE1       11.8100  -54.9850   -8.2870 O.co2  98  GLU98      -0.2457
    123  OE2       12.6130  -53.4940   -6.8930 O.co2  98  GLU98      -0.2457
    124  N         11.7560  -54.7970  -12.4990 N.am   99  ILE99      -0.1966
    125  CA        11.1710  -55.4080  -13.6760 C.3    99  ILE99       0.1727
    126  C          9.6630  -55.2350  -13.5810 C.2    99  ILE99       0.2616
    127  O          9.0190  -54.7760  -14.5200 O.2    99  ILE99      -0.2715
    128  CB        11.5220  -56.9060  -13.7340 C.3    99  ILE99       0.0290
    129  CG1       13.0440  -57.0820  -13.6730 C.3    99  ILE99       0.0022
    130  CG2       10.9270  -57.5440  -14.9730 C.3    99  ILE99       0.0023
    131  CD1       13.5100  -58.5340  -13.8750 C.3    99  ILE99       0.0001
    132  N          9.1150  -55.5940  -12.4200 N.am  100  TYR100     -0.1960
    133  CA         7.6790  -55.4850  -12.1550 C.3   100  TYR100      0.1756
    134  C          7.3620  -54.4730  -11.0480 C.2   100  TYR100      0.2461
    135  O          7.2590  -54.8240   -9.8730 O.2   100  TYR100     -0.2730
    136  CB         7.0880  -56.8600  -11.8000 C.3   100  TYR100      0.0574
    137  CG         7.2460  -57.8610  -12.9220 C.ar  100  TYR100     -0.0198
    138  CD1        6.5320  -57.7100  -14.1050 C.ar  100  TYR100     -0.0009
    139  CD2        8.1250  -58.9380  -12.8100 C.ar  100  TYR100     -0.0009
    140  CE1        6.6720  -58.6000  -15.1390 C.ar  100  TYR100      0.0417
    141  CE2        8.2710  -59.8490  -13.8450 C.ar  100  TYR100      0.0417
    142  CZ         7.5410  -59.6690  -15.0060 C.ar  100  TYR100      0.1957
    143  OH         7.6720  -60.5480  -16.0510 O.3   100  TYR100     -0.2866
    144  N          7.2020  -53.2040  -11.4190 N.am  101  PRO101     -0.2716
    145  CA         6.8180  -52.2500  -10.3760 C.3   101  PRO101      0.1521
    146  C          5.3950  -52.5430   -9.8820 C.2   101  PRO101      0.2440
    147  O          4.5340  -52.9360  -10.6700 O.2   101  PRO101     -0.2731
    148  CB         6.8980  -50.8930  -11.0930 C.3   101  PRO101      0.0310
    149  CG         6.7190  -51.2130  -12.5220 C.3   101  PRO101      0.0237
    150  CD         7.3580  -52.5680  -12.7340 C.3   101  PRO101      0.0939
    151  N          5.1450  -52.3560   -8.5820 N.am  102  PRO102     -0.2716
    152  CA         3.7640  -52.5610   -8.1410 C.3   102  PRO102      0.1536
    153  C          2.8920  -51.5060   -8.7830 C.2   102  PRO102      0.2598
    154  O          3.3890  -50.4250   -9.0760 O.2   102  PRO102     -0.2715
    155  CB         3.8450  -52.3500   -6.6300 C.3   102  PRO102      0.0310
    156  CG         5.2930  -52.5480   -6.2790 C.3   102  PRO102      0.0237
    157  CD         6.0360  -52.0000   -7.4680 C.3   102  PRO102      0.0939
    158  N          1.6210  -51.7930   -9.0180 N.am  103  GLU103     -0.1978
    159  CA         0.7750  -50.7780   -9.6210 C.3   103  GLU103      0.1602
    160  C          0.3720  -49.7110   -8.6000 C.2   103  GLU103      0.2287
    161  O          0.4830  -49.9130   -7.3870 O.2   103  GLU103     -0.2864
    162  CB        -0.4320  -51.3980  -10.3240 C.3   103  GLU103      0.0415
    163  CG        -1.3280  -52.2370   -9.4590 C.3   103  GLU103      0.1163
    164  CD        -2.4560  -52.8600  -10.2650 C.2   103  GLU103      0.3649
    165  OE1       -3.5000  -52.1970  -10.4550 O.co2 103  GLU103     -0.2457
    166  OE2       -2.2930  -54.0060  -10.7240 O.co2 103  GLU103     -0.2457
    167  N         -2.0020  -50.4990   -5.7060 N.3   106  GLU106     -0.1245
    168  CA        -1.3530  -51.2020   -4.6210 C.3   106  GLU106      0.1567
    169  C         -0.6410  -50.2500   -3.6610 C.2   106  GLU106      0.2260
    170  O         -0.6610  -50.4480   -2.4590 O.2   106  GLU106     -0.2867
    171  CB        -0.4020  -52.2420   -5.1810 C.3   106  GLU106      0.0388
    172  CG        -0.6070  -53.5990   -4.5830 C.3   106  GLU106      0.1160
    173  CD        -0.3440  -54.6980   -5.5700 C.2   106  GLU106      0.3649
    174  OE1       -0.1020  -54.3940   -6.7510 O.co2 106  GLU106     -0.2457
    175  OE2       -0.3800  -55.8660   -5.1600 O.co2 106  GLU106     -0.2457
    176  N         -3.1870  -48.7070   -1.5350 N.3   109  TYR109     -0.1227
    177  CA        -3.5660  -49.6710   -0.5110 C.3   109  TYR109      0.1736
    178  C         -2.5970  -49.7340    0.6730 C.2   109  TYR109      0.2595
    179  O         -3.0340  -49.7290    1.8100 O.2   109  TYR109     -0.2718
    180  CB        -3.7530  -51.0620   -1.1130 C.3   109  TYR109      0.0548
    181  CG        -3.6440  -52.1660   -0.1010 C.ar  109  TYR109     -0.0200
    182  CD1       -4.6980  -52.4550    0.7490 C.ar  109  TYR109     -0.0009
    183  CD2       -2.4790  -52.9210    0.0090 C.ar  109  TYR109     -0.0009
    184  CE1       -4.6010  -53.4640    1.6780 C.ar  109  TYR109      0.0417
    185  CE2       -2.3740  -53.9430    0.9360 C.ar  109  TYR109      0.0417
    186  CZ        -3.4420  -54.2060    1.7680 C.ar  109  TYR109      0.1957
    187  OH        -3.3600  -55.2110    2.6970 O.3   109  TYR109     -0.2866
    188  N         -1.2870  -49.7900    0.4400 N.am  110  ILE110     -0.1966
    189  CA        -0.3980  -49.8890    1.6000 C.3   110  ILE110      0.1727
    190  C         -0.2920  -48.6260    2.4370 C.2   110  ILE110      0.2617
    191  O          0.2500  -48.6900    3.5370 O.2   110  ILE110     -0.2715
    192  CB         1.0360  -50.4380    1.3110 C.3   110  ILE110      0.0290
    193  CG1        1.6020  -49.8550    0.0290 C.3   110  ILE110      0.0022
    194  CG2        1.0640  -51.9670    1.3550 C.3   110  ILE110      0.0023
    195  CD1        2.1290  -48.4870    0.2160 C.3   110  ILE110      0.0001
    196  N         -0.7850  -47.4890    1.9360 N.am  111  THR111     -0.1937
    197  CA        -0.9910  -46.3270    2.8200 C.3   111  THR111      0.2028
    198  C         -2.3470  -46.3880    3.5400 C.2   111  THR111      0.2642
    199  O         -2.6990  -45.4780    4.2830 O.2   111  THR111     -0.2714
    200  CB        -0.9000  -44.9630    2.0910 C.3   111  THR111      0.1808
    201  OG1       -2.1100  -44.7150    1.3590 O.3   111  THR111     -0.2208
    202  CG2        0.3280  -44.8990    1.1660 C.3   111  THR111      0.0379
    203  N         -3.1000  -47.4620    3.3110 N.am  112  ASP112     -0.1971
    204  CA        -4.4180  -47.6390    3.9020 C.3   112  ASP112      0.1709
    205  C         -5.3740  -46.5310    3.4780 C.2   112  ASP112      0.2293
    206  O         -6.1240  -45.9870    4.3060 O.2   112  ASP112     -0.2864
    207  CB        -4.3230  -47.7330    5.4320 C.3   112  ASP112      0.1436
    208  CG        -5.5850  -48.3090    6.0630 C.2   112  ASP112      0.3671
    209  OD1       -6.2920  -49.0910    5.3860 O.co2 112  ASP112     -0.2456
    210  OD2       -5.8670  -47.9820    7.2370 O.co2 112  ASP112     -0.2456
    211  N         -4.8320  -43.5480    2.7940 N.3   114  THR114     -0.1218
    212  CA        -4.5520  -42.2240    3.3360 C.3   114  THR114      0.1862
    213  C         -4.5700  -41.1900    2.2090 C.2   114  THR114      0.2287
    214  O         -4.9490  -40.0430    2.4160 O.2   114  THR114     -0.2866
    215  CB        -3.1930  -42.1930    4.0210 C.3   114  THR114      0.1770
    216  OG1       -3.1890  -43.1330    5.0960 O.3   114  THR114     -0.2211
    217  CG2       -2.8760  -40.7900    4.5470 C.3   114  THR114      0.0375
@<TRIPOS>BOND
     1   143   142    1
     2   140   142   ar
     3   140   138   ar
     4   142   141   ar
     5   130   128    1
     6   127   126    2
     7   138   137   ar
     8   131   129    1
     9   141   139   ar
    10   128   125    1
    11   128   129    1
    12   125   126    1
    13   125   124    1
    14   126   132   am
    15   118   117    2
    16   137   139   ar
    17   137   136    1
    18   150   149    1
    19   150   144    1
    20   149   148    1
    21   124   117   am
    22   132   133    1
    23   117   116    1
    24   133   136    1
    25   133   134    1
    26   144   134   am
    27   144   145    1
    28   148   145    1
    29   134   135    2
    30   115   116    1
    31   116   119    1
    32   166   164   ar
    33   147   146    2
    34   165   164   ar
    35   145   146    1
    36   162   159    1
    37   162   163    1
    38   164   163    1
    39   119   120    1
    40   146   151   am
    41   159   158    1
    42   159   160    1
    43   154   153    2
    44   158   153   am
    45   153   152    1
    46   160   161    2
    47   120   121    1
    48   151   152    1
    49   151   157    1
    50   122   121   ar
    51   152   155    1
    52   121   123   ar
    53   157   156    1
    54    91    92    1
    55    91    90    1
    56    94    92   am
    57   174   173   ar
    58    92    93    2
    59   155   156    1
    60    90    87    1
    61   167   168    1
    62   173   175   ar
    63   173   172    1
    64    85    83    1
    65   171   168    1
    66   171   172    1
    67    86    87    1
    68    86    80   am
    69    72    71    2
    70    87    88    1
    71   168   169    1
    72    60    59    2
    73    79    82    1
    74    79    80    1
    75    79    78    1
    76    83    82    1
    77    83    84    1
    78    80    81    2
    79   169   170    2
    80    88    89    2
    81    71    78   am
    82    71    70    1
    83    63    65   ar
    84    63    62   ar
    85    65    67   ar
    86    73    70    1
    87    73    74    1
    88    59    58    1
    89    59    69   am
    90    61    62    1
    91    61    58    1
    92    75    74    1
    93    75    76    1
    94    62    64   ar
    95    70    69    1
    96    58    57    1
    97    67    68    1
    98    67    66   ar
    99    76    77    1
   100   176   177    1
   101    64    66   ar
   102   180   177    1
   103   180   181    1
   104    57    50   am
   105   177   178    1
   106    51    50    2
   107   181   183   ar
   108   181   182   ar
   109   183   185   ar
   110    50    49    1
   111   193   195    1
   112   193   192    1
   113   188   178   am
   114   188   189    1
   115   178   179    2
   116   182   184   ar
   117   185   186   ar
   118   202   200    1
   119   192   194    1
   120   192   189    1
   121   201   200    1
   122   109   108    2
   123    49    52    1
   124    49    48    1
   125   189   190    1
   126   184   186   ar
   127   186   187    1
   128    52    53    1
   129   196   190   am
   130   196   197    1
   131   200   197    1
   132   108   107    1
   133   213   214    2
   134   213   212    1
   135   190   191    2
   136    38    37   ar
   137    38    36   ar
   138   211   212    1
   139   197   198    1
   140    37    35   ar
   141    53    54    1
   142   203   198   am
   143   203   204    1
   144   212   215    1
   145    36    34   ar
   146   205   204    1
   147   205   206    2
   148   198   199    2
   149   107   106    1
   150   107   110    1
   151    42    41    2
   152   204   207    1
   153    16    14    1
   154    35    32   ar
   155   111   110    1
   156   111   112    1
   157   215   217    1
   158   215   216    1
   159    41    40    1
   160    56    54   ar
   161    15    14    1
   162    54    55   ar
   163    34    32   ar
   164    34    33   ar
   165    14    13    1
   166    32    30   ar
   167   112   114   am
   168   112   113    2
   169    28    27    2
   170    39    40    1
   171    27    26    1
   172    40    43    1
   173   209   208   ar
   174   207   208    1
   175    33    31   ar
   176    12    11    2
   177    30    31   ar
   178    30    29    1
   179   208   210   ar
   180    13    10    1
   181    11    10    1
   182    43    44    1
   183    29    26    1
   184    26    25    1
   185    10     9    1
   186    20    19    2
   187    98    97    2
   188    25    19   am
   189    17    18    1
   190    97    96    1
   191    19    18    1
   192    95    96    1
   193    44    45    1
   194    96    99    1
   195    18    21    1
   196     9     3   am
   197    46    45   ar
   198     4     3    2
   199    45    47   ar
   200     3     2    1
   201    99   100    1
   202    21    22    1
   203   100   101    1
   204    22    24   ar
   205    22    23   ar
   206     2     1    1
   207     2     5    1
   208     7     5    1
   209     5     6    1
   210   101   102    1
   211   102   103    2
   212     6     8    1
   213   103   105    1
   214   103   104    1
