@<TRIPOS>MOLECULE
tmp/3qhwB00.pdb
 109 105 0 0 0
SMALL
GASTEIGER

@<TRIPOS>ATOM
      1  N        -13.7740  -73.0250  -24.4410 N.3    42  ILE42      -0.1231
      2  CA       -15.0130  -73.7910  -24.4890 C.3    42  ILE42       0.1692
      3  C        -15.4080  -74.0920  -25.9430 C.2    42  ILE42       0.2591
      4  O        -15.7320  -75.2280  -26.2920 O.2    42  ILE42      -0.2718
      5  CB       -16.1560  -73.0470  -23.7560 C.3    42  ILE42       0.0266
      6  CG1      -15.9040  -73.0640  -22.2410 C.3    42  ILE42       0.0019
      7  CG2      -17.5210  -73.6700  -24.0910 C.3    42  ILE42       0.0020
      8  CD1      -16.8130  -72.0950  -21.4490 C.3    42  ILE42       0.0001
      9  N        -15.3630  -73.0760  -26.7860 N.am   43  LEU43      -0.1980
     10  CA       -15.6420  -73.2510  -28.2210 C.3    43  LEU43       0.1596
     11  C        -14.7480  -74.3000  -28.8830 C.2    43  LEU43       0.2287
     12  O        -15.2340  -75.2040  -29.5680 O.2    43  LEU43      -0.2864
     13  CB       -15.4800  -71.9260  -28.9710 C.3    43  LEU43       0.0297
     14  CG       -15.7400  -71.9830  -30.4870 C.3    43  LEU43       0.0022
     15  CD1      -17.2100  -72.3470  -30.8550 C.3    43  LEU43       0.0001
     16  CD2      -15.3230  -70.6690  -31.1650 C.3    43  LEU43       0.0001
     17  N        -12.9020  -76.6710  -27.5590 N.3    45  ASP45      -0.1225
     18  CA       -13.1390  -77.9730  -26.9450 C.3    45  ASP45       0.1805
     19  C        -14.3860  -78.6500  -27.5240 C.2    45  ASP45       0.2597
     20  O        -14.3870  -79.8590  -27.7830 O.2    45  ASP45      -0.2718
     21  CB       -13.2450  -77.8540  -25.4200 C.3    45  ASP45       0.1424
     22  CG       -13.4750  -79.2120  -24.7390 C.2    45  ASP45       0.3668
     23  OD1      -12.4780  -79.8970  -24.4060 O.co2  45  ASP45      -0.2456
     24  OD2      -14.6570  -79.5940  -24.5460 O.co2  45  ASP45      -0.2456
     25  N        -15.4400  -77.8610  -27.7200 N.am   46  TRP46      -0.1976
     26  CA       -16.6460  -78.3180  -28.4060 C.3    46  TRP46       0.1640
     27  C        -16.3720  -78.7520  -29.8720 C.2    46  TRP46       0.2290
     28  O        -16.8960  -79.7700  -30.3350 O.2    46  TRP46      -0.2864
     29  CB       -17.7350  -77.2260  -28.3510 C.3    46  TRP46       0.0576
     30  CG       -18.9860  -77.5940  -29.0910 C.ar   46  TRP46       0.0006
     31  CD1      -19.9050  -78.5550  -28.7370 C.ar   46  TRP46       0.0946
     32  CD2      -19.4550  -77.0270  -30.3250 C.ar   46  TRP46       0.0152
     33  NE1      -20.9070  -78.6130  -29.6810 N.ar   46  TRP46      -0.2442
     34  CE2      -20.6620  -77.6830  -30.6550 C.ar   46  TRP46       0.0810
     35  CE3      -18.9670  -76.0340  -31.1840 C.ar   46  TRP46       0.0012
     36  CZ2      -21.3920  -77.3670  -31.7970 C.ar   46  TRP46       0.0191
     37  CZ3      -19.6980  -75.7170  -32.3100 C.ar   46  TRP46       0.0001
     38  CH2      -20.8980  -76.3860  -32.6100 C.ar   46  TRP46       0.0015
     39  N        -15.1150  -82.1240  -30.0260 N.3    49  GLU49      -0.1245
     40  CA       -16.1570  -83.1420  -29.9150 C.3    49  GLU49       0.1567
     41  C        -16.9220  -83.2910  -31.2180 C.2    49  GLU49       0.2260
     42  O        -17.2820  -84.3930  -31.5930 O.2    49  GLU49      -0.2867
     43  CB       -17.1450  -82.8210  -28.7870 C.3    49  GLU49       0.0388
     44  CG       -16.5230  -82.7530  -27.4380 C.3    49  GLU49       0.1160
     45  CD       -17.5720  -82.6140  -26.3420 C.2    49  GLU49       0.3649
     46  OE1      -18.4510  -81.7280  -26.4660 O.co2  49  GLU49      -0.2457
     47  OE2      -17.5210  -83.4030  -25.3720 O.co2  49  GLU49      -0.2457
     48  N        -20.8880  -62.7280  -27.2980 N.3    79  ARG79      -0.1245
     49  CA       -20.7520  -64.1100  -26.8270 C.3    79  ARG79       0.1563
     50  C        -21.8200  -65.0610  -27.3860 C.2    79  ARG79       0.2260
     51  O        -21.5440  -66.2400  -27.5970 O.2    79  ARG79      -0.2867
     52  CB       -20.7310  -64.1500  -25.3050 C.3    79  ARG79       0.0307
     53  CG       -22.0980  -63.9290  -24.6700 C.3    79  ARG79       0.0489
     54  CD       -21.9870  -63.6980  -23.1740 C.3    79  ARG79       0.2205
     55  NE       -21.1860  -62.5210  -22.8520 N.pl3  79  ARG79      -0.0865
     56  CZ       -20.7210  -62.2540  -21.6360 C.cat  79  ARG79       0.5346
     57  NH1      -20.9650  -63.0840  -20.6300 N.pl3  79  ARG79       0.1354
     58  NH2      -20.0010  -61.1670  -21.4280 N.pl3  79  ARG79       0.1354
     59  N        -20.4990  -69.1800  -31.0960 N.3    83  GLN83      -0.1245
     60  CA       -20.6730  -70.5500  -31.5810 C.3    83  GLN83       0.1566
     61  C        -21.0540  -70.5680  -33.0640 C.2    83  GLN83       0.2260
     62  O        -20.7540  -71.5300  -33.7790 O.2    83  GLN83      -0.2867
     63  CB       -21.7260  -71.2890  -30.7660 C.3    83  GLN83       0.0367
     64  CG       -21.8460  -72.7710  -31.1430 C.3    83  GLN83       0.0905
     65  CD       -22.8650  -73.4910  -30.2770 C.2    83  GLN83       0.2608
     66  OE1      -23.7150  -72.8590  -29.6460 O.2    83  GLN83      -0.2717
     67  NE2      -22.7780  -74.8180  -30.2340 N.am   83  GLN83      -0.0878
     68  N        -27.9860  -79.0910  -36.6960 N.3   109  TYR109     -0.1227
     69  CA       -28.3450  -80.0670  -35.6700 C.3   109  TYR109      0.1736
     70  C        -27.3850  -80.0800  -34.4930 C.2   109  TYR109      0.2595
     71  O        -27.8090  -80.1220  -33.3480 O.2   109  TYR109     -0.2718
     72  CB       -28.4240  -81.4790  -36.2570 C.3   109  TYR109      0.0548
     73  CG       -28.3460  -82.5810  -35.2090 C.ar  109  TYR109     -0.0200
     74  CD1      -29.4180  -82.8470  -34.3600 C.ar  109  TYR109     -0.0009
     75  CD2      -27.1970  -83.3570  -35.0720 C.ar  109  TYR109     -0.0009
     76  CE1      -29.3420  -83.8510  -33.4070 C.ar  109  TYR109      0.0417
     77  CE2      -27.1150  -84.3670  -34.1150 C.ar  109  TYR109      0.0417
     78  CZ       -28.1850  -84.6100  -33.2930 C.ar  109  TYR109      0.1957
     79  OH       -28.0970  -85.6140  -32.3490 O.3   109  TYR109     -0.2866
     80  N        -26.0890  -80.0510  -34.7820 N.am  110  ILE110     -0.1966
     81  CA       -25.1050  -80.2390  -33.7360 C.3   110  ILE110      0.1727
     82  C        -25.0250  -79.0350  -32.7770 C.2   110  ILE110      0.2617
     83  O        -24.5090  -79.1690  -31.6810 O.2   110  ILE110     -0.2715
     84  CB       -23.7210  -80.6340  -34.3210 C.3   110  ILE110      0.0290
     85  CG1      -22.9940  -81.6070  -33.3810 C.3   110  ILE110      0.0022
     86  CG2      -22.8760  -79.4010  -34.6160 C.3   110  ILE110      0.0023
     87  CD1      -23.7920  -82.8640  -32.9900 C.3   110  ILE110      0.0001
     88  N        -25.5400  -77.8770  -33.1870 N.am  111  THR111     -0.1937
     89  CA       -25.7090  -76.7370  -32.2640 C.3   111  THR111      0.2028
     90  C        -27.0510  -76.8240  -31.5050 C.2   111  THR111      0.2642
     91  O        -27.3970  -75.9240  -30.7370 O.2   111  THR111     -0.2714
     92  CB       -25.6760  -75.3570  -32.9780 C.3   111  THR111      0.1808
     93  OG1      -26.8890  -75.1700  -33.7180 O.3   111  THR111     -0.2208
     94  CG2      -24.4470  -75.2150  -33.9160 C.3   111  THR111      0.0379
     95  N        -27.8090  -77.8940  -31.7370 N.am  112  ASP112     -0.1971
     96  CA       -29.1380  -78.0460  -31.1260 C.3   112  ASP112      0.1709
     97  C        -30.1110  -76.9240  -31.5220 C.2   112  ASP112      0.2293
     98  O        -30.8870  -76.4270  -30.6930 O.2   112  ASP112     -0.2864
     99  CB       -29.0300  -78.1600  -29.6010 C.3   112  ASP112      0.1436
    100  CG       -30.2830  -78.7600  -28.9700 C.2   112  ASP112      0.3671
    101  OD1      -31.0620  -79.4240  -29.6900 O.co2 112  ASP112     -0.2456
    102  OD2      -30.4880  -78.5680  -27.7550 O.co2 112  ASP112     -0.2456
    103  N        -29.4970  -73.8830  -32.2380 N.3   114  THR114     -0.1218
    104  CA       -29.2070  -72.5590  -31.6850 C.3   114  THR114      0.1862
    105  C        -29.2720  -71.5000  -32.7970 C.2   114  THR114      0.2287
    106  O        -29.7100  -70.3650  -32.5760 O.2   114  THR114     -0.2866
    107  CB       -27.8270  -72.5180  -31.0080 C.3   114  THR114      0.1770
    108  OG1      -27.8230  -73.4100  -29.8890 O.3   114  THR114     -0.2211
    109  CG2      -27.5070  -71.1040  -30.5140 C.3   114  THR114      0.0375
@<TRIPOS>BOND
     1    68    69    1
     2    72    69    1
     3    72    73    1
     4    69    70    1
     5    73    75   ar
     6    73    74   ar
     7    75    77   ar
     8    80    70   am
     9    80    81    1
    10    86    84    1
    11    70    71    2
    12    74    76   ar
    13    84    81    1
    14    84    85    1
    15    77    78   ar
    16    94    92    1
    17    62    61    2
    18    81    82    1
    19    93    92    1
    20    76    78   ar
    21    85    87    1
    22    78    79    1
    23    88    82   am
    24    88    89    1
    25    61    60    1
    26    92    89    1
    27   105   106    2
    28   105   104    1
    29    82    83    2
    30    38    37   ar
    31    38    36   ar
    32    37    35   ar
    33    89    90    1
    34   103   104    1
    35    36    34   ar
    36    95    90   am
    37    95    96    1
    38   104   107    1
    39    42    41    2
    40    60    59    1
    41    60    63    1
    42    97    96    1
    43    97    98    2
    44    90    91    2
    45    41    40    1
    46    35    32   ar
    47    16    14    1
    48    64    63    1
    49    64    65    1
    50    96    99    1
    51   107   109    1
    52   107   108    1
    53    15    14    1
    54    34    32   ar
    55    34    33   ar
    56    14    13    1
    57    28    27    2
    58    32    30   ar
    59    65    67   am
    60    65    66    2
    61    39    40    1
    62    40    43    1
    63    27    26    1
    64   101   100   ar
    65    33    31   ar
    66    99   100    1
    67    12    11    2
    68    30    31   ar
    69    30    29    1
    70    13    10    1
    71   100   102   ar
    72    11    10    1
    73    43    44    1
    74    26    29    1
    75    26    25    1
    76    10     9    1
    77    20    19    2
    78    25    19   am
    79    51    50    2
    80    17    18    1
    81    19    18    1
    82    44    45    1
    83    50    49    1
    84    48    49    1
    85    18    21    1
    86    49    52    1
    87     9     3   am
    88    46    45   ar
    89    45    47   ar
    90     4     3    2
    91     3     2    1
    92    21    22    1
    93    52    53    1
    94    22    24   ar
    95    22    23   ar
    96    53    54    1
    97     2     1    1
    98     2     5    1
    99     7     5    1
   100     5     6    1
   101    54    55    1
   102    55    56    2
   103     6     8    1
   104    56    58    1
   105    56    57    1
