@<TRIPOS>MOLECULE
tmp/3qhxA00.pdb
 80 76 0 0 0
SMALL
GASTEIGER

@<TRIPOS>ATOM
      1  N          5.2990  -30.2340  -44.4120 N.3   100  TYR100     -0.1227
      2  CA         4.3840  -30.7670  -43.4200 C.3   100  TYR100      0.1736
      3  C          3.1920  -31.4430  -44.1320 C.2   100  TYR100      0.2596
      4  O          2.5970  -30.8810  -45.0760 O.2   100  TYR100     -0.2718
      5  CB         3.9250  -29.6760  -42.4630 C.3   100  TYR100      0.0548
      6  CG         2.7630  -30.1000  -41.5880 C.ar  100  TYR100     -0.0200
      7  CD1        2.8450  -31.2720  -40.8580 C.ar  100  TYR100     -0.0009
      8  CD2        1.5570  -29.4540  -41.6170 C.ar  100  TYR100     -0.0009
      9  CE1        1.7660  -31.7170  -40.1030 C.ar  100  TYR100      0.0417
     10  CE2        0.4990  -29.9120  -40.9090 C.ar  100  TYR100      0.0417
     11  CZ         0.5790  -30.9790  -40.1660 C.ar  100  TYR100      0.1957
     12  OH        -0.5250  -31.4180  -39.4140 O.3   100  TYR100     -0.2866
     13  N          2.8330  -32.7040  -43.7300 N.am  101  GLY101     -0.1942
     14  CA         1.8530  -33.4570  -44.4450 C.3   101  GLY101      0.2014
     15  C          0.4700  -32.7440  -44.5420 C.2   101  GLY101      0.2639
     16  O         -0.2190  -32.8500  -45.5520 O.2   101  GLY101     -0.2714
     17  N          0.1190  -31.9800  -43.5090 N.am  102  GLY102     -0.1954
     18  CA        -1.2050  -31.3020  -43.4510 C.3   102  GLY102      0.1869
     19  C         -1.2610  -30.2180  -44.5400 C.2   102  GLY102      0.2309
     20  O         -2.3250  -29.9270  -45.1380 O.2   102  GLY102     -0.2863
     21  N          9.1640  -30.7180  -41.4250 N.3   147  ASN147     -0.1240
     22  CA         8.5130  -31.7590  -40.5850 C.3   147  ASN147      0.1653
     23  C          8.3000  -32.9770  -41.4540 C.2   147  ASN147      0.2266
     24  O          7.3950  -32.8970  -42.3120 O.2   147  ASN147     -0.2867
     25  CB         7.1610  -31.1870  -40.0240 C.3   147  ASN147      0.1155
     26  CG         6.4850  -32.0930  -39.0390 C.2   147  ASN147      0.2627
     27  OD1        6.9520  -33.3140  -38.8720 O.2   147  ASN147     -0.2716
     28  ND2        5.3300  -31.6330  -38.4430 N.am  147  ASN147     -0.0877
     29  N          1.1430  -38.0390  -31.4570 N.3   323  GLU323     -0.1231
     30  CA         1.4370  -37.0170  -32.4710 C.3   323  GLU323      0.1699
     31  C          1.6920  -35.6470  -31.8520 C.2   323  GLU323      0.2593
     32  O          1.5670  -35.4630  -30.6070 O.2   323  GLU323     -0.2718
     33  CB         0.2380  -36.9640  -33.4670 C.3   323  GLU323      0.0402
     34  CG         0.1960  -38.3310  -34.2020 C.3   323  GLU323      0.1161
     35  CD        -1.0100  -38.5730  -35.0570 C.2   323  GLU323      0.3649
     36  OE1       -1.3910  -39.7890  -35.3000 O.co2 323  GLU323     -0.2457
     37  OE2       -1.6400  -37.6180  -35.4930 O.co2 323  GLU323     -0.2457
     38  N          1.8910  -34.6780  -32.7100 N.am  324  SER324     -0.1938
     39  CA         2.2010  -33.3020  -32.2980 C.3   324  SER324      0.2055
     40  C          3.6710  -33.2210  -31.8240 C.2   324  SER324      0.2642
     41  O          4.4250  -34.1930  -31.8110 O.2   324  SER324     -0.2714
     42  CB         1.2000  -32.6820  -31.3330 C.3   324  SER324      0.2130
     43  OG         1.2960  -31.2550  -31.4130 O.3   324  SER324     -0.2179
     44  N          4.0630  -31.9900  -31.4250 N.am  325  LEU325     -0.1977
     45  CA         5.4300  -31.6990  -31.0910 C.3   325  LEU325      0.1596
     46  C          5.4570  -30.3450  -30.4420 C.2   325  LEU325      0.2287
     47  O          4.4750  -29.6270  -30.3400 O.2   325  LEU325     -0.2864
     48  CB         6.3630  -31.7720  -32.3130 C.3   325  LEU325      0.0297
     49  CG         5.8680  -30.9150  -33.4610 C.3   325  LEU325      0.0022
     50  CD1        6.5430  -29.5500  -33.4860 C.3   325  LEU325      0.0001
     51  CD2        6.1710  -31.7270  -34.7780 C.3   325  LEU325      0.0001
     52  N          2.0400  -42.0750  -40.4490 N.3   338  MET338     -0.1245
     53  CA         1.1200  -40.9130  -40.4650 C.3   338  MET338      0.1570
     54  C          0.9780  -40.3530  -41.8930 C.2   338  MET338      0.2261
     55  O          0.0630  -39.5620  -42.1890 O.2   338  MET338     -0.2867
     56  CB         1.6550  -39.7810  -39.5540 C.3   338  MET338      0.0387
     57  CG         1.8570  -40.2600  -38.1050 C.3   338  MET338      0.0595
     58  SD         2.9070  -39.0820  -37.0790 S.3   338  MET338     -0.1393
     59  CE         1.8080  -37.6500  -37.3960 C.3   338  MET338      0.0692
     60  N          0.3940  -39.9900  -46.0040 N.3   340  HIS340     -0.1241
     61  CA        -0.6100  -40.4960  -46.9040 C.3   340  HIS340      0.1621
     62  C          0.0430  -41.0200  -48.1530 C.2   340  HIS340      0.2264
     63  O          0.8930  -40.3480  -48.7530 O.2   340  HIS340     -0.2867
     64  CB        -1.5900  -39.3120  -47.2280 C.3   340  HIS340      0.0745
     65  CG        -2.4280  -38.9320  -46.0390 C.ar  340  HIS340      0.0817
     66  ND1       -3.5460  -39.6550  -45.6530 N.ar  340  HIS340     -0.2268
     67  CD2       -2.2620  -37.9710  -45.1170 C.ar  340  HIS340      0.1154
     68  CE1       -4.0220  -39.1540  -44.5230 C.ar  340  HIS340      0.1986
     69  NE2       -3.2380  -38.1410  -44.1570 N.ar  340  HIS340     -0.2212
     70  N         10.8030  -39.8400  -35.2450 N.3   356  ARG356     -0.1245
     71  CA        10.8260  -38.4060  -34.9950 C.3   356  ARG356      0.1563
     72  C         10.7260  -38.1830  -33.4840 C.2   356  ARG356      0.2260
     73  O          9.7480  -38.6540  -32.8720 O.2   356  ARG356     -0.2867
     74  CB         9.7180  -37.6880  -35.7410 C.3   356  ARG356      0.0307
     75  CG         9.7500  -36.1700  -35.6050 C.3   356  ARG356      0.0489
     76  CD         8.5200  -35.4440  -36.1360 C.3   356  ARG356      0.2205
     77  NE         7.3010  -35.7500  -35.3110 N.pl3 356  ARG356     -0.0865
     78  CZ         6.0390  -35.5390  -35.6850 C.cat 356  ARG356      0.5346
     79  NH1        5.7720  -35.0290  -36.8970 N.pl3 356  ARG356      0.1354
     80  NH2        4.9850  -35.8950  -34.9020 N.pl3 356  ARG356      0.1354
@<TRIPOS>BOND
     1    63    62    2
     2    62    61    1
     3    64    61    1
     4    64    65    1
     5    61    60    1
     6    65    66   ar
     7    65    67   ar
     8    66    68   ar
     9    16    15    2
    10    20    19    2
    11    67    69   ar
    12     4     3    2
    13    15    14    1
    14    15    17   am
    15    19    18    1
    16    68    69   ar
    17    14    13    1
    18     1     2    1
    19     3    13   am
    20     3     2    1
    21    17    18    1
    22     2     5    1
    23     5     6    1
    24    24    23    2
    25    55    54    2
    26    54    53    1
    27     8     6   ar
    28     8    10   ar
    29     6     7   ar
    30    23    22    1
    31    21    22    1
    32    10    11   ar
    33     7     9   ar
    34    22    25    1
    35    53    52    1
    36    53    56    1
    37    11     9   ar
    38    11    12    1
    39    25    26    1
    40    56    57    1
    41    26    27    2
    42    26    28   am
    43    57    58    1
    44    59    58    1
    45    79    78    1
    46    76    75    1
    47    76    77    1
    48    74    75    1
    49    74    71    1
    50    78    77    2
    51    78    80    1
    52    37    35   ar
    53    36    35   ar
    54    70    71    1
    55    35    34    1
    56    71    72    1
    57    51    49    1
    58    34    33    1
    59    50    49    1
    60    72    73    2
    61    33    30    1
    62    49    48    1
    63    38    39    1
    64    38    31   am
    65    30    31    1
    66    30    29    1
    67    48    45    1
    68    39    40    1
    69    39    42    1
    70    31    32    2
    71    40    41    2
    72    40    44   am
    73    44    45    1
    74    43    42    1
    75    45    46    1
    76    46    47    2
