@<TRIPOS>MOLECULE
tmp/3qi3A00.pdb
 160 153 0 0 0
SMALL
GASTEIGER

@<TRIPOS>ATOM
      1  N         85.4920   57.3320   43.9370 N.3    71  PHE71      -0.1227
      2  CA        84.8820   56.0720   44.3690 C.3    71  PHE71       0.1736
      3  C         85.7870   54.8620   44.1760 C.2    71  PHE71       0.2595
      4  O         86.0750   54.1320   45.1300 O.2    71  PHE71      -0.2718
      5  CB        83.5700   55.8060   43.6270 C.3    71  PHE71       0.0547
      6  CG        82.8180   54.6050   44.1450 C.ar   71  PHE71      -0.0202
      7  CD1       81.7930   54.7570   45.0710 C.ar   71  PHE71      -0.0042
      8  CD2       83.1480   53.3160   43.7150 C.ar   71  PHE71      -0.0042
      9  CE1       81.0990   53.6480   45.5660 C.ar   71  PHE71      -0.0003
     10  CE2       82.4610   52.1920   44.2050 C.ar   71  PHE71      -0.0003
     11  CZ        81.4320   52.3590   45.1330 C.ar   71  PHE71      -0.0000
     12  N         86.2150   54.6430   42.9350 N.am   72  HIS72      -0.1975
     13  CA        87.0690   53.5050   42.6110 C.3    72  HIS72       0.1656
     14  C         88.5120   53.7100   43.0190 C.2    72  HIS72       0.2291
     15  O         89.4160   53.8440   42.1900 O.2    72  HIS72      -0.2864
     16  CB        86.9570   53.1700   41.1260 C.3    72  HIS72       0.0771
     17  CG        85.6070   52.6560   40.7430 C.ar   72  HIS72       0.0820
     18  ND1       84.6160   53.4670   40.2370 N.ar   72  HIS72      -0.2267
     19  CD2       85.0470   51.4320   40.8960 C.ar   72  HIS72       0.1154
     20  CE1       83.5020   52.7690   40.1000 C.ar   72  HIS72       0.1986
     21  NE2       83.7360   51.5310   40.4940 N.ar   72  HIS72      -0.2212
     22  N         87.7960   51.7870   48.4850 N.3    76  HIS76      -0.1241
     23  CA        86.6760   50.9560   48.0210 C.3    76  HIS76       0.1621
     24  C         87.1680   49.5190   48.0810 C.2    76  HIS76       0.2264
     25  O         86.4610   48.6190   48.5020 O.2    76  HIS76      -0.2867
     26  CB        86.2880   51.2990   46.5770 C.3    76  HIS76       0.0745
     27  CG        85.4570   50.2470   45.8950 C.ar   76  HIS76       0.0817
     28  ND1       84.1760   49.9270   46.2950 N.ar   76  HIS76      -0.2268
     29  CD2       85.7170   49.4700   44.8130 C.ar   76  HIS76       0.1154
     30  CE1       83.6820   49.0040   45.4860 C.ar   76  HIS76       0.1986
     31  NE2       84.5950   48.7080   44.5750 N.ar   76  HIS76      -0.2212
     32  N         83.4550   54.1660   33.4310 N.3   120  ASN120     -0.1240
     33  CA        83.0830   52.7710   33.2130 C.3   120  ASN120      0.1653
     34  C         83.2760   52.1990   31.7980 C.2   120  ASN120      0.2266
     35  O         83.7050   52.9050   30.8860 O.2   120  ASN120     -0.2867
     36  CB        81.6500   52.5500   33.7050 C.3   120  ASN120      0.1155
     37  CG        80.6120   53.1390   32.7830 C.2   120  ASN120      0.2627
     38  OD1       79.4310   53.2030   33.1340 O.2   120  ASN120     -0.2716
     39  ND2       81.0300   53.5550   31.5970 N.am  120  ASN120     -0.0877
     40  N         79.0130   44.6970   35.9770 N.3   185  MET185     -0.1245
     41  CA        77.5530   44.7120   36.1060 C.3   185  MET185      0.1570
     42  C         76.7760   44.4280   34.8230 C.2   185  MET185      0.2261
     43  O         75.5880   44.1120   34.8740 O.2   185  MET185     -0.2867
     44  CB        77.0820   46.0390   36.7000 C.3   185  MET185      0.0387
     45  CG        77.3300   46.1550   38.2010 C.3   185  MET185      0.0595
     46  SD        76.6460   44.7590   39.1370 S.3   185  MET185     -0.1393
     47  CE        74.8890   45.1980   39.2460 C.3   185  MET185      0.0692
     48  N         81.2170   43.7080   46.3660 N.3   222  ASP222     -0.1225
     49  CA        81.5320   44.8280   45.4980 C.3   222  ASP222      0.1805
     50  C         80.5220   45.9800   45.6140 C.2   222  ASP222      0.2597
     51  O         80.9120   47.1360   45.6530 O.2   222  ASP222     -0.2718
     52  CB        81.6280   44.3140   44.0600 C.3   222  ASP222      0.1424
     53  CG        82.1540   45.3470   43.0880 C.2   222  ASP222      0.3668
     54  OD1       82.9850   46.2120   43.4750 O.co2 222  ASP222     -0.2456
     55  OD2       81.7480   45.2710   41.9040 O.co2 222  ASP222     -0.2456
     56  N         79.2330   45.6660   45.6980 N.am  223  ILE223     -0.1980
     57  CA        78.2030   46.7010   45.7850 C.3   223  ILE223      0.1595
     58  C         77.4470   46.6470   47.1110 C.2   223  ILE223      0.2287
     59  O         76.2470   46.8960   47.1600 O.2   223  ILE223     -0.2864
     60  CB        77.1880   46.5460   44.6280 C.3   223  ILE223      0.0276
     61  CG1       76.4360   45.2210   44.7680 C.3   223  ILE223      0.0022
     62  CG2       77.9140   46.5640   43.2870 C.3   223  ILE223      0.0022
     63  CD1       75.4420   44.9630   43.6640 C.3   223  ILE223      0.0001
     64  N         77.7550   48.6260   49.8660 N.3   225  ASN225     -0.1225
     65  CA        77.7530   49.8220   50.6960 C.3   225  ASN225      0.1785
     66  C         76.4810   49.9990   51.5090 C.2   225  ASN225      0.2597
     67  O         76.5390   50.1730   52.7210 O.2   225  ASN225     -0.2718
     68  CB        78.0020   51.0460   49.8280 C.3   225  ASN225      0.1169
     69  CG        79.3360   50.9740   49.1270 C.2   225  ASN225      0.2627
     70  OD1       80.3980   51.0140   49.7640 O.2   225  ASN225     -0.2716
     71  ND2       79.2970   50.8360   47.8080 N.am  225  ASN225     -0.0877
     72  N         75.3340   49.9280   50.8460 N.am  226  GLU226     -0.1979
     73  CA        74.0560   50.1070   51.5200 C.3   226  GLU226      0.1602
     74  C         73.7850   49.1410   52.6680 C.2   226  GLU226      0.2287
     75  O         72.8660   49.3600   53.4570 O.2   226  GLU226     -0.2864
     76  CB        72.9170   50.0570   50.4970 C.3   226  GLU226      0.0415
     77  CG        72.9310   51.2490   49.5590 C.3   226  GLU226      0.1163
     78  CD        72.8290   52.5670   50.3130 C.2   226  GLU226      0.3649
     79  OE1       73.2840   53.6090   49.7890 O.co2 226  GLU226     -0.2457
     80  OE2       72.2840   52.5590   51.4330 O.co2 226  GLU226     -0.2457
     81  N         77.7700   56.7550   48.1080 N.3   237  VAL237     -0.1245
     82  CA        76.8450   57.0450   47.0220 C.3   237  VAL237      0.1561
     83  C         77.2440   58.3740   46.3840 C.2   237  VAL237      0.2260
     84  O         77.2830   58.5070   45.1620 O.2   237  VAL237     -0.2867
     85  CB        75.3890   57.1520   47.5350 C.3   237  VAL237      0.0252
     86  CG1       74.4440   57.4100   46.3750 C.3   237  VAL237      0.0019
     87  CG2       74.9950   55.8700   48.2610 C.3   237  VAL237      0.0019
     88  N         80.3350   58.0440   44.2490 N.3   240  LEU240     -0.1231
     89  CA        80.0700   57.4210   42.9650 C.3   240  LEU240      0.1693
     90  C         79.4490   58.4350   42.0030 C.2   240  LEU240      0.2591
     91  O         79.8720   58.5580   40.8490 O.2   240  LEU240     -0.2718
     92  CB        79.1350   56.2150   43.1500 C.3   240  LEU240      0.0284
     93  CG        78.8850   55.3360   41.9160 C.3   240  LEU240      0.0019
     94  CD1       80.2050   54.8870   41.3320 C.3   240  LEU240      0.0001
     95  CD2       78.0470   54.1320   42.2990 C.3   240  LEU240      0.0001
     96  N         78.4450   59.1620   42.4850 N.am  241  LEU241     -0.1980
     97  CA        77.7860   60.1610   41.6580 C.3   241  LEU241      0.1596
     98  C         78.8070   61.1860   41.1800 C.2   241  LEU241      0.2287
     99  O         78.6710   61.7670   40.1090 O.2   241  LEU241     -0.2864
    100  CB        76.6590   60.8330   42.4370 C.3   241  LEU241      0.0297
    101  CG        75.4610   59.9070   42.6780 C.3   241  LEU241      0.0022
    102  CD1       74.4050   60.6370   43.4950 C.3   241  LEU241      0.0001
    103  CD2       74.8840   59.4430   41.3390 C.3   241  LEU241      0.0001
    104  N         80.2670   59.5630   38.2330 N.3   244  TYR244     -0.1241
    105  CA        79.2480   59.4850   37.2040 C.3   244  TYR244      0.1605
    106  C         78.9880   60.8290   36.5350 C.2   244  TYR244      0.2264
    107  O         78.7750   60.9030   35.3230 O.2   244  TYR244     -0.2867
    108  CB        77.9580   58.9430   37.8040 C.3   244  TYR244      0.0534
    109  CG        77.9550   57.4490   37.9940 C.ar  244  TYR244     -0.0201
    110  CD1       79.0920   56.6790   37.7230 C.ar  244  TYR244     -0.0009
    111  CD2       76.8030   56.7980   38.4170 C.ar  244  TYR244     -0.0009
    112  CE1       79.0720   55.2940   37.8690 C.ar  244  TYR244      0.0417
    113  CE2       76.7720   55.4250   38.5610 C.ar  244  TYR244      0.0417
    114  CZ        77.9030   54.6730   38.2870 C.ar  244  TYR244      0.1957
    115  OH        77.8340   53.3020   38.4190 O.3   244  TYR244     -0.2866
    116  N         70.9320   57.1700   34.2240 N.3   261  PHE261     -0.1241
    117  CA        71.2460   57.1280   35.6490 C.3   261  PHE261      0.1605
    118  C         72.4970   57.9230   36.0040 C.2   261  PHE261      0.2264
    119  O         72.8480   58.0440   37.1770 O.2   261  PHE261     -0.2867
    120  CB        71.3580   55.6740   36.1400 C.3   261  PHE261      0.0534
    121  CG        72.5600   54.9320   35.6200 C.ar  261  PHE261     -0.0203
    122  CD1       73.7920   55.0370   36.2600 C.ar  261  PHE261     -0.0042
    123  CD2       72.4550   54.1100   34.5030 C.ar  261  PHE261     -0.0042
    124  CE1       74.9020   54.3330   35.7970 C.ar  261  PHE261     -0.0003
    125  CE2       73.5590   53.4020   34.0300 C.ar  261  PHE261     -0.0003
    126  CZ        74.7850   53.5140   34.6790 C.ar  261  PHE261     -0.0000
    127  N         69.3370   61.4990   43.0460 N.3   269  LYS269     -0.1245
    128  CA        70.0060   60.4800   43.8500 C.3   269  LYS269      0.1561
    129  C         69.0480   59.5110   44.5310 C.2   269  LYS269      0.2260
    130  O         69.1700   58.2940   44.3870 O.2   269  LYS269     -0.2867
    131  CB        70.9010   61.1210   44.9160 C.3   269  LYS269      0.0271
    132  CG        71.6270   60.0850   45.7650 C.3   269  LYS269      0.0035
    133  CD        72.6370   60.6830   46.7310 C.3   269  LYS269      0.0206
    134  CE        71.9860   61.2300   47.9870 C.3   269  LYS269      0.1093
    135  NZ        73.0130   61.4870   49.0320 N.3   269  LYS269     -0.1314
    136  N         67.2760   57.0740   42.1650 N.3   272  ALA272     -0.1231
    137  CA        68.2040   56.0920   41.6260 C.3   272  ALA272      0.1694
    138  C         68.6220   55.0420   42.6650 C.2   272  ALA272      0.2591
    139  O         68.6950   53.8540   42.3530 O.2   272  ALA272     -0.2718
    140  CB        69.4280   56.7910   41.0710 C.3   272  ALA272      0.0304
    141  N         68.9090   55.4760   43.8900 N.am  273  GLU273     -0.1979
    142  CA        69.3010   54.5450   44.9450 C.3   273  GLU273      0.1602
    143  C         68.1540   53.6250   45.3040 C.2   273  GLU273      0.2287
    144  O         68.3610   52.4540   45.6070 O.2   273  GLU273     -0.2864
    145  CB        69.7470   55.2900   46.2010 C.3   273  GLU273      0.0415
    146  CG        71.2620   55.4900   46.3160 C.3   273  GLU273      0.1163
    147  CD        72.0530   54.1930   46.1580 C.2   273  GLU273      0.3649
    148  OE1       72.4420   53.8900   45.0190 O.co2 273  GLU273     -0.2457
    149  OE2       72.2750   53.4850   47.1700 O.co2 273  GLU273     -0.2457
    150  N         68.0590   50.9500   42.6380 N.3   276  PHE276     -0.1241
    151  CA        69.1980   50.0560   42.8000 C.3   276  PHE276      0.1605
    152  C         68.9880   49.1010   43.9710 C.2   276  PHE276      0.2264
    153  O         69.1800   47.8930   43.8440 O.2   276  PHE276     -0.2867
    154  CB        70.4570   50.8720   43.0340 C.3   276  PHE276      0.0534
    155  CG        71.7080   50.0500   43.1150 C.ar  276  PHE276     -0.0203
    156  CD1       72.2400   49.4580   41.9710 C.ar  276  PHE276     -0.0042
    157  CD2       72.3710   49.8900   44.3270 C.ar  276  PHE276     -0.0042
    158  CE1       73.4120   48.7280   42.0320 C.ar  276  PHE276     -0.0003
    159  CE2       73.5450   49.1600   44.3990 C.ar  276  PHE276     -0.0003
    160  CZ        74.0680   48.5780   43.2480 C.ar  276  PHE276     -0.0000
@<TRIPOS>BOND
     1    35    34    2
     2    39    37   am
     3    34    33    1
     4    37    38    2
     5    37    36    1
     6    33    32    1
     7    33    36    1
     8   125   123   ar
     9   125   126   ar
    10   116   117    1
    11   123   121   ar
    12   126   124   ar
    13    42    43    2
    14    42    41    1
    15   107   106    2
    16   121   120    1
    17   121   122   ar
    18   117   118    1
    19   117   120    1
    20   124   122   ar
    21    40    41    1
    22   118   119    2
    23    41    44    1
    24   106   105    1
    25    44    45    1
    26   105   108    1
    27   105   104    1
    28   110   112   ar
    29   110   109   ar
    30   108   109    1
    31   112   114   ar
    32   109   111   ar
    33    45    46    1
    34   114   115    1
    35   114   113   ar
    36   111   113   ar
    37    46    47    1
    38    20    18   ar
    39    20    21   ar
    40    99    98    2
    41    18    17   ar
    42    21    19   ar
    43    17    19   ar
    44    17    16    1
    45    91    90    2
    46   140   137    1
    47    16    13    1
    48    98    97    1
    49    94    93    1
    50   103   101    1
    51   137   136    1
    52   137   138    1
    53    97   100    1
    54    97    96    1
    55    55    53   ar
    56    93    95    1
    57    93    92    1
    58   156   158   ar
    59   156   155   ar
    60    90    96   am
    61    90    89    1
    62   158   160   ar
    63    15    14    2
    64   139   138    2
    65   100   101    1
    66    13    12    1
    67    13    14    1
    68   150   151    1
    69   138   141   am
    70   101   102    1
    71   151   154    1
    72   151   152    1
    73    12     3   am
    74    89    92    1
    75    89    88    1
    76   154   155    1
    77   127   128    1
    78    53    54   ar
    79    53    52    1
    80   155   157   ar
    81   160   159   ar
    82    62    60    1
    83     5     6    1
    84     5     2    1
    85    63    61    1
    86     8     6   ar
    87     8    10   ar
    88   153   152    2
    89   128   129    1
    90   128   131    1
    91   141   142    1
    92     1     2    1
    93    52    49    1
    94     6     7   ar
    95     3     2    1
    96     3     4    2
    97    10    11   ar
    98   157   159   ar
    99   130   129    2
   100    31    29   ar
   101    31    30   ar
   102    60    61    1
   103    60    57    1
   104    29    27   ar
   105   131   132    1
   106   142   143    1
   107   142   145    1
   108   148   147   ar
   109     7     9   ar
   110    11     9   ar
   111    84    83    2
   112   143   144    2
   113    30    28   ar
   114    49    50    1
   115    49    48    1
   116    50    51    2
   117    50    56   am
   118    56    57    1
   119   132   133    1
   120    57    58    1
   121    27    28   ar
   122    27    26    1
   123   147   146    1
   124   147   149   ar
   125   145   146    1
   126    86    85    1
   127    83    82    1
   128    26    23    1
   129   133   134    1
   130    82    85    1
   131    82    81    1
   132    58    59    2
   133    85    87    1
   134    71    69   am
   135   134   135    1
   136    23    24    1
   137    23    22    1
   138    24    25    2
   139    69    70    2
   140    69    68    1
   141    77    78    1
   142    77    76    1
   143    79    78   ar
   144    68    65    1
   145    64    65    1
   146    78    80   ar
   147    76    73    1
   148    65    66    1
   149    72    66   am
   150    72    73    1
   151    66    67    2
   152    73    74    1
   153    74    75    2
