@<TRIPOS>MOLECULE
tmp/3qi4A00.pdb
 123 117 0 0 0
SMALL
GASTEIGER

@<TRIPOS>ATOM
      1  N         85.7350   57.4330   43.4900 N.3    71  PHE71      -0.1241
      2  CA        85.1390   56.1830   43.9420 C.3    71  PHE71       0.1605
      3  C         86.0620   54.9780   43.7740 C.2    71  PHE71       0.2264
      4  O         86.4420   54.3390   44.7570 O.2    71  PHE71      -0.2867
      5  CB        83.8350   55.9190   43.1910 C.3    71  PHE71       0.0534
      6  CG        83.0410   54.7840   43.7490 C.ar   71  PHE71      -0.0203
      7  CD1       82.0670   55.0110   44.7140 C.ar   71  PHE71      -0.0042
      8  CD2       83.2750   53.4750   43.3190 C.ar   71  PHE71      -0.0042
      9  CE1       81.3300   53.9540   45.2480 C.ar   71  PHE71      -0.0003
     10  CE2       82.5450   52.4030   43.8450 C.ar   71  PHE71      -0.0003
     11  CZ        81.5710   52.6410   44.8100 C.ar   71  PHE71      -0.0000
     12  N         79.3100   44.7300   35.9030 N.3   185  MET185     -0.1245
     13  CA        77.8590   44.7970   36.0490 C.3   185  MET185      0.1570
     14  C         77.0630   44.5430   34.7750 C.2   185  MET185      0.2261
     15  O         75.8710   44.2330   34.8400 O.2   185  MET185     -0.2867
     16  CB        77.4480   46.1390   36.6500 C.3   185  MET185      0.0387
     17  CG        77.6770   46.2380   38.1580 C.3   185  MET185      0.0595
     18  SD        76.7190   45.0190   39.1030 S.3   185  MET185     -0.1393
     19  CE        75.0500   45.5410   38.7560 C.3   185  MET185      0.0692
     20  N         81.5020   43.6980   46.1770 N.3   222  ASP222     -0.1225
     21  CA        81.8380   44.8190   45.3210 C.3   222  ASP222      0.1805
     22  C         80.8040   45.9450   45.3810 C.2   222  ASP222      0.2597
     23  O         81.1610   47.1140   45.3230 O.2   222  ASP222     -0.2718
     24  CB        82.0160   44.3020   43.8890 C.3   222  ASP222      0.1424
     25  CG        82.3790   45.3920   42.8940 C.2   222  ASP222      0.3668
     26  OD1       83.2740   46.2330   43.1780 O.co2 222  ASP222     -0.2456
     27  OD2       81.7730   45.3890   41.8010 O.co2 222  ASP222     -0.2456
     28  N         79.5300   45.6060   45.5130 N.am  223  ILE223     -0.1980
     29  CA        78.4890   46.6260   45.5580 C.3   223  ILE223      0.1595
     30  C         77.7380   46.5470   46.8760 C.2   223  ILE223      0.2287
     31  O         76.5160   46.6720   46.9140 O.2   223  ILE223     -0.2864
     32  CB        77.4830   46.4490   44.3890 C.3   223  ILE223      0.0276
     33  CG1       76.7830   45.0960   44.5040 C.3   223  ILE223      0.0022
     34  CG2       78.2170   46.5420   43.0400 C.3   223  ILE223      0.0022
     35  CD1       75.6970   44.8830   43.4820 C.3   223  ILE223      0.0001
     36  N         78.2940   48.6130   49.6710 N.3   225  ASN225     -0.1225
     37  CA        78.2920   49.8070   50.5040 C.3   225  ASN225      0.1785
     38  C         77.0010   50.0190   51.2950 C.2   225  ASN225      0.2597
     39  O         77.0510   50.2810   52.4890 O.2   225  ASN225     -0.2718
     40  CB        78.6060   51.0530   49.6660 C.3   225  ASN225      0.1169
     41  CG        80.0490   51.0730   49.1670 C.2   225  ASN225      0.2627
     42  OD1       80.9920   50.8230   49.9280 O.2   225  ASN225     -0.2716
     43  ND2       80.2290   51.3900   47.8880 N.am  225  ASN225     -0.0877
     44  N         75.8470   49.8760   50.6490 N.am  226  GLU226     -0.1979
     45  CA        74.5800   50.1060   51.3330 C.3   226  GLU226      0.1602
     46  C         74.2840   49.1760   52.4970 C.2   226  GLU226      0.2287
     47  O         73.4260   49.4760   53.3270 O.2   226  GLU226     -0.2864
     48  CB        73.4240   50.1050   50.3280 C.3   226  GLU226      0.0415
     49  CG        73.4030   51.3570   49.4370 C.3   226  GLU226      0.1163
     50  CD        73.2050   52.6510   50.2380 C.2   226  GLU226      0.3649
     51  OE1       73.4620   53.7570   49.7050 O.co2 226  GLU226     -0.2457
     52  OE2       72.7820   52.5580   51.4100 O.co2 226  GLU226     -0.2457
     53  N         78.0160   57.0280   48.0370 N.3   237  VAL237     -0.1245
     54  CA        77.1070   57.3540   46.9460 C.3   237  VAL237      0.1561
     55  C         77.4980   58.6810   46.2970 C.2   237  VAL237      0.2260
     56  O         77.4280   58.8270   45.0740 O.2   237  VAL237     -0.2867
     57  CB        75.6490   57.4520   47.4330 C.3   237  VAL237      0.0252
     58  CG1       74.7220   57.6030   46.2380 C.3   237  VAL237      0.0019
     59  CG2       75.2810   56.2170   48.2460 C.3   237  VAL237      0.0019
     60  N         80.4390   58.0990   44.0850 N.3   240  LEU240     -0.1231
     61  CA        80.0900   57.4320   42.8410 C.3   240  LEU240      0.1693
     62  C         79.4980   58.4110   41.8290 C.2   240  LEU240      0.2591
     63  O         79.9140   58.4350   40.6670 O.2   240  LEU240     -0.2718
     64  CB        79.1060   56.2800   43.0910 C.3   240  LEU240      0.0284
     65  CG        78.8650   55.3820   41.8680 C.3   240  LEU240      0.0019
     66  CD1       80.1950   54.8540   41.3590 C.3   240  LEU240      0.0001
     67  CD2       77.9410   54.2360   42.2200 C.3   240  LEU240      0.0001
     68  N         78.5380   59.2200   42.2690 N.am  241  LEU241     -0.1980
     69  CA        77.9110   60.1940   41.3810 C.3   241  LEU241      0.1596
     70  C         78.9250   61.2120   40.8520 C.2   241  LEU241      0.2287
     71  O         78.8340   61.6570   39.7080 O.2   241  LEU241     -0.2864
     72  CB        76.7580   60.8970   42.0980 C.3   241  LEU241      0.0297
     73  CG        75.5780   59.9540   42.3370 C.3   241  LEU241      0.0022
     74  CD1       74.4780   60.6740   43.0920 C.3   241  LEU241      0.0001
     75  CD2       75.0580   59.4450   41.0010 C.3   241  LEU241      0.0001
     76  N         80.3760   59.3930   38.0490 N.3   244  TYR244     -0.1241
     77  CA        79.4090   59.2660   36.9660 C.3   244  TYR244      0.1605
     78  C         79.1980   60.5940   36.2420 C.2   244  TYR244      0.2264
     79  O         79.1850   60.6430   35.0100 O.2   244  TYR244     -0.2867
     80  CB        78.0620   58.7820   37.5060 C.3   244  TYR244      0.0534
     81  CG        77.9870   57.3070   37.7970 C.ar  244  TYR244     -0.0201
     82  CD1       79.1320   56.5030   37.7710 C.ar  244  TYR244     -0.0009
     83  CD2       76.7620   56.7080   38.1080 C.ar  244  TYR244     -0.0009
     84  CE1       79.0610   55.1450   38.0450 C.ar  244  TYR244      0.0417
     85  CE2       76.6750   55.3460   38.3880 C.ar  244  TYR244      0.0417
     86  CZ        77.8270   54.5700   38.3540 C.ar  244  TYR244      0.1957
     87  OH        77.7400   53.2250   38.6260 O.3   244  TYR244     -0.2866
     88  N         71.2200   57.1010   33.8070 N.3   261  PHE261     -0.1241
     89  CA        71.5780   56.9190   35.2080 C.3   261  PHE261      0.1605
     90  C         72.8390   57.6620   35.6200 C.2   261  PHE261      0.2264
     91  O         73.1790   57.7090   36.8020 O.2   261  PHE261     -0.2867
     92  CB        71.6670   55.4230   35.5530 C.3   261  PHE261      0.0534
     93  CG        72.9170   54.7400   35.0740 C.ar  261  PHE261     -0.0203
     94  CD1       74.0530   54.7000   35.8790 C.ar  261  PHE261     -0.0042
     95  CD2       72.9460   54.1000   33.8390 C.ar  261  PHE261     -0.0042
     96  CE1       75.1980   54.0310   35.4670 C.ar  261  PHE261     -0.0003
     97  CE2       74.0870   53.4250   33.4120 C.ar  261  PHE261     -0.0003
     98  CZ        75.2180   53.3900   34.2310 C.ar  261  PHE261     -0.0000
     99  N         68.2500   57.1910   42.5940 N.3   272  ALA272     -0.1231
    100  CA        69.3110   56.2890   42.1760 C.3   272  ALA272      0.1694
    101  C         69.4510   55.0940   43.1230 C.2   272  ALA272      0.2591
    102  O         69.4150   53.9430   42.6910 O.2   272  ALA272     -0.2718
    103  CB        70.6210   57.0430   42.0890 C.3   272  ALA272      0.0304
    104  N         69.6110   55.3670   44.4130 N.am  273  GLU273     -0.1979
    105  CA        69.7430   54.2950   45.3860 C.3   273  GLU273      0.1602
    106  C         68.4760   53.4620   45.5270 C.2   273  GLU273      0.2287
    107  O         68.5430   52.2340   45.5840 O.2   273  GLU273     -0.2864
    108  CB        70.1450   54.8410   46.7570 C.3   273  GLU273      0.0415
    109  CG        71.6060   55.2310   46.8580 C.3   273  GLU273      0.1163
    110  CD        72.5310   54.0910   46.4480 C.2   273  GLU273      0.3649
    111  OE1       72.8370   53.9340   45.2410 O.co2 273  GLU273     -0.2457
    112  OE2       72.9460   53.3330   47.3430 O.co2 273  GLU273     -0.2457
    113  N         68.3650   50.9340   42.7740 N.3   276  PHE276     -0.1241
    114  CA        69.4860   50.0270   42.8470 C.3   276  PHE276      0.1605
    115  C         69.3800   49.0830   44.0370 C.2   276  PHE276      0.2264
    116  O         69.8600   47.9510   43.9860 O.2   276  PHE276     -0.2867
    117  CB        70.7710   50.8360   42.9420 C.3   276  PHE276      0.0534
    118  CG        72.0160   50.0080   42.8980 C.ar  276  PHE276     -0.0203
    119  CD1       72.4480   49.4350   41.7080 C.ar  276  PHE276     -0.0042
    120  CD2       72.7760   49.8300   44.0440 C.ar  276  PHE276     -0.0042
    121  CE1       73.6240   48.7030   41.6640 C.ar  276  PHE276     -0.0003
    122  CE2       73.9510   49.1000   44.0080 C.ar  276  PHE276     -0.0003
    123  CZ        74.3770   48.5380   42.8170 C.ar  276  PHE276     -0.0000
@<TRIPOS>BOND
     1    97    95   ar
     2    97    98   ar
     3    88    89    1
     4    95    93   ar
     5    98    96   ar
     6    14    15    2
     7    14    13    1
     8    79    78    2
     9    93    92    1
    10    93    94   ar
    11    89    92    1
    12    89    90    1
    13    96    94   ar
    14    90    91    2
    15    12    13    1
    16    13    16    1
    17    78    77    1
    18    16    17    1
    19    77    80    1
    20    77    76    1
    21    80    81    1
    22    82    81   ar
    23    82    84   ar
    24    81    83   ar
    25    84    86   ar
    26    83    85   ar
    27    17    18    1
    28    86    85   ar
    29    86    87    1
    30    19    18    1
    31    71    70    2
    32    63    62    2
    33    70    69    1
    34    75    73    1
    35    66    65    1
    36    69    72    1
    37    69    68    1
    38   121   119   ar
    39   121   123   ar
    40   119   118   ar
    41    27    25   ar
    42    62    68   am
    43    62    61    1
    44    65    67    1
    45    65    64    1
    46   103   100    1
    47    72    73    1
    48   100    99    1
    49   100   101    1
    50    73    74    1
    51   102   101    2
    52   113   114    1
    53   123   122   ar
    54    61    64    1
    55    61    60    1
    56   114   117    1
    57   114   115    1
    58    25    26   ar
    59    25    24    1
    60   118   117    1
    61   118   120   ar
    62    34    32    1
    63   101   104   am
    64     5     6    1
    65     5     2    1
    66     8     6   ar
    67     8    10   ar
    68    35    33    1
    69     1     2    1
    70     6     7   ar
    71     3     2    1
    72     3     4    2
    73    10    11   ar
    74    24    21    1
    75   116   115    2
    76   122   120   ar
    77    32    33    1
    78    32    29    1
    79   104   105    1
    80     7     9   ar
    81    11     9   ar
    82    56    55    2
    83   111   110   ar
    84    21    22    1
    85    21    20    1
    86    23    22    2
    87    22    28   am
    88   105   106    1
    89   105   108    1
    90    28    29    1
    91   106   107    2
    92    29    30    1
    93    58    57    1
    94    55    54    1
    95   110   109    1
    96   110   112   ar
    97   108   109    1
    98    30    31    2
    99    54    57    1
   100    54    53    1
   101    57    59    1
   102    43    41   am
   103    41    40    1
   104    41    42    2
   105    49    50    1
   106    49    48    1
   107    40    37    1
   108    36    37    1
   109    51    50   ar
   110    50    52   ar
   111    48    45    1
   112    37    38    1
   113    44    38   am
   114    44    45    1
   115    38    39    2
   116    45    46    1
   117    46    47    2
