@<TRIPOS>MOLECULE
tmp/3qibB00.pdb
 209 198 0 0 0
SMALL
GASTEIGER

@<TRIPOS>ATOM
      1  N         -0.4200   42.2010  -24.9160 N.3     7  GLU7       -0.1245
      2  CA        -0.4220   43.2090  -23.8570 C.3     7  GLU7        0.1567
      3  C         -0.8680   44.4810  -24.5390 C.2     7  GLU7        0.2260
      4  O         -0.1910   45.0040  -25.4200 O.2     7  GLU7       -0.2867
      5  CB         0.9640   43.3850  -23.2350 C.3     7  GLU7        0.0388
      6  CG         1.0370   44.4310  -22.1310 C.3     7  GLU7        0.1160
      7  CD         0.2100   44.0810  -20.8880 C.2     7  GLU7        0.3649
      8  OE1       -0.4310   43.0080  -20.8730 O.co2   7  GLU7       -0.2457
      9  OE2        0.2020   44.8810  -19.9190 O.co2   7  GLU7       -0.2457
     10  N         -2.7680   48.3290  -24.0140 N.3     9  CYS9       -0.1235
     11  CA        -3.0970   49.3800  -23.0660 C.3     9  CYS9        0.1677
     12  C         -3.5510   50.6280  -23.7960 C.2     9  CYS9        0.2270
     13  O         -2.9350   51.0540  -24.7880 O.2     9  CYS9       -0.2867
     14  CB        -1.8820   49.6920  -22.1960 C.3     9  CYS9        0.0956
     15  SG        -2.1130   51.0770  -21.1100 S.3     9  CYS9       -0.0801
     16  N         -4.5810   54.6640  -22.9120 N.3    11  SER11      -0.1217
     17  CA        -4.6130   55.7610  -21.9510 C.3    11  SER11       0.1889
     18  C         -5.4900   56.8750  -22.4850 C.2    11  SER11       0.2288
     19  O         -5.0710   57.6990  -23.2860 O.2    11  SER11      -0.2866
     20  CB        -3.2080   56.2690  -21.6510 C.3    11  SER11       0.2089
     21  OG        -2.4880   55.2820  -20.9310 O.3    11  SER11      -0.2183
     22  N         -7.4600   60.1600  -22.3590 N.3    13  CYS13      -0.1235
     23  CA        -7.8070   61.5280  -21.9370 C.3    13  CYS13       0.1677
     24  C         -9.2260   61.9680  -22.4040 C.2    13  CYS13       0.2270
     25  O         -9.3900   62.3680  -23.5660 O.2    13  CYS13      -0.2867
     26  CB        -6.7820   62.5040  -22.5460 C.3    13  CYS13       0.0956
     27  SG        -5.2200   62.6260  -21.6310 S.3    13  CYS13      -0.0801
     28  N         -9.0810   61.1210  -16.7190 N.3    24  LEU24      -0.1245
     29  CA        -8.0770   60.1980  -17.2540 C.3    24  LEU24       0.1561
     30  C         -8.5140   58.7720  -16.9820 C.2    24  LEU24       0.2260
     31  O         -8.9040   58.4400  -15.8670 O.2    24  LEU24      -0.2867
     32  CB        -6.6840   60.4390  -16.6650 C.3    24  LEU24       0.0270
     33  CG        -5.6310   59.3620  -16.9890 C.3    24  LEU24       0.0019
     34  CD1       -5.2230   59.4030  -18.4370 C.3    24  LEU24       0.0001
     35  CD2       -4.4010   59.5040  -16.1390 C.3    24  LEU24       0.0001
     36  N         -7.1360   54.8600  -17.7850 N.3    26  VAL26      -0.1245
     37  CA        -6.1120   53.9800  -18.3090 C.3    26  VAL26       0.1561
     38  C         -6.6220   52.5640  -18.1920 C.2    26  VAL26       0.2260
     39  O         -6.9650   52.1030  -17.0950 O.2    26  VAL26      -0.2867
     40  CB        -4.7800   54.1280  -17.5470 C.3    26  VAL26       0.0252
     41  CG1       -3.8520   52.9970  -17.9000 C.3    26  VAL26       0.0019
     42  CG2       -4.1420   55.4420  -17.8850 C.3    26  VAL26       0.0019
     43  N         -6.3160   48.3960  -19.1890 N.3    28  TYR28      -0.1241
     44  CA        -5.4130   47.2750  -19.4700 C.3    28  TYR28       0.1605
     45  C         -6.1670   46.0390  -19.9790 C.2    28  TYR28       0.2264
     46  O         -7.1140   45.5320  -19.3210 O.2    28  TYR28      -0.2867
     47  CB        -4.5660   46.9150  -18.2430 C.3    28  TYR28       0.0534
     48  CG        -3.4960   47.9620  -17.9450 C.ar   28  TYR28      -0.0201
     49  CD1       -3.6900   48.9430  -16.9840 C.ar   28  TYR28      -0.0009
     50  CD2       -2.2940   47.9720  -18.6280 C.ar   28  TYR28      -0.0009
     51  CE1       -2.7190   49.8910  -16.7200 C.ar   28  TYR28       0.0417
     52  CE2       -1.3220   48.9220  -18.3560 C.ar   28  TYR28       0.0417
     53  CZ        -1.5340   49.8790  -17.4070 C.ar   28  TYR28       0.1957
     54  OH        -0.5510   50.8180  -17.1630 O.3    28  TYR28      -0.2866
     55  N         -8.6450   43.6800  -17.9930 N.3    35  ASN35      -0.1240
     56  CA        -8.5100   43.2540  -16.5950 C.3    35  ASN35       0.1653
     57  C         -8.3330   44.3870  -15.5590 C.2    35  ASN35       0.2266
     58  O         -8.6660   44.2260  -14.3820 O.2    35  ASN35      -0.2867
     59  CB        -7.3740   42.2430  -16.4560 C.3    35  ASN35       0.1155
     60  CG        -6.0580   42.7880  -16.9560 C.2    35  ASN35       0.2627
     61  OD1       -5.3970   43.5480  -16.2560 O.2    35  ASN35      -0.2716
     62  ND2       -5.6680   42.4070  -18.1750 N.am   35  ASN35      -0.0877
     63  N         -2.0510   43.4660  -10.1330 N.3    55  ASP55      -0.1239
     64  CA        -1.5850   44.7770  -10.5520 C.3    55  ASP55       0.1674
     65  C         -2.1710   45.9230   -9.6950 C.2    55  ASP55       0.2266
     66  O         -1.4470   46.8130   -9.2490 O.2    55  ASP55      -0.2867
     67  CB        -1.8760   44.9800  -12.0280 C.3    55  ASP55       0.1410
     68  CG        -0.9690   44.1520  -12.9110 C.2    55  ASP55       0.3668
     69  OD1        0.1140   43.7500  -12.4220 O.co2  55  ASP55      -0.2456
     70  OD2       -1.3320   43.9230  -14.0950 O.co2  55  ASP55      -0.2456
     71  N         -0.3710   45.6100   -6.2640 N.3    58  ASN58      -0.1225
     72  CA         0.9830   46.1200   -6.3750 C.3    58  ASN58       0.1785
     73  C          0.9720   47.6460   -6.4660 C.2    58  ASN58       0.2597
     74  O          1.6280   48.3520   -5.6920 O.2    58  ASN58      -0.2718
     75  CB         1.6630   45.5610   -7.6180 C.3    58  ASN58       0.1169
     76  CG         3.0570   46.0690   -7.7680 C.2    58  ASN58       0.2627
     77  OD1        3.6240   46.6030   -6.8150 O.2    58  ASN58      -0.2716
     78  ND2        3.6330   45.9100   -8.9540 N.am   58  ASN58      -0.0877
     79  N          0.2040   48.1460   -7.4260 N.am   59  TRP59      -0.1976
     80  CA         0.1880   49.5670   -7.7350 C.3    59  TRP59       0.1640
     81  C         -0.4580   50.4960   -6.7010 C.2    59  TRP59       0.2290
     82  O          0.0450   51.5870   -6.4800 O.2    59  TRP59      -0.2864
     83  CB        -0.4090   49.7790   -9.1240 C.3    59  TRP59       0.0576
     84  CG         0.5330   49.3480  -10.1770 C.ar   59  TRP59       0.0006
     85  CD1        1.8610   49.0770  -10.0160 C.ar   59  TRP59       0.0946
     86  CD2        0.2410   49.1320  -11.5600 C.ar   59  TRP59       0.0152
     87  NE1        2.4180   48.7100  -11.2180 N.ar   59  TRP59      -0.2442
     88  CE2        1.4460   48.7400  -12.1830 C.ar   59  TRP59       0.0810
     89  CE3       -0.9140   49.2420  -12.3340 C.ar   59  TRP59       0.0012
     90  CZ2        1.5240   48.4580  -13.5410 C.ar   59  TRP59       0.0191
     91  CZ3       -0.8340   48.9610  -13.6840 C.ar   59  TRP59       0.0001
     92  CH2        0.3730   48.5740  -14.2720 C.ar   59  TRP59       0.0015
     93  N          1.6520   51.7060   -3.9310 N.3    62  GLN62      -0.1245
     94  CA         2.6590   52.6750   -4.2860 C.3    62  GLN62       0.1566
     95  C          2.0020   54.0560   -4.2720 C.2    62  GLN62       0.2260
     96  O          1.5300   54.5460   -5.3080 O.2    62  GLN62      -0.2867
     97  CB         3.2140   52.3790   -5.6770 C.3    62  GLN62       0.0367
     98  CG         3.9960   51.0830   -5.7970 C.3    62  GLN62       0.0905
     99  CD         4.5120   50.8630   -7.2110 C.2    62  GLN62       0.2608
    100  OE1        4.7500   51.8200   -7.9580 O.2    62  GLN62      -0.2717
    101  NE2        4.6700   49.6000   -7.5970 N.am   62  GLN62      -0.0878
    102  N          3.0490   56.8080   -6.7200 N.3    65  PHE65      -0.1241
    103  CA         2.5730   56.4490   -8.0390 C.3    65  PHE65       0.1605
    104  C          1.1200   56.9130   -8.1850 C.2    65  PHE65       0.2264
    105  O          0.7470   57.5050   -9.2010 O.2    65  PHE65      -0.2867
    106  CB         2.7200   54.9460   -8.2700 C.3    65  PHE65       0.0534
    107  CG         2.2970   54.4970   -9.6370 C.ar   65  PHE65      -0.0203
    108  CD1        2.5440   55.2840  -10.7500 C.ar   65  PHE65      -0.0042
    109  CD2        1.6760   53.2660   -9.8100 C.ar   65  PHE65      -0.0042
    110  CE1        2.1490   54.8630  -12.0090 C.ar   65  PHE65      -0.0003
    111  CE2        1.2830   52.8340  -11.0690 C.ar   65  PHE65      -0.0003
    112  CZ         1.5070   53.6300  -12.1650 C.ar   65  PHE65      -0.0000
    113  N          1.1660   60.4880   -8.7040 N.3    68  GLN68      -0.1231
    114  CA         1.5720   60.8830  -10.0640 C.3    68  GLN68       0.1698
    115  C          0.4690   60.7210  -11.1320 C.2    68  GLN68       0.2592
    116  O          0.2790   61.6220  -11.9390 O.2    68  GLN68      -0.2718
    117  CB         2.9060   60.2310  -10.5050 C.3    68  GLN68       0.0381
    118  CG         3.6180   60.9950  -11.6320 C.3    68  GLN68       0.0905
    119  CD         5.0730   60.5540  -11.8910 C.2    68  GLN68       0.2608
    120  OE1        5.9030   60.4970  -10.9720 O.2    68  GLN68      -0.2717
    121  NE2        5.3910   60.2810  -13.1610 N.am   68  GLN68      -0.0878
    122  N         -0.2540   59.5980  -11.1220 N.am   69  LYS69      -0.1980
    123  CA        -1.3930   59.3720  -12.0240 C.3    69  LYS69       0.1596
    124  C         -2.4640   60.4490  -11.8730 C.2    69  LYS69       0.2287
    125  O         -2.9510   60.9970  -12.8710 O.2    69  LYS69      -0.2864
    126  CB        -2.0600   58.0070  -11.7780 C.3    69  LYS69       0.0298
    127  CG        -1.1620   56.8000  -11.8170 C.3    69  LYS69       0.0038
    128  CD        -0.3700   56.7270  -13.1030 C.3    69  LYS69       0.0206
    129  CE        -1.2070   56.2080  -14.2310 C.3    69  LYS69       0.1093
    130  NZ        -0.2780   56.1160  -15.3840 N.3    69  LYS69      -0.1314
    131  N         -1.7350   63.4580  -13.6500 N.3    72  GLU72      -0.1245
    132  CA        -1.5910   63.3090  -15.0930 C.3    72  GLU72       0.1567
    133  C         -2.7590   63.9120  -15.8620 C.2    72  GLU72       0.2260
    134  O         -2.6470   64.1970  -17.0460 O.2    72  GLU72      -0.2867
    135  CB        -1.3250   61.8610  -15.4790 C.3    72  GLU72       0.0388
    136  CG         0.1660   61.5580  -15.5490 C.3    72  GLU72       0.1160
    137  CD         0.4500   60.0730  -15.5750 C.2    72  GLU72       0.3649
    138  OE1       -0.5300   59.2950  -15.6710 O.co2  72  GLU72      -0.2457
    139  OE2        1.6400   59.6920  -15.4880 O.co2  72  GLU72      -0.2457
    140  N         -0.6870   67.0060  -16.0690 N.3    75  THR75      -0.1203
    141  CA         0.6270   66.9020  -16.7170 C.3    75  THR75       0.1994
    142  C          0.6410   66.3680  -18.1600 C.2    75  THR75       0.2617
    143  O          1.5780   66.5960  -18.9120 O.2    75  THR75      -0.2717
    144  CB         1.6020   66.0710  -15.8660 C.3    75  THR75       0.1784
    145  OG1        1.0640   64.7590  -15.6180 O.3    75  THR75      -0.2211
    146  CG2        1.8300   66.7810  -14.5450 C.3    75  THR75       0.0376
    147  N         -0.4020   65.6460  -18.5370 N.am   76  VAL76      -0.1979
    148  CA        -0.5130   65.0890  -19.8750 C.3    76  VAL76       0.1595
    149  C         -1.7950   65.5810  -20.5350 C.2    76  VAL76       0.2287
    150  O         -1.7300   66.3520  -21.5050 O.2    76  VAL76      -0.2864
    151  CB        -0.4870   63.5390  -19.8320 C.3    76  VAL76       0.0276
    152  CG1       -0.4370   62.9670  -21.2520 C.3    76  VAL76       0.0022
    153  CG2        0.6910   63.0610  -18.9820 C.3    76  VAL76       0.0022
    154  N         -2.2800   69.2600  -20.7250 N.3    79  HIS79      -0.1226
    155  CA        -1.1620   69.8090  -21.5010 C.3    79  HIS79       0.1752
    156  C         -1.3140   69.5890  -23.0030 C.2    79  HIS79       0.2596
    157  O         -1.1870   70.5300  -23.7900 O.2    79  HIS79      -0.2718
    158  CB         0.1550   69.2230  -21.0060 C.3    79  HIS79       0.0759
    159  CG         1.3090   69.4100  -21.9480 C.ar   79  HIS79       0.0818
    160  ND1        2.3390   70.2880  -21.6950 N.ar   79  HIS79      -0.2268
    161  CD2        1.6120   68.7990  -23.1190 C.ar   79  HIS79       0.1154
    162  CE1        3.2240   70.2230  -22.6780 C.ar   79  HIS79       0.1986
    163  NE2        2.8060   69.3330  -23.5540 N.ar   79  HIS79      -0.2212
    164  N         -1.5570   68.3360  -23.3800 N.am   80  ASN80      -0.1974
    165  CA        -1.7970   67.9700  -24.7660 C.3    80  ASN80       0.1688
    166  C         -2.9880   68.6740  -25.4010 C.2    80  ASN80       0.2292
    167  O         -2.9570   69.0180  -26.5840 O.2    80  ASN80      -0.2864
    168  CB        -1.9910   66.4650  -24.8710 C.3    80  ASN80       0.1181
    169  CG        -0.6890   65.7250  -24.8330 C.2    80  ASN80       0.2629
    170  OD1        0.3660   66.3240  -25.0280 O.2    80  ASN80      -0.2716
    171  ND2       -0.7460   64.4180  -24.5910 N.am   80  ASN80      -0.0877
    172  N         -2.4190   72.0320  -26.9730 N.3    83  ILE83      -0.1231
    173  CA        -1.7560   72.0150  -28.2620 C.3    83  ILE83       0.1692
    174  C         -2.7480   71.6210  -29.3540 C.2    83  ILE83       0.2592
    175  O         -2.8830   72.3100  -30.3550 O.2    83  ILE83      -0.2718
    176  CB        -0.5590   71.0850  -28.2740 C.3    83  ILE83       0.0266
    177  CG1        0.4940   71.5950  -27.2900 C.3    83  ILE83       0.0019
    178  CG2        0.0270   70.9860  -29.6860 C.3    83  ILE83       0.0020
    179  CD1        1.5100   70.5650  -26.9470 C.3    83  ILE83       0.0001
    180  N         -3.4640   70.5300  -29.1340 N.am   84  PHE84      -0.1976
    181  CA        -4.4110   70.0470  -30.1170 C.3    84  PHE84       0.1639
    182  C         -5.5060   71.0750  -30.3570 C.2    84  PHE84       0.2290
    183  O         -6.2020   71.0570  -31.3710 O.2    84  PHE84      -0.2864
    184  CB        -4.9950   68.6880  -29.6950 C.3    84  PHE84       0.0560
    185  CG        -3.9550   67.5940  -29.5780 C.ar   84  PHE84      -0.0200
    186  CD1       -2.7720   67.6510  -30.3000 C.ar   84  PHE84      -0.0042
    187  CD2       -4.1570   66.5180  -28.7430 C.ar   84  PHE84      -0.0042
    188  CE1       -1.8090   66.6520  -30.1860 C.ar   84  PHE84      -0.0003
    189  CE2       -3.1960   65.5010  -28.6270 C.ar   84  PHE84      -0.0003
    190  CZ        -2.0240   65.5710  -29.3510 C.ar   84  PHE84      -0.0000
    191  N         -5.0890   74.0700  -30.9670 N.3    86  ASN86      -0.1225
    192  CA        -4.6820   74.9370  -32.0690 C.3    86  ASN86       0.1785
    193  C         -5.0230   74.3970  -33.4630 C.2    86  ASN86       0.2597
    194  O         -5.2870   75.1720  -34.3730 O.2    86  ASN86      -0.2718
    195  CB        -3.1840   75.2460  -32.0180 C.3    86  ASN86       0.1169
    196  CG        -2.7710   75.9830  -30.7570 C.2    86  ASN86       0.2627
    197  OD1       -3.4780   76.8720  -30.2590 O.2    86  ASN86      -0.2716
    198  ND2       -1.6080   75.6170  -30.2350 N.am   86  ASN86      -0.0877
    199  N         -5.0080   73.0830  -33.6500 N.am   87  PHE87      -0.1976
    200  CA        -5.2100   72.5560  -34.9930 C.3    87  PHE87       0.1639
    201  C         -6.2310   71.4280  -35.1070 C.2    87  PHE87       0.2290
    202  O         -7.0440   71.4190  -36.0100 O.2    87  PHE87      -0.2864
    203  CB        -3.8750   72.1810  -35.6510 C.3    87  PHE87       0.0560
    204  CG        -3.0830   71.1320  -34.9070 C.ar   87  PHE87      -0.0200
    205  CD1       -2.4490   71.4350  -33.7190 C.ar   87  PHE87      -0.0042
    206  CD2       -2.9250   69.8570  -35.4210 C.ar   87  PHE87      -0.0042
    207  CE1       -1.7080   70.4740  -33.0470 C.ar   87  PHE87      -0.0003
    208  CE2       -2.1840   68.9130  -34.7540 C.ar   87  PHE87      -0.0003
    209  CZ        -1.5810   69.2210  -33.5680 C.ar   87  PHE87      -0.0000
@<TRIPOS>BOND
     1   202   201    2
     2   203   200    1
     3   203   204    1
     4   206   204   ar
     5   206   208   ar
     6   201   200    1
     7   200   199    1
     8   204   205   ar
     9   208   209   ar
    10   194   193    2
    11   205   207   ar
    12   199   193   am
    13   209   207   ar
    14   193   192    1
    15   192   195    1
    16   192   191    1
    17   195   196    1
    18   183   182    2
    19   196   197    2
    20   196   198   am
    21   182   181    1
    22   175   174    2
    23   186   188   ar
    24   186   185   ar
    25   188   190   ar
    26   181   184    1
    27   181   180    1
    28   184   185    1
    29   178   176    1
    30   185   187   ar
    31   174   180   am
    32   174   173    1
    33   190   189   ar
    34   187   189   ar
    35   176   173    1
    36   176   177    1
    37   173   172    1
    38   177   179    1
    39   167   166    2
    40     4     3    2
    41   166   165    1
    42   170   169    2
    43     1     2    1
    44   168   169    1
    45   168   165    1
    46   169   171   am
    47    13    12    2
    48   165   164    1
    49     3     2    1
    50    10    11    1
    51     2     5    1
    52    12    11    1
    53   157   156    2
    54    25    24    2
    55   163   161   ar
    56   163   162   ar
    57   164   156   am
    58    19    18    2
    59     5     6    1
    60   161   159   ar
    61    11    14    1
    62   156   155    1
    63    16    17    1
    64   162   160   ar
    65    26    23    1
    66    26    27    1
    67    18    17    1
    68    24    23    1
    69    22    23    1
    70    14    15    1
    71     6     7    1
    72    17    20    1
    73   159   160   ar
    74   159   158    1
    75    20    21    1
    76   150   149    2
    77   155   158    1
    78   155   154    1
    79   152   151    1
    80     7     8   ar
    81     7     9   ar
    82   149   148    1
    83    45    44    1
    84    45    46    2
    85   148   151    1
    86   148   147    1
    87   151   153    1
    88    44    43    1
    89    44    47    1
    90   143   142    2
    91    50    52   ar
    92    50    48   ar
    93   147   142   am
    94    34    33    1
    95    52    53   ar
    96    37    38    1
    97    37    36    1
    98    37    40    1
    99    47    48    1
   100    38    39    2
   101    62    60   am
   102   142   141    1
   103    55    56    1
   104    48    49   ar
   105    41    40    1
   106    42    40    1
   107    53    54    1
   108    53    51   ar
   109    29    30    1
   110    29    28    1
   111    29    32    1
   112   134   133    2
   113    33    32    1
   114    33    35    1
   115    49    51   ar
   116    30    31    2
   117    60    59    1
   118    60    61    2
   119   141   140    1
   120   141   144    1
   121    56    59    1
   122    56    57    1
   123   144   145    1
   124   144   146    1
   125   133   132    1
   126   138   137   ar
   127   137   136    1
   128   137   139   ar
   129    57    58    2
   130   136   135    1
   131   135   132    1
   132   130   129    1
   133   132   131    1
   134    92    91   ar
   135    92    90   ar
   136   129   128    1
   137    70    68   ar
   138    91    89   ar
   139    90    88   ar
   140   121   119   am
   141   128   127    1
   142    68    69   ar
   143    68    67    1
   144   125   124    2
   145    89    86   ar
   146    88    86   ar
   147    88    87   ar
   148   112   110   ar
   149   112   111   ar
   150    67    64    1
   151   123   124    1
   152   123   126    1
   153   123   122    1
   154   110   108   ar
   155   116   115    2
   156   119   118    1
   157   119   120    2
   158   127   126    1
   159   118   117    1
   160    86    84   ar
   161    87    85   ar
   162   115   122   am
   163   115   114    1
   164   111   109   ar
   165   108   107   ar
   166    64    63    1
   167    64    65    1
   168   117   114    1
   169    84    85   ar
   170    84    83    1
   171   114   113    1
   172   109   107   ar
   173    65    66    2
   174   107   106    1
   175   105   104    2
   176    83    80    1
   177    78    76   am
   178   106   103    1
   179   104   103    1
   180   103   102    1
   181   100    99    2
   182    76    75    1
   183    76    77    2
   184    80    79    1
   185    80    81    1
   186    75    72    1
   187   101    99   am
   188    79    73   am
   189    99    98    1
   190    81    82    2
   191    73    72    1
   192    73    74    2
   193    72    71    1
   194    98    97    1
   195    97    94    1
   196    96    95    2
   197    94    95    1
   198    94    93    1
