@<TRIPOS>MOLECULE
tmp/3qibD01.pdb
 111 110 0 0 0
SMALL
GASTEIGER

@<TRIPOS>ATOM
      1  N         35.8140   56.0000   -3.8590 N.3     9  TYR9       -0.1241
      2  CA        36.7430   56.7750   -4.6700 C.3     9  TYR9        0.1605
      3  C         37.3980   55.8760   -5.6880 C.2     9  TYR9        0.2264
      4  O         37.4470   54.6810   -5.4910 O.2     9  TYR9       -0.2867
      5  CB        37.8190   57.3770   -3.7870 C.3     9  TYR9        0.0534
      6  CG        37.3270   58.4840   -2.8930 C.ar    9  TYR9       -0.0201
      7  CD1       36.7510   58.2100   -1.6670 C.ar    9  TYR9       -0.0009
      8  CD2       37.4580   59.8130   -3.2740 C.ar    9  TYR9       -0.0009
      9  CE1       36.3040   59.2410   -0.8370 C.ar    9  TYR9        0.0417
     10  CE2       37.0270   60.8400   -2.4610 C.ar    9  TYR9        0.0417
     11  CZ        36.4440   60.5520   -1.2460 C.ar    9  TYR9        0.1957
     12  OH        36.0100   61.5770   -0.4410 O.3     9  TYR9       -0.2866
     13  N         33.6430   58.7480   -6.7980 N.3   109  ARG109     -0.1245
     14  CA        34.4190   59.8460   -7.3390 C.3   109  ARG109      0.1563
     15  C         35.5430   59.2960   -8.1940 C.2   109  ARG109      0.2260
     16  O         36.5450   58.8170   -7.6560 O.2   109  ARG109     -0.2867
     17  CB        35.0120   60.6980   -6.2250 C.3   109  ARG109      0.0307
     18  CG        34.0030   61.5610   -5.4820 C.3   109  ARG109      0.0489
     19  CD        34.7030   62.3700   -4.3900 C.3   109  ARG109      0.2205
     20  NE        33.7880   63.0870   -3.4960 N.pl3 109  ARG109     -0.0865
     21  CZ        33.0680   62.5220   -2.5260 C.cat 109  ARG109      0.5346
     22  NH1       33.1140   61.2130   -2.3280 N.pl3 109  ARG109      0.1354
     23  NH2       32.2820   63.2740   -1.7620 N.pl3 109  ARG109      0.1354
     24  N         43.3970   63.6970   -3.4470 N.3   152  ASP152     -0.1225
     25  CA        42.6430   64.0540   -2.2380 C.3   152  ASP152      0.1805
     26  C         41.4450   63.1290   -2.0870 C.2   152  ASP152      0.2598
     27  O         40.2990   63.5730   -2.0430 O.2   152  ASP152     -0.2718
     28  CB        42.1900   65.5140   -2.3010 C.3   152  ASP152      0.1424
     29  CG        41.3490   65.8010   -3.5290 C.2   152  ASP152      0.3668
     30  OD1       41.3270   64.9380   -4.4380 O.co2 152  ASP152     -0.2456
     31  OD2       40.7170   66.8840   -3.5930 O.co2 152  ASP152     -0.2456
     32  N         41.7330   61.8360   -2.0390 N.am  153  HIS153     -0.1961
     33  CA        40.7250   60.8030   -1.8800 C.3   153  HIS153      0.1787
     34  C         40.9510   60.1660   -0.5210 C.2   153  HIS153      0.2620
     35  O         41.6090   59.1470   -0.3940 O.2   153  HIS153     -0.2715
     36  CB        40.8300   59.7840   -3.0210 C.3   153  HIS153      0.0785
     37  CG        40.3540   60.3080   -4.3430 C.ar  153  HIS153      0.0821
     38  ND1       40.3130   59.5350   -5.4840 N.ar  153  HIS153     -0.2267
     39  CD2       39.8810   61.5240   -4.7000 C.ar  153  HIS153      0.1154
     40  CE1       39.8430   60.2550   -6.4880 C.ar  153  HIS153      0.1986
     41  NE2       39.5730   61.4650   -6.0380 N.ar  153  HIS153     -0.2212
     42  N         40.4500   60.8120    0.5150 N.am  154  VAL154     -0.1963
     43  CA        40.6940   60.3230    1.8500 C.3   154  VAL154      0.1727
     44  C         39.4570   60.5550    2.7100 C.2   154  VAL154      0.2616
     45  O         38.6950   61.4770    2.4750 O.2   154  VAL154     -0.2715
     46  CB        41.9420   61.0050    2.4780 C.3   154  VAL154      0.0290
     47  CG1       43.1880   60.6990    1.6650 C.3   154  VAL154      0.0023
     48  CG2       41.7420   62.4900    2.5810 C.3   154  VAL154      0.0023
     49  N         39.2490   59.6930    3.6930 N.am  155  GLU155     -0.1963
     50  CA        38.2200   59.9160    4.6850 C.3   155  GLU155      0.1733
     51  C         38.8500   59.7230    6.0460 C.2   155  GLU155      0.2616
     52  O         39.5500   58.7480    6.2960 O.2   155  GLU155     -0.2715
     53  CB        37.0180   58.9870    4.4750 C.3   155  GLU155      0.0429
     54  CG        36.2700   59.2160    3.1470 C.3   155  GLU155      0.1163
     55  CD        35.5760   60.5970    3.0550 C.2   155  GLU155      0.3649
     56  OE1       34.9970   61.0400    4.0710 O.co2 155  GLU155     -0.2457
     57  OE2       35.6140   61.2330    1.9700 O.co2 155  GLU155     -0.2457
     58  N         38.5840   60.6700    6.9250 N.am  156  LEU156     -0.1977
     59  CA        39.2740   60.7690    8.1920 C.3   156  LEU156      0.1596
     60  C         38.2890   60.5850    9.3440 C.2   156  LEU156      0.2287
     61  O         37.1950   61.1540    9.3320 O.2   156  LEU156     -0.2864
     62  CB        39.9580   62.1390    8.2490 C.3   156  LEU156      0.0297
     63  CG        40.8450   62.4950    9.4320 C.3   156  LEU156      0.0022
     64  CD1       41.7740   63.6220    9.0050 C.3   156  LEU156      0.0001
     65  CD2       40.0180   62.8680   10.6700 C.3   156  LEU156      0.0001
     66  N         36.1540   68.2660   10.5790 N.3   171  THR171     -0.1203
     67  CA        37.2540   68.1650    9.6300 C.3   171  THR171      0.1994
     68  C         37.2210   69.3030    8.6100 C.2   171  THR171      0.2618
     69  O         36.1460   69.7840    8.2590 O.2   171  THR171     -0.2717
     70  CB        37.1680   66.8320    8.8860 C.3   171  THR171      0.1784
     71  OG1       37.2570   65.7640    9.8350 O.3   171  THR171     -0.2211
     72  CG2       38.2880   66.6860    7.8720 C.3   171  THR171      0.0376
     73  N         38.3900   69.7240    8.1310 N.am  172  ASP172     -0.1960
     74  CA        38.4520   70.7420    7.0980 C.3   172  ASP172      0.1825
     75  C         37.4570   70.3800    6.0150 C.2   172  ASP172      0.2464
     76  O         37.2720   69.1950    5.6890 O.2   172  ASP172     -0.2730
     77  CB        39.8430   70.8400    6.4700 C.3   172  ASP172      0.1450
     78  CG        40.9100   71.3350    7.4430 C.2   172  ASP172      0.3671
     79  OD1       40.5700   71.8060    8.5620 O.co2 172  ASP172     -0.2456
     80  OD2       42.1050   71.2560    7.0630 O.co2 172  ASP172     -0.2456
     81  N         36.8120   71.4030    5.4490 N.am  173  PRO173     -0.2715
     82  CA        35.8250   71.1780    4.3990 C.3   173  PRO173      0.1536
     83  C         36.4540   70.3960    3.2570 C.2   173  PRO173      0.2598
     84  O         35.7370   69.6550    2.5890 O.2   173  PRO173     -0.2715
     85  CB        35.4770   72.5950    3.9380 C.3   173  PRO173      0.0310
     86  CG        35.7970   73.4460    5.1130 C.3   173  PRO173      0.0237
     87  CD        37.0160   72.8350    5.7210 C.3   173  PRO173      0.0939
     88  N         37.7580   70.5600    3.0260 N.am  174  GLN174     -0.1964
     89  CA        38.4140   69.7970    1.9660 C.3   174  GLN174      0.1718
     90  C         39.9160   69.8770    2.0880 C.2   174  GLN174      0.2458
     91  O         40.4340   70.8340    2.6460 O.2   174  GLN174     -0.2730
     92  CB        37.9950   70.3140    0.6000 C.3   174  GLN174      0.0407
     93  CG        38.5100   71.6890    0.3170 C.3   174  GLN174      0.0908
     94  CD        37.6520   72.3920   -0.6910 C.2   174  GLN174      0.2608
     95  OE1       37.7160   72.1000   -1.8880 O.2   174  GLN174     -0.2717
     96  NE2       36.8080   73.3050   -0.2140 N.am  174  GLN174     -0.0878
     97  N         40.6170   68.8580    1.5650 N.am  175  PRO175     -0.2727
     98  CA        42.0830   68.8340    1.6080 C.3   175  PRO175      0.1402
     99  C         42.6210   70.0800    0.9330 C.2   175  PRO175      0.2269
    100  O         42.0630   70.4760   -0.0860 O.2   175  PRO175     -0.2865
    101  CB        42.4450   67.5950    0.7720 C.3   175  PRO175      0.0296
    102  CG        41.2310   66.7340    0.7850 C.3   175  PRO175      0.0237
    103  CD        40.0480   67.6570    0.9190 C.3   175  PRO175      0.0939
    104  N         45.3040   67.6600    5.1120 N.3   189  LEU189     -0.1245
    105  CA        43.9740   67.7210    5.7100 C.3   189  LEU189      0.1561
    106  C         44.1040   67.7670    7.2100 C.2   189  LEU189      0.2260
    107  O         44.8560   66.9900    7.7900 O.2   189  LEU189     -0.2867
    108  CB        43.1590   66.4780    5.3440 C.3   189  LEU189      0.0270
    109  CG        41.6630   66.5460    5.6700 C.3   189  LEU189      0.0019
    110  CD1       40.9560   67.5070    4.7280 C.3   189  LEU189      0.0001
    111  CD2       41.0330   65.1960    5.5530 C.3   189  LEU189      0.0001
@<TRIPOS>BOND
     1    15    16    2
     2    15    14    1
     3    14    13    1
     4    14    17    1
     5    40    41   ar
     6    40    38   ar
     7    17    18    1
     8    41    39   ar
     9     3     4    2
    10     3     2    1
    11    38    37   ar
    12    18    19    1
    13    39    37   ar
    14     2     1    1
    15     2     5    1
    16    30    29   ar
    17    19    20    1
    18    37    36    1
    19     5     6    1
    20    31    29   ar
    21    29    28    1
    22    20    21    2
    23    24    25    1
    24     8     6   ar
    25     8    10   ar
    26    36    33    1
    27     6     7   ar
    28    21    22    1
    29    21    23    1
    30    10    11   ar
    31    28    25    1
    32    25    26    1
    33    26    27    2
    34    26    32   am
    35    32    33    1
    36    95    94    2
    37    33    34    1
    38     7     9   ar
    39    11     9   ar
    40    11    12    1
    41    94    96   am
    42    94    93    1
    43    34    35    2
    44    34    42   am
    45   100    99    2
    46    93    92    1
    47    42    43    1
    48    92    89    1
    49   101   102    1
    50   101    98    1
    51   102   103    1
    52   103    97    1
    53    99    98    1
    54    97    98    1
    55    97    90   am
    56    47    46    1
    57    43    46    1
    58    43    44    1
    59    89    90    1
    60    89    88    1
    61    57    55   ar
    62    90    91    2
    63    45    44    2
    64    46    48    1
    65    84    83    2
    66    44    49   am
    67    88    83   am
    68    55    54    1
    69    55    56   ar
    70    54    53    1
    71    83    82    1
    72    49    50    1
    73    85    82    1
    74    85    86    1
    75    82    81    1
    76    53    50    1
    77    50    51    1
    78   110   109    1
    79   104   105    1
    80    86    87    1
    81   108   109    1
    82   108   105    1
    83    81    87    1
    84    81    75   am
    85   111   109    1
    86    76    75    2
    87   105   106    1
    88    75    74    1
    89    51    52    2
    90    51    58   am
    91    77    74    1
    92    77    78    1
    93    58    59    1
    94    80    78   ar
    95    74    73    1
    96   106   107    2
    97    78    79   ar
    98    72    70    1
    99    73    68   am
   100    59    62    1
   101    59    60    1
   102    62    63    1
   103    69    68    2
   104    68    67    1
   105    70    67    1
   106    70    71    1
   107    64    63    1
   108    61    60    2
   109    63    65    1
   110    67    66    1
