@<TRIPOS>MOLECULE
tmp/3qibA00.pdb
 190 184 0 0 0
SMALL
GASTEIGER

@<TRIPOS>ATOM
      1  N         -3.8750   57.2410  -25.9560 N.3     9  GLN9       -0.1245
      2  CA        -2.5350   56.7440  -26.1620 C.3     9  GLN9        0.1566
      3  C         -2.6680   55.2290  -26.1950 C.2     9  GLN9        0.2260
      4  O         -2.9770   54.5800  -25.1910 O.2     9  GLN9       -0.2867
      5  CB        -1.5700   57.2190  -25.0770 C.3     9  GLN9        0.0367
      6  CG        -0.2690   56.4530  -25.0720 C.3     9  GLN9        0.0905
      7  CD         0.7670   56.9810  -24.0820 C.2     9  GLN9        0.2608
      8  OE1        0.8870   58.1860  -23.8720 O.2     9  GLN9       -0.2717
      9  NE2        1.5300   56.0730  -23.4800 N.am    9  GLN9       -0.0878
     10  N         -1.0590   51.5450  -27.1040 N.3    11  GLU11      -0.1245
     11  CA         0.1680   50.7930  -27.2890 C.3    11  GLU11       0.1567
     12  C         -0.0620   49.3170  -26.9730 C.2    11  GLU11       0.2260
     13  O         -0.8960   48.9620  -26.1170 O.2    11  GLU11      -0.2867
     14  CB         1.2890   51.3660  -26.4050 C.3    11  GLU11       0.0388
     15  CG         1.1260   51.0250  -24.9310 C.3    11  GLU11       0.1160
     16  CD         1.8480   51.9820  -23.9970 C.2    11  GLU11       0.3649
     17  OE1        2.5440   51.5010  -23.0700 O.co2  11  GLU11      -0.2457
     18  OE2        1.7110   53.2110  -24.1800 O.co2  11  GLU11      -0.2457
     19  N          2.6450   51.9360  -31.0630 N.3    22  PHE22      -0.1241
     20  CA         2.4400   53.0800  -30.1900 C.3    22  PHE22       0.1605
     21  C          1.8530   54.1740  -31.0530 C.2    22  PHE22       0.2264
     22  O          2.5050   54.6570  -31.9930 O.2    22  PHE22      -0.2867
     23  CB         3.7600   53.5420  -29.5450 C.3    22  PHE22       0.0534
     24  CG         3.6060   54.7050  -28.5780 C.ar   22  PHE22      -0.0203
     25  CD1        3.5440   56.0100  -29.0400 C.ar   22  PHE22      -0.0042
     26  CD2        3.5420   54.4890  -27.2120 C.ar   22  PHE22      -0.0042
     27  CE1        3.4140   57.0750  -28.1670 C.ar   22  PHE22      -0.0003
     28  CE2        3.4120   55.5520  -26.3310 C.ar   22  PHE22      -0.0003
     29  CZ         3.3420   56.8490  -26.8140 C.ar   22  PHE22      -0.0000
     30  N         -1.2190   57.6610  -31.1830 N.3    24  PHE24      -0.1241
     31  CA        -2.1900   58.5670  -30.6040 C.3    24  PHE24       0.1605
     32  C         -3.3890   58.6780  -31.5300 C.2    24  PHE24       0.2264
     33  O         -3.2190   58.7430  -32.7480 O.2    24  PHE24      -0.2867
     34  CB        -1.5540   59.9570  -30.4370 C.3    24  PHE24       0.0534
     35  CG        -0.9930   60.1980  -29.0740 C.ar   24  PHE24      -0.0203
     36  CD1       -0.0600   59.3360  -28.5370 C.ar   24  PHE24      -0.0042
     37  CD2       -1.4030   61.2840  -28.3300 C.ar   24  PHE24      -0.0042
     38  CE1        0.4400   59.5430  -27.2880 C.ar   24  PHE24      -0.0003
     39  CE2       -0.8970   61.5050  -27.0780 C.ar   24  PHE24      -0.0003
     40  CZ         0.0290   60.6280  -26.5540 C.ar   24  PHE24      -0.0000
     41  N         -3.5430   60.5260  -34.9430 N.3    31  ILE31      -0.1231
     42  CA        -2.7940   61.7680  -35.0500 C.3    31  ILE31       0.1692
     43  C         -1.3910   61.4570  -35.5140 C.2    31  ILE31       0.2592
     44  O         -0.7870   62.2230  -36.2630 O.2    31  ILE31      -0.2718
     45  CB        -2.6950   62.4980  -33.7010 C.3    31  ILE31       0.0266
     46  CG1       -4.0350   62.4620  -32.9620 C.3    31  ILE31       0.0019
     47  CG2       -2.2180   63.9190  -33.9230 C.3    31  ILE31       0.0020
     48  CD1       -3.9620   62.9970  -31.5480 C.3    31  ILE31       0.0001
     49  N         -0.8710   60.3300  -35.0440 N.am   32  PHE32      -0.1976
     50  CA         0.4590   59.8810  -35.4110 C.3    32  PHE32       0.1639
     51  C          0.7120   58.5310  -34.7620 C.2    32  PHE32       0.2290
     52  O          0.0100   58.1430  -33.8250 O.2    32  PHE32      -0.2864
     53  CB         1.5210   60.8840  -34.9540 C.3    32  PHE32       0.0560
     54  CG         1.8520   60.7950  -33.4840 C.ar   32  PHE32      -0.0200
     55  CD1        2.6330   59.7470  -32.9880 C.ar   32  PHE32      -0.0042
     56  CD2        1.3890   61.7620  -32.5960 C.ar   32  PHE32      -0.0042
     57  CE1        2.9310   59.6540  -31.6320 C.ar   32  PHE32      -0.0003
     58  CE2        1.6880   61.6860  -31.2300 C.ar   32  PHE32      -0.0003
     59  CZ         2.4620   60.6300  -30.7490 C.ar   32  PHE32      -0.0000
     60  N          3.5720   61.3870  -38.7940 N.3    43  TRP43      -0.1241
     61  CA         2.3170   62.1360  -38.6760 C.3    43  TRP43       0.1605
     62  C          1.2490   61.7880  -39.7230 C.2    43  TRP43       0.2264
     63  O          1.4860   61.8910  -40.9210 O.2    43  TRP43      -0.2867
     64  CB         2.5980   63.6360  -38.6650 C.3    43  TRP43       0.0550
     65  CG         3.4450   64.0400  -37.4980 C.ar   43  TRP43       0.0003
     66  CD1        4.8070   64.1610  -37.4710 C.ar   43  TRP43       0.0946
     67  CD2        2.9880   64.3560  -36.1770 C.ar   43  TRP43       0.0152
     68  NE1        5.2230   64.5410  -36.2180 N.ar   43  TRP43      -0.2442
     69  CE2        4.1280   64.6700  -35.4050 C.ar   43  TRP43       0.0810
     70  CE3        1.7290   64.4110  -35.5770 C.ar   43  TRP43       0.0012
     71  CZ2        4.0440   65.0340  -34.0660 C.ar   43  TRP43       0.0191
     72  CZ3        1.6450   64.7740  -34.2510 C.ar   43  TRP43       0.0001
     73  CH2        2.7980   65.0830  -33.5070 C.ar   43  TRP43       0.0015
     74  N          2.7510   67.9480  -38.5520 N.3    49  ALA49      -0.1231
     75  CA         4.1130   68.1430  -38.0690 C.3    49  ALA49       0.1694
     76  C          4.4800   69.6140  -37.8420 C.2    49  ALA49       0.2592
     77  O          5.4960   69.9140  -37.2030 O.2    49  ALA49      -0.2718
     78  CB         5.1050   67.4810  -38.9920 C.3    49  ALA49       0.0304
     79  N          3.6580   70.5330  -38.3380 N.am   50  LYS50      -0.1966
     80  CA         3.9650   71.9490  -38.1880 C.3    50  LYS50       0.1728
     81  C          3.3710   72.5260  -36.9130 C.2    50  LYS50       0.2616
     82  O          3.6320   73.6770  -36.5650 O.2    50  LYS50      -0.2715
     83  CB         3.5070   72.7460  -39.4100 C.3    50  LYS50       0.0311
     84  CG         4.2170   72.3350  -40.7090 C.3    50  LYS50       0.0038
     85  CD         4.1830   73.4390  -41.7660 C.3    50  LYS50       0.0206
     86  CE         2.8070   74.0960  -41.8630 C.3    50  LYS50       0.1093
     87  NZ         1.6940   73.1240  -42.0790 N.3    50  LYS50      -0.1314
     88  N          2.5890   71.7210  -36.2050 N.am   51  PHE51      -0.1960
     89  CA         1.9590   72.1920  -34.9800 C.3    51  PHE51       0.1771
     90  C          2.4330   71.4190  -33.7550 C.2    51  PHE51       0.2619
     91  O          2.1330   71.7900  -32.6240 O.2    51  PHE51      -0.2715
     92  CB         0.4390   72.0990  -35.1000 C.3    51  PHE51       0.0574
     93  CG        -0.1390   73.0180  -36.1290 C.ar   51  PHE51      -0.0200
     94  CD1       -0.5380   74.3040  -35.7850 C.ar   51  PHE51      -0.0042
     95  CD2       -0.2770   72.6090  -37.4470 C.ar   51  PHE51      -0.0042
     96  CE1       -1.0660   75.1710  -36.7390 C.ar   51  PHE51      -0.0003
     97  CE2       -0.8070   73.4700  -38.4060 C.ar   51  PHE51      -0.0003
     98  CZ        -1.1990   74.7500  -38.0510 C.ar   51  PHE51      -0.0000
     99  N          3.1810   70.3480  -33.9740 N.am   52  ALA52      -0.1963
    100  CA         3.4710   69.4470  -32.8850 C.3    52  ALA52       0.1728
    101  C          4.6200   68.4910  -33.2020 C.2    52  ALA52       0.2617
    102  O          4.7780   68.0390  -34.3330 O.2    52  ALA52      -0.2715
    103  CB         2.2260   68.6720  -32.5460 C.3    52  ALA52       0.0334
    104  N          5.4240   68.1880  -32.1920 N.am   53  SER53      -0.1936
    105  CA         6.4550   67.1770  -32.3270 C.3    53  SER53       0.2055
    106  C          6.2340   66.1500  -31.2380 C.2    53  SER53       0.2643
    107  O          5.4260   66.3620  -30.3370 O.2    53  SER53      -0.2714
    108  CB         7.8420   67.7980  -32.2030 C.3    53  SER53       0.2130
    109  OG         7.9320   68.9730  -32.9930 O.3    53  SER53      -0.2179
    110  N          6.9260   65.0270  -31.3270 N.am   54  PHE54      -0.1959
    111  CA         6.8560   64.0390  -30.2780 C.3    54  PHE54       0.1771
    112  C          8.2050   63.3620  -30.2690 C.2    54  PHE54       0.2619
    113  O          8.8330   63.2450  -31.3110 O.2    54  PHE54      -0.2715
    114  CB         5.7270   63.0510  -30.5400 C.3    54  PHE54       0.0574
    115  CG         5.6700   61.9310  -29.5590 C.ar   54  PHE54      -0.0200
    116  CD1        5.2770   62.1600  -28.2550 C.ar   54  PHE54      -0.0042
    117  CD2        6.0180   60.6500  -29.9300 C.ar   54  PHE54      -0.0042
    118  CE1        5.2260   61.1310  -27.3340 C.ar   54  PHE54      -0.0003
    119  CE2        5.9710   59.6000  -29.0100 C.ar   54  PHE54      -0.0003
    120  CZ         5.5700   59.8420  -27.7140 C.ar   54  PHE54      -0.0000
    121  N          8.6660   62.9470  -29.0970 N.am   55  GLU55      -0.1977
    122  CA         9.9800   62.3210  -28.9770 C.3    55  GLU55       0.1602
    123  C          9.8760   60.7900  -29.0240 C.2    55  GLU55       0.2287
    124  O          9.6820   60.1280  -27.9950 O.2    55  GLU55      -0.2864
    125  CB        10.7090   62.8020  -27.7100 C.3    55  GLU55       0.0415
    126  CG        10.9590   64.3010  -27.7070 C.3    55  GLU55       0.1163
    127  CD        11.9390   64.7790  -26.6350 C.2    55  GLU55       0.3649
    128  OE1       12.3450   63.9980  -25.7400 O.co2  55  GLU55      -0.2457
    129  OE2       12.3120   65.9620  -26.6940 O.co2  55  GLU55      -0.2457
    130  N         10.6390   57.8050  -26.4370 N.3    58  GLY58      -0.1225
    131  CA         9.7360   57.5320  -25.3280 C.3    58  GLY58       0.1811
    132  C          8.8020   56.3720  -25.6020 C.2    58  GLY58       0.2280
    133  O          8.5670   55.5060  -24.7450 O.2    58  GLY58      -0.2866
    134  N          8.4610   52.6300  -23.8750 N.3    62  ASN62      -0.1240
    135  CA         7.1350   52.1810  -23.4880 C.3    62  ASN62       0.1653
    136  C          6.8700   50.7800  -24.0280 C.2    62  ASN62       0.2266
    137  O          6.3720   49.9050  -23.3090 O.2    62  ASN62      -0.2867
    138  CB         6.0710   53.1630  -24.0060 C.3    62  ASN62       0.1155
    139  CG         5.5920   54.1520  -22.9380 C.2    62  ASN62       0.2627
    140  OD1        6.0530   54.1460  -21.8050 O.2    62  ASN62      -0.2716
    141  ND2        4.6560   54.9990  -23.3130 N.am   62  ASN62      -0.0877
    142  N          8.7750   48.1850  -22.0900 N.3    65  VAL65      -0.1231
    143  CA         8.1160   47.9640  -20.8000 C.3    65  VAL65       0.1692
    144  C          6.8450   47.1100  -20.9600 C.2    65  VAL65       0.2592
    145  O          6.5540   46.2400  -20.1310 O.2    65  VAL65      -0.2718
    146  CB         7.7780   49.3130  -20.1250 C.3    65  VAL65       0.0266
    147  CG1        7.1450   49.1130  -18.7300 C.3    65  VAL65       0.0020
    148  CG2        9.0180   50.1960  -20.0630 C.3    65  VAL65       0.0020
    149  N          6.0910   47.3660  -22.0300 N.am   66  ASP66      -0.1974
    150  CA         4.9580   46.5130  -22.4030 C.3    66  ASP66       0.1709
    151  C          5.3780   45.0620  -22.5820 C.2    66  ASP66       0.2293
    152  O          4.7780   44.1610  -21.9980 O.2    66  ASP66      -0.2864
    153  CB         4.3280   46.9840  -23.7070 C.3    66  ASP66       0.1436
    154  CG         3.4490   48.2010  -23.5240 C.2    66  ASP66       0.3671
    155  OD1        2.6770   48.2270  -22.5270 O.co2  66  ASP66      -0.2456
    156  OD2        3.5480   49.1190  -24.3810 O.co2  66  ASP66      -0.2456
    157  N          5.9300   43.4620  -19.3710 N.3    69  ASN69      -0.1240
    158  CA         4.6670   43.2110  -18.6830 C.3    69  ASN69       0.1653
    159  C          3.9430   41.9840  -19.2320 C.2    69  ASN69       0.2266
    160  O          3.3950   41.1950  -18.4640 O.2    69  ASN69      -0.2867
    161  CB         3.7430   44.4200  -18.7870 C.3    69  ASN69       0.1155
    162  CG         4.1660   45.5670  -17.8970 C.2    69  ASN69       0.2627
    163  OD1        4.8740   45.3840  -16.9050 O.2    69  ASN69      -0.2716
    164  ND2        3.7020   46.7640  -18.2380 N.am   69  ASN69      -0.0877
    165  N          5.1630   39.0840  -17.6970 N.3    72  VAL72      -0.1231
    166  CA         4.5710   38.9730  -16.3680 C.3    72  VAL72       0.1692
    167  C          3.1670   38.4020  -16.4590 C.2    72  VAL72       0.2591
    168  O          2.7490   37.6380  -15.5890 O.2    72  VAL72      -0.2718
    169  CB         4.5330   40.3240  -15.6360 C.3    72  VAL72       0.0266
    170  CG1        3.4530   40.3350  -14.5370 C.3    72  VAL72       0.0020
    171  CG2        5.8820   40.6230  -15.0710 C.3    72  VAL72       0.0020
    172  N          2.4480   38.7690  -17.5200 N.am   73  MET73      -0.1979
    173  CA         1.0350   38.3960  -17.6620 C.3    73  MET73       0.1605
    174  C          0.8710   36.9080  -18.0000 C.2    73  MET73       0.2287
    175  O          0.1930   36.1730  -17.2700 O.2    73  MET73      -0.2864
    176  CB         0.3050   39.2960  -18.6790 C.3    73  MET73       0.0413
    177  CG         0.0700   40.7480  -18.2170 C.3    73  MET73       0.0598
    178  SD        -0.8330   40.9050  -16.6400 S.3    73  MET73      -0.1393
    179  CE        -2.5160   40.5250  -17.1470 C.3    73  MET73       0.0692
    180  N          1.0970   34.6830  -15.1610 N.3    76  ARG76      -0.1245
    181  CA         0.0470   34.8100  -14.1540 C.3    76  ARG76       0.1563
    182  C         -1.2150   34.0220  -14.5260 C.2    76  ARG76       0.2260
    183  O         -1.9700   33.5800  -13.6500 O.2    76  ARG76      -0.2867
    184  CB        -0.2970   36.2790  -13.9330 C.3    76  ARG76       0.0307
    185  CG        -1.3720   36.5090  -12.8820 C.3    76  ARG76       0.0489
    186  CD        -1.7640   37.9720  -12.8270 C.3    76  ARG76       0.2205
    187  NE        -0.6070   38.8240  -12.5620 N.pl3  76  ARG76      -0.0865
    188  CZ        -0.5430   40.1200  -12.8530 C.cat  76  ARG76       0.5346
    189  NH1       -1.5720   40.7270  -13.4280 N.pl3  76  ARG76       0.1354
    190  NH2        0.5600   40.8010  -12.5790 N.pl3  76  ARG76       0.1354
@<TRIPOS>BOND
     1    87    86    1
     2    86    85    1
     3    85    84    1
     4    63    62    2
     5    84    83    1
     6    62    61    1
     7    83    80    1
     8    78    75    1
     9    60    61    1
    10    61    64    1
    11    64    65    1
    12    74    75    1
    13    97    98   ar
    14    97    95   ar
    15    79    80    1
    16    79    76   am
    17    80    81    1
    18    75    76    1
    19    98    96   ar
    20    76    77    2
    21    65    66   ar
    22    65    67   ar
    23    66    68   ar
    24    95    93   ar
    25    81    82    2
    26    81    88   am
    27    96    94   ar
    28    44    43    2
    29    68    69   ar
    30    88    89    1
    31    67    70   ar
    32    67    69   ar
    33    93    94   ar
    34    93    92    1
    35    70    72   ar
    36    43    42    1
    37    43    49   am
    38    50    49    1
    39    50    53    1
    40    50    51    1
    41    69    71   ar
    42    92    89    1
    43    42    41    1
    44    42    45    1
    45    89    90    1
    46    53    54    1
    47    51    52    2
    48   102   101    2
    49    72    73   ar
    50    71    73   ar
    51    99    90   am
    52    99   100    1
    53    47    45    1
    54    90    91    2
    55    45    46    1
    56    54    55   ar
    57    54    56   ar
    58   101   100    1
    59   101   104   am
    60   109   108    1
    61    55    57   ar
    62    46    48    1
    63   100   103    1
    64    33    32    2
    65    56    58   ar
    66   105   108    1
    67   105   104    1
    68   105   106    1
    69    22    21    2
    70    57    59   ar
    71    32    31    1
    72   110   106   am
    73   110   111    1
    74   113   112    2
    75   106   107    2
    76    58    59   ar
    77    30    31    1
    78    19    20    1
    79    21    20    1
    80    31    34    1
    81   114   111    1
    82   114   115    1
    83    34    35    1
    84   111   112    1
    85   112   121   am
    86    20    23    1
    87   117   115   ar
    88   117   119   ar
    89   115   116   ar
    90    23    24    1
    91   121   122    1
    92    35    36   ar
    93    35    37   ar
    94    25    24   ar
    95    25    27   ar
    96   123   122    1
    97   123   124    2
    98   119   120   ar
    99   122   125    1
   100    24    26   ar
   101    36    38   ar
   102    37    39   ar
   103   116   118   ar
   104    27    29   ar
   105   120   118   ar
   106   125   126    1
   107   126   127    1
   108    11    10    1
   109    11    12    1
   110    11    14    1
   111    38    40   ar
   112    26    28   ar
   113    39    40   ar
   114    12    13    2
   115    29    28   ar
   116   129   127   ar
   117   127   128   ar
   118   130   131    1
   119    14    15    1
   120     3     2    1
   121     3     4    2
   122     2     1    1
   123     2     5    1
   124   132   131    1
   125   132   133    2
   126     5     6    1
   127     6     7    1
   128    15    16    1
   129   156   154   ar
   130    18    16   ar
   131     7     8    2
   132     7     9   am
   133   136   135    1
   134   136   137    2
   135   138   135    1
   136   138   139    1
   137    16    17   ar
   138   134   135    1
   139   153   154    1
   140   153   150    1
   141   154   155   ar
   142   141   139   am
   143   139   140    2
   144   151   150    1
   145   151   152    2
   146   150   149    1
   147   142   143    1
   148   149   144   am
   149   144   143    1
   150   144   145    2
   151   143   146    1
   152   146   148    1
   153   146   147    1
   154   157   158    1
   155   159   158    1
   156   159   160    2
   157   161   158    1
   158   161   162    1
   159   176   177    1
   160   176   173    1
   161   164   162   am
   162   177   178    1
   163   174   173    1
   164   174   175    2
   165   162   163    2
   166   165   166    1
   167   173   172    1
   168   172   167   am
   169   179   178    1
   170   167   166    1
   171   167   168    2
   172   166   169    1
   173   169   171    1
   174   169   170    1
   175   180   181    1
   176   182   181    1
   177   182   183    2
   178   181   184    1
   179   184   185    1
   180   189   188    1
   181   185   186    1
   182   188   190    1
   183   188   187    2
   184   186   187    1
