@<TRIPOS>MOLECULE
tmp/3qihB01.pdb
 87 80 0 0 0
SMALL
GASTEIGER

@<TRIPOS>ATOM
      1  N        -17.2670   16.6710    5.1320 N.3    23  LEU23      -0.1245
      2  CA       -16.8690   15.7510    4.0900 C.3    23  LEU23       0.1561
      3  C        -15.3620   15.8500    3.8320 C.2    23  LEU23       0.2260
      4  O        -14.8410   16.9480    3.6160 O.2    23  LEU23      -0.2867
      5  CB       -17.6520   16.1080    2.8310 C.3    23  LEU23       0.0270
      6  CG       -17.5110   15.2930    1.5610 C.3    23  LEU23       0.0019
      7  CD1      -18.0230   13.8880    1.7760 C.3    23  LEU23       0.0001
      8  CD2      -18.3090   16.0000    0.4750 C.3    23  LEU23       0.0001
      9  N        -12.6300   15.8510    1.4540 N.3    25  ASP25      -0.1239
     10  CA       -12.7580   16.1540    0.0370 C.3    25  ASP25       0.1674
     11  C        -11.4020   16.4190   -0.6170 C.2    25  ASP25       0.2266
     12  O        -10.8710   17.5270   -0.5500 O.2    25  ASP25      -0.2867
     13  CB       -13.6730   17.3680   -0.1150 C.3    25  ASP25       0.1410
     14  CG       -14.1040   17.6010   -1.5370 C.2    25  ASP25       0.3668
     15  OD1      -13.3990   17.1440   -2.4560 O.co2  25  ASP25      -0.2456
     16  OD2      -15.1560   18.2500   -1.7350 O.co2  25  ASP25      -0.2456
     17  N        -10.7900   16.7120   -3.6300 N.3    27  GLY27      -0.1210
     18  CA       -10.9670   17.6130   -4.7640 C.3    27  GLY27       0.1956
     19  C        -10.9780   19.0840   -4.3680 C.2    27  GLY27       0.2612
     20  O        -10.9510   19.9570   -5.2290 O.2    27  GLY27      -0.2717
     21  N        -11.0200   19.3570   -3.0670 N.am   28  ALA28      -0.1965
     22  CA       -11.0710   20.7180   -2.5540 C.3    28  ALA28       0.1728
     23  C         -9.6840   21.1640   -2.0940 C.2    28  ALA28       0.2616
     24  O         -9.0680   20.5130   -1.2510 O.2    28  ALA28      -0.2715
     25  CB       -12.0720   20.7980   -1.4040 C.3    28  ALA28       0.0334
     26  N         -9.1860   22.2780   -2.6340 N.am   29  ASP29      -0.1957
     27  CA        -7.9010   22.8020   -2.1860 C.3    29  ASP29       0.1840
     28  C         -8.0130   23.2590   -0.7390 C.2    29  ASP29       0.2622
     29  O         -7.0740   23.1100    0.0550 O.2    29  ASP29      -0.2715
     30  CB        -7.4870   24.0190   -3.0090 C.3    29  ASP29       0.1450
     31  CG        -7.2840   23.7170   -4.4850 C.2    29  ASP29       0.3671
     32  OD1       -7.0210   22.5600   -4.8650 O.co2  29  ASP29      -0.2456
     33  OD2       -7.3470   24.6810   -5.2710 O.co2  29  ASP29      -0.2456
     34  N         -9.1700   23.8230   -0.4080 N.am   30  ASP30      -0.1971
     35  CA        -9.3660   24.5050    0.8600 C.3    30  ASP30       0.1709
     36  C        -10.4950   23.8940    1.6650 C.2    30  ASP30       0.2293
     37  O        -11.3100   23.1450    1.1580 O.2    30  ASP30      -0.2864
     38  CB        -9.6960   25.9750    0.6030 C.3    30  ASP30       0.1436
     39  CG        -8.6700   26.6550   -0.2660 C.2    30  ASP30       0.3671
     40  OD1       -7.4780   26.6240    0.0850 O.co2  30  ASP30      -0.2456
     41  OD2       -9.0580   27.2020   -1.3130 O.co2  30  ASP30      -0.2456
     42  N        -13.8730   24.5940    3.7630 N.3    32  VAL32      -0.1245
     43  CA       -14.9780   25.5450    3.7960 C.3    32  VAL32       0.1561
     44  C        -16.0810   25.0470    4.7240 C.2    32  VAL32       0.2260
     45  O        -16.5590   23.9280    4.5560 O.2    32  VAL32      -0.2867
     46  CB       -15.5800   25.7470    2.3940 C.3    32  VAL32       0.0252
     47  CG1      -16.6830   26.7960    2.4390 C.3    32  VAL32       0.0019
     48  CG2      -14.4950   26.1560    1.4110 C.3    32  VAL32       0.0019
     49  N        -13.6340   31.0930   -4.0560 N.3    47  ILE47      -0.1231
     50  CA       -13.3270   29.7270   -4.4050 C.3    47  ILE47       0.1692
     51  C        -14.2180   29.3030   -5.5520 C.2    47  ILE47       0.2593
     52  O        -15.3870   29.6940   -5.6260 O.2    47  ILE47      -0.2718
     53  CB       -13.4440   28.7740   -3.2040 C.3    47  ILE47       0.0266
     54  CG1      -14.8350   28.8440   -2.5840 C.3    47  ILE47       0.0019
     55  CG2      -12.3910   29.1100   -2.1560 C.3    47  ILE47       0.0020
     56  CD1      -14.9400   28.0870   -1.2730 C.3    47  ILE47       0.0001
     57  N        -13.6380   28.5290   -6.4610 N.am   48  GLY48      -0.1942
     58  CA       -14.3190   28.0990   -7.6640 C.3    48  GLY48       0.2014
     59  C        -14.7590   26.6560   -7.5690 C.2    48  GLY48       0.2639
     60  O        -14.0380   25.8000   -7.0590 O.2    48  GLY48      -0.2714
     61  N        -15.9630   26.3930   -8.0540 N.am   49  GLY49      -0.1939
     62  CA       -16.4910   25.0480   -8.0860 C.3    49  GLY49       0.2014
     63  C        -17.0420   24.7440   -9.4590 C.2    49  GLY49       0.2638
     64  O        -16.8160   25.4750  -10.4270 O.2    49  GLY49      -0.2714
     65  N        -17.7950   23.6650   -9.5440 N.am   50  ILE50      -0.1977
     66  CA       -18.2620   23.1980  -10.8340 C.3    50  ILE50       0.1596
     67  C        -19.2340   24.1800  -11.4810 C.2    50  ILE50       0.2287
     68  O        -19.3190   24.2590  -12.7060 O.2    50  ILE50      -0.2864
     69  CB       -18.9110   21.8160  -10.7100 C.3    50  ILE50       0.0276
     70  CG1      -18.9170   21.1180  -12.0670 C.3    50  ILE50       0.0022
     71  CG2      -20.3100   21.9300  -10.1100 C.3    50  ILE50       0.0022
     72  CD1      -19.3970   19.7020  -12.0080 C.3    50  ILE50       0.0001
     73  N        -21.3050   27.3500    1.5080 N.3    80  THR80      -0.1218
     74  CA       -20.9990   26.0610    0.9190 C.3    80  THR80       0.1862
     75  C        -22.1870   25.1410    1.1710 C.2    80  THR80       0.2287
     76  O        -22.8380   25.2420    2.2030 O.2    80  THR80      -0.2866
     77  CB       -19.7470   25.4470    1.5590 C.3    80  THR80       0.1770
     78  OG1      -19.4470   24.2070    0.9110 O.3    80  THR80      -0.2211
     79  CG2      -19.9630   25.2000    3.0550 C.3    80  THR80       0.0375
     80  N        -16.7860   21.1300    4.2300 N.3    84  ILE84      -0.1245
     81  CA       -15.7660   20.4700    3.4250 C.3    84  ILE84       0.1561
     82  C        -14.3950   20.5780    4.0720 C.2    84  ILE84       0.2260
     83  O        -13.9260   21.6850    4.3360 O.2    84  ILE84      -0.2867
     84  CB       -15.6610   21.1470    2.0510 C.3    84  ILE84       0.0252
     85  CG1      -16.9590   20.9610    1.2720 C.3    84  ILE84       0.0019
     86  CG2      -14.4590   20.6230    1.2790 C.3    84  ILE84       0.0019
     87  CD1      -17.2340   19.5460    0.9460 C.3    84  ILE84       0.0001
@<TRIPOS>BOND
     1    68    67    2
     2    70    72    1
     3    70    69    1
     4    67    66    1
     5    66    69    1
     6    66    65    1
     7    69    71    1
     8    64    63    2
     9    65    63   am
    10    63    62    1
    11    62    61    1
    12    61    59   am
    13    58    59    1
    14    58    57    1
    15    59    60    2
    16    57    51   am
    17    52    51    2
    18    51    50    1
    19    33    31   ar
    20    20    19    2
    21    32    31   ar
    22    18    19    1
    23    18    17    1
    24    31    30    1
    25    50    49    1
    26    50    53    1
    27    19    21   am
    28    53    54    1
    29    53    55    1
    30    21    22    1
    31    30    27    1
    32    26    27    1
    33    26    23   am
    34    54    56    1
    35    22    23    1
    36    22    25    1
    37    15    14   ar
    38    27    28    1
    39    23    24    2
    40    16    14   ar
    41    14    13    1
    42    41    39   ar
    43    28    34   am
    44    28    29    2
    45    11    12    2
    46    11    10    1
    47    34    35    1
    48    39    40   ar
    49    39    38    1
    50    13    10    1
    51    10     9    1
    52     8     6    1
    53    38    35    1
    54    35    36    1
    55    78    77    1
    56    74    75    1
    57    74    73    1
    58    74    77    1
    59    87    85    1
    60    37    36    2
    61    75    76    2
    62    85    84    1
    63    86    84    1
    64    48    46    1
    65    77    79    1
    66     6     7    1
    67     6     5    1
    68    84    81    1
    69    46    47    1
    70    46    43    1
    71     5     2    1
    72    81    82    1
    73    81    80    1
    74     4     3    2
    75    42    43    1
    76    43    44    1
    77     3     2    1
    78    82    83    2
    79     2     1    1
    80    45    44    2
