@<TRIPOS>MOLECULE
tmp/3qinA00.pdb
 87 82 0 0 0
SMALL
GASTEIGER

@<TRIPOS>ATOM
      1  N          3.8380   11.7210   22.5250 N.3    18  ASP18      -0.1225
      2  CA         3.1790   10.8520   23.4870 C.3    18  ASP18       0.1805
      3  C          1.6870   10.8660   23.2500 C.2    18  ASP18       0.2598
      4  O          1.1760   11.7000   22.5160 O.2    18  ASP18      -0.2718
      5  CB         3.4890   11.3050   24.9150 C.3    18  ASP18       0.1424
      6  CG         3.2520   10.2060   25.9400 C.2    18  ASP18       0.3668
      7  OD1        3.1960    9.0120   25.5590 O.co2  18  ASP18      -0.2456
      8  OD2        3.0980   10.5500   27.1290 O.co2  18  ASP18      -0.2456
      9  N          0.9940    9.9120   23.8590 N.am   19  GLY19      -0.1957
     10  CA        -0.4500    9.8830   23.7880 C.3    19  GLY19       0.1869
     11  C         -1.0220    9.3650   25.0870 C.2    19  GLY19       0.2309
     12  O         -0.3270    8.7030   25.8760 O.2    19  GLY19      -0.2863
     13  N         -0.5130    6.8600   20.5230 N.3    53  GLU53      -0.1245
     14  CA         0.9410    6.9260   20.3670 C.3    53  GLU53       0.1567
     15  C          1.3110    6.9640   18.8920 C.2    53  GLU53       0.2260
     16  O          2.1890    7.7180   18.4940 O.2    53  GLU53      -0.2867
     17  CB         1.6010    5.7270   21.0460 C.3    53  GLU53       0.0388
     18  CG         1.3830    5.6890   22.5650 C.3    53  GLU53       0.1160
     19  CD         2.3820    6.5210   23.3460 C.2    53  GLU53       0.3649
     20  OE1        2.3370    6.4530   24.5900 O.co2  53  GLU53      -0.2457
     21  OE2        3.2360    7.2080   22.7450 O.co2  53  GLU53      -0.2457
     22  N          8.1120    7.0790   23.9090 N.3    73  ASP73      -0.1225
     23  CA         8.2770    6.1850   25.0680 C.3    73  ASP73       0.1805
     24  C          7.4270    4.9060   24.9450 C.2    73  ASP73       0.2598
     25  O          7.3860    4.0660   25.8580 O.2    73  ASP73      -0.2718
     26  CB         8.0650    6.9140   26.4050 C.3    73  ASP73       0.1424
     27  CG         6.6530    7.4330   26.5880 C.2    73  ASP73       0.3668
     28  OD1        6.4590    8.3520   27.3960 O.co2  73  ASP73      -0.2456
     29  OD2        5.7410    6.8980   25.9560 O.co2  73  ASP73      -0.2456
     30  N          6.7910    4.7560   23.7890 N.am   74  SER74      -0.1938
     31  CA         5.9180    3.6180   23.5310 C.3    74  SER74       0.2055
     32  C          6.6730    2.4250   22.9380 C.2    74  SER74       0.2642
     33  O          7.1380    2.4880   21.7980 O.2    74  SER74      -0.2714
     34  CB         4.7920    4.0230   22.5720 C.3    74  SER74       0.2130
     35  OG         3.9690    2.9050   22.2450 O.3    74  SER74      -0.2179
     36  N          6.7630    1.3400   23.7070 N.am   75  GLN75      -0.1976
     37  CA         7.3040    0.0800   23.2030 C.3    75  GLN75       0.1601
     38  C          6.5130   -0.3700   21.9720 C.2    75  GLN75       0.2287
     39  O          7.0760   -0.8320   20.9850 O.2    75  GLN75      -0.2864
     40  CB         7.2290   -1.0170   24.2710 C.3    75  GLN75       0.0394
     41  CG         8.0460   -0.7630   25.5340 C.3    75  GLN75       0.0908
     42  CD         8.1720   -2.0200   26.3760 C.2    75  GLN75       0.2608
     43  OE1        8.9550   -2.9180   26.0490 O.2    75  GLN75      -0.2717
     44  NE2        7.3820   -2.1080   27.4510 N.am   75  GLN75      -0.0878
     45  N          9.3380    5.8840   29.8030 N.3   116  ALA116     -0.1231
     46  CA         8.3620    6.8260   30.3300 C.3   116  ALA116      0.1694
     47  C          8.6180    7.1700   31.7990 C.2   116  ALA116      0.2592
     48  O          9.1140    6.3430   32.5710 O.2   116  ALA116     -0.2718
     49  CB         6.9530    6.2570   30.1590 C.3   116  ALA116      0.0304
     50  N          8.2990    8.4100   32.1610 N.am  117  HIS117     -0.1962
     51  CA         8.2810    8.8250   33.5570 C.3   117  HIS117      0.1787
     52  C          9.6230    8.6420   34.2610 C.2   117  HIS117      0.2620
     53  O          9.6810    8.2660   35.4390 O.2   117  HIS117     -0.2715
     54  CB         7.1340    8.1190   34.2870 C.3   117  HIS117      0.0785
     55  CG         5.7920    8.4940   33.7490 C.ar  117  HIS117      0.0821
     56  ND1        5.2370    9.7440   33.9640 N.ar  117  HIS117     -0.2267
     57  CD2        4.9410    7.8450   32.9210 C.ar  117  HIS117      0.1154
     58  CE1        4.0770    9.8180   33.3450 C.ar  117  HIS117      0.1986
     59  NE2        3.8790    8.6860   32.6860 N.ar  117  HIS117     -0.2212
     60  N         10.6940    8.9480   33.5360 N.am  118  LYS118     -0.1977
     61  CA        12.0450    8.9410   34.0870 C.3   118  LYS118      0.1596
     62  C         12.7350   10.2900   33.9450 C.2   118  LYS118      0.2287
     63  O         13.9620   10.3600   33.8880 O.2   118  LYS118     -0.2864
     64  CB        12.9040    7.8640   33.4380 C.3   118  LYS118      0.0298
     65  CG        12.3970    6.4660   33.7090 C.3   118  LYS118      0.0038
     66  CD        13.5160    5.4330   33.6880 C.3   118  LYS118      0.0206
     67  CE        13.1080    4.2030   34.5000 C.3   118  LYS118      0.1093
     68  NZ        14.0730    3.0720   34.3780 N.3   118  LYS118     -0.1314
     69  N          4.0690   14.3480   27.9430 N.3   127  ASP127     -0.1239
     70  CA         3.1880   13.5020   28.7450 C.3   127  ASP127      0.1674
     71  C          2.1750   14.3570   29.5290 C.2   127  ASP127      0.2266
     72  O          0.9820   14.0380   29.5920 O.2   127  ASP127     -0.2867
     73  CB         3.9720   12.5980   29.7080 C.3   127  ASP127      0.1410
     74  CG         3.0600   11.9050   30.6980 C.2   127  ASP127      0.3668
     75  OD1        2.8540   12.4420   31.8080 O.co2 127  ASP127     -0.2456
     76  OD2        2.5090   10.8460   30.3260 O.co2 127  ASP127     -0.2456
     77  N         -6.0060   11.3250   31.6990 N.3   135  ARG135     -0.1245
     78  CA        -5.5250   10.4030   32.7190 C.3   135  ARG135      0.1563
     79  C         -5.8460   10.9280   34.1110 C.2   135  ARG135      0.2260
     80  O         -5.4480   12.0330   34.4740 O.2   135  ARG135     -0.2867
     81  CB        -4.0180   10.1750   32.5750 C.3   135  ARG135      0.0307
     82  CG        -3.4510    9.1300   33.5300 C.3   135  ARG135      0.0489
     83  CD        -1.9470    8.9420   33.3150 C.3   135  ARG135      0.2205
     84  NE        -1.1890   10.1470   33.6390 N.pl3 135  ARG135     -0.0865
     85  CZ        -0.0370   10.4900   33.0640 C.cat 135  ARG135      0.5346
     86  NH1        0.4970    9.7260   32.1160 N.pl3 135  ARG135      0.1354
     87  NH2        0.5780   11.6110   33.4270 N.pl3 135  ARG135      0.1354
@<TRIPOS>BOND
     1    16    15    2
     2    15    14    1
     3    14    13    1
     4    14    17    1
     5    39    38    2
     6    17    18    1
     7    33    32    2
     8    38    37    1
     9    35    34    1
    10     4     3    2
    11     1     2    1
    12    18    19    1
    13    34    31    1
    14    21    19   ar
    15    32    31    1
    16    32    36   am
    17    37    36    1
    18    37    40    1
    19     3     2    1
    20     3     9   am
    21    19    20   ar
    22     2     5    1
    23    31    30    1
    24    10     9    1
    25    10    11    1
    26    30    24   am
    27    22    23    1
    28    40    41    1
    29     5     6    1
    30    24    23    1
    31    24    25    2
    32    23    26    1
    33    11    12    2
    34    41    42    1
    35     7     6   ar
    36     6     8   ar
    37    29    27   ar
    38    43    42    2
    39    42    44   am
    40    26    27    1
    41    27    28   ar
    42    69    70    1
    43    70    71    1
    44    70    73    1
    45    71    72    2
    46    73    74    1
    47    45    46    1
    48    49    46    1
    49    76    74   ar
    50    46    47    1
    51    74    75   ar
    52    77    78    1
    53    47    50   am
    54    47    48    2
    55    86    85    1
    56    50    51    1
    57    81    78    1
    58    81    82    1
    59    59    57   ar
    60    59    58   ar
    61    78    79    1
    62    57    55   ar
    63    85    87    1
    64    85    84    2
    65    83    82    1
    66    83    84    1
    67    58    56   ar
    68    64    65    1
    69    64    61    1
    70    60    61    1
    71    60    52   am
    72    51    52    1
    73    51    54    1
    74    66    65    1
    75    66    67    1
    76    55    56   ar
    77    55    54    1
    78    63    62    2
    79    62    61    1
    80    79    80    2
    81    52    53    2
    82    68    67    1
