@<TRIPOS>MOLECULE
tmp/3qioA00.pdb
 75 69 0 0 0
SMALL
GASTEIGER

@<TRIPOS>ATOM
      1  N        -11.2080    2.4700  -10.7740 N.3    18  ASP18      -0.1225
      2  CA       -11.4110    1.1520  -10.1770 C.3    18  ASP18       0.1805
      3  C        -11.5240    1.2720   -8.6660 C.2    18  ASP18       0.2598
      4  O        -11.1420    2.2920   -8.0880 O.2    18  ASP18      -0.2718
      5  CB       -10.2570    0.2170  -10.5220 C.3    18  ASP18       0.1424
      6  CG       -10.6150   -1.2530  -10.3490 C.2    18  ASP18       0.3668
      7  OD1      -11.8170   -1.5710  -10.3620 O.co2  18  ASP18      -0.2456
      8  OD2       -9.6880   -2.0730  -10.2470 O.co2  18  ASP18      -0.2456
      9  N        -12.0520    0.2190   -8.0490 N.am   19  GLY19      -0.1957
     10  CA       -12.1160    0.1080   -6.5980 C.3    19  GLY19       0.1869
     11  C        -11.8250   -1.3200   -6.1720 C.2    19  GLY19       0.2309
     12  O        -11.9350   -2.2500   -6.9800 O.2    19  GLY19      -0.2863
     13  N        -16.4480    0.9450   -6.5600 N.3    53  GLU53      -0.1245
     14  CA       -16.5210    1.2860   -7.9820 C.3    53  GLU53       0.1567
     15  C        -17.2550    2.6170   -8.1720 C.2    53  GLU53       0.2260
     16  O        -16.8520    3.4520   -8.9900 O.2    53  GLU53      -0.2867
     17  CB       -17.2110    0.1780   -8.7870 C.3    53  GLU53       0.0388
     18  CG       -16.5820   -1.1980   -8.7100 C.3    53  GLU53       0.1160
     19  CD       -15.3480   -1.3580   -9.5820 C.2    53  GLU53       0.3649
     20  OE1      -14.7760   -2.4630   -9.5580 O.co2  53  GLU53      -0.2457
     21  OE2      -14.9410   -0.3950  -10.2710 O.co2  53  GLU53      -0.2457
     22  N        -14.5040   -0.9020  -15.2610 N.3    73  ASP73      -0.1225
     23  CA       -14.7150   -2.3440  -15.4420 C.3    73  ASP73       0.1805
     24  C        -15.9610   -2.8500  -14.7000 C.2    73  ASP73       0.2598
     25  O        -16.1920   -4.0540  -14.6050 O.2    73  ASP73      -0.2718
     26  CB       -13.4610   -3.1850  -15.1020 C.3    73  ASP73       0.1424
     27  CG       -13.0330   -3.0680  -13.6500 C.2    73  ASP73       0.3668
     28  OD1      -11.8380   -3.2920  -13.3730 O.co2  73  ASP73      -0.2456
     29  OD2      -13.8800   -2.7690  -12.7940 O.co2  73  ASP73      -0.2456
     30  N        -16.7700   -1.9170  -14.2120 N.am   74  SER74      -0.1952
     31  CA       -17.9770   -2.2380  -13.4600 C.3    74  SER74       0.1924
     32  C        -19.2630   -2.0490  -14.2630 C.2    74  SER74       0.2314
     33  O        -19.7000   -0.9210  -14.4920 O.2    74  SER74      -0.2863
     34  CB       -18.0360   -1.3640  -12.2050 C.3    74  SER74       0.2116
     35  OG       -19.2360   -1.5900  -11.4850 O.3    74  SER74      -0.2180
     36  N        -12.2880   -6.5120  -16.4730 N.3   115  ALA115     -0.1231
     37  CA       -11.1980   -6.5330  -15.5010 C.3   115  ALA115      0.1694
     38  C        -10.2150   -7.6630  -15.7960 C.2   115  ALA115      0.2592
     39  O        -10.5990   -8.7210  -16.3060 O.2   115  ALA115     -0.2718
     40  CB       -11.7460   -6.6840  -14.0910 C.3   115  ALA115      0.0304
     41  N         -8.9480   -7.4230  -15.4710 N.am  116  HIS116     -0.1976
     42  CA        -7.9010   -8.4320  -15.5790 C.3   116  HIS116      0.1656
     43  C         -7.8240   -9.0870  -16.9530 C.2   116  HIS116      0.2291
     44  O         -7.7020  -10.3060  -17.0800 O.2   116  HIS116     -0.2864
     45  CB        -8.0290   -9.4420  -14.4410 C.3   116  HIS116      0.0771
     46  CG        -7.8990   -8.8020  -13.0980 C.ar  116  HIS116      0.0820
     47  ND1       -6.6860   -8.3910  -12.5910 N.ar  116  HIS116     -0.2267
     48  CD2       -8.8350   -8.4150  -12.2020 C.ar  116  HIS116      0.1154
     49  CE1       -6.8770   -7.8160  -11.4170 C.ar  116  HIS116      0.1986
     50  NE2       -8.1730   -7.8120  -11.1620 N.ar  116  HIS116     -0.2212
     51  N         -6.0410   -0.7350  -11.1910 N.3   126  ASP126     -0.1239
     52  CA        -6.2850   -1.9160  -10.3600 C.3   126  ASP126      0.1674
     53  C         -5.1320   -2.1710   -9.3860 C.2   126  ASP126      0.2266
     54  O         -5.3580   -2.4930   -8.2160 O.2   126  ASP126     -0.2867
     55  CB        -6.5240   -3.1690  -11.2060 C.3   126  ASP126      0.1410
     56  CG        -6.5900   -4.4260  -10.3500 C.2   126  ASP126      0.3668
     57  OD1       -7.6720   -4.6930   -9.8030 O.co2 126  ASP126     -0.2456
     58  OD2       -5.5580   -5.1190  -10.2210 O.co2 126  ASP126     -0.2456
     59  N         -5.8530   -2.0740   -5.3390 N.3   130  SER130     -0.1217
     60  CA        -5.8940   -3.4230   -4.7810 C.3   130  SER130      0.1889
     61  C         -4.7730   -3.6680   -3.7750 C.2   130  SER130      0.2288
     62  O         -4.8510   -4.5820   -2.9460 O.2   130  SER130     -0.2866
     63  CB        -5.8380   -4.4640   -5.9020 C.3   130  SER130      0.2089
     64  OG        -6.9810   -4.3650   -6.7350 O.3   130  SER130     -0.2183
     65  N         -6.4510   -6.6060   -1.7440 N.3   134  ARG134     -0.1245
     66  CA        -6.5790   -7.9210   -2.3740 C.3   134  ARG134      0.1563
     67  C         -5.2100   -8.5860   -2.4950 C.2   134  ARG134      0.2260
     68  O         -4.2500   -7.9650   -2.9410 O.2   134  ARG134     -0.2867
     69  CB        -7.2090   -7.7820   -3.7680 C.3   134  ARG134      0.0307
     70  CG        -7.5560   -9.1100   -4.4350 C.3   134  ARG134      0.0489
     71  CD        -7.9770   -8.8990   -5.8950 C.3   134  ARG134      0.2205
     72  NE        -6.8310   -8.5500   -6.7310 N.pl3 134  ARG134     -0.0865
     73  CZ        -6.8170   -7.5510   -7.6100 C.cat 134  ARG134      0.5346
     74  NH1       -7.8910   -6.8000   -7.7720 N.pl3 134  ARG134      0.1354
     75  NH2       -5.7240   -7.3050   -8.3210 N.pl3 134  ARG134      0.1354
@<TRIPOS>BOND
     1    44    43    2
     2    43    42    1
     3    36    37    1
     4    39    38    2
     5    38    37    1
     6    38    41   am
     7    42    41    1
     8    42    45    1
     9    37    40    1
    10    23    22    1
    11    23    26    1
    12    23    24    1
    13    26    27    1
    14    24    25    2
    15    24    30   am
    16    33    32    2
    17    45    46    1
    18    32    31    1
    19    30    31    1
    20    27    28   ar
    21    27    29   ar
    22    31    34    1
    23    46    47   ar
    24    46    48   ar
    25    47    49   ar
    26    34    35    1
    27    48    50   ar
    28    49    50   ar
    29    55    52    1
    30    55    56    1
    31    51    52    1
    32     1     2    1
    33     5     6    1
    34     5     2    1
    35     7     6   ar
    36    52    53    1
    37    56    58   ar
    38    56    57   ar
    39     6     8   ar
    40    21    19   ar
    41     2     3    1
    42    19    20   ar
    43    19    18    1
    44    53    54    2
    45    16    15    2
    46    17    18    1
    47    17    14    1
    48     3     4    2
    49     3     9   am
    50    75    73    1
    51    15    14    1
    52     9    10    1
    53    14    13    1
    54    74    73    1
    55    73    72    2
    56    12    11    2
    57    64    63    1
    58    72    71    1
    59    10    11    1
    60    63    60    1
    61    71    70    1
    62    59    60    1
    63    60    61    1
    64    70    69    1
    65    61    62    2
    66    69    66    1
    67    68    67    2
    68    67    66    1
    69    66    65    1
