@<TRIPOS>MOLECULE
tmp/3qipA01.pdb
 102 98 0 0 0
SMALL
GASTEIGER

@<TRIPOS>ATOM
      1  N        -12.2450   71.5590   31.4700 N.3   441  ASP441     -0.1225
      2  CA       -11.0950   71.5020   32.3680 C.3   441  ASP441      0.1805
      3  C        -11.4090   70.8140   33.6870 C.2   441  ASP441      0.2598
      4  O        -12.5530   70.4440   33.9540 O.2   441  ASP441     -0.2718
      5  CB       -10.5080   72.8820   32.6210 C.3   441  ASP441      0.1424
      6  CG        -9.0570   72.8120   33.0450 C.2   441  ASP441      0.3668
      7  OD1       -8.5160   73.8080   33.5590 O.co2 441  ASP441     -0.2456
      8  OD2       -8.4560   71.7420   32.8590 O.co2 441  ASP441     -0.2456
      9  N        -10.3820   70.6270   34.5050 N.am  442  GLY442     -0.1957
     10  CA       -10.5360   69.8870   35.7420 C.3   442  GLY442      0.1869
     11  C         -9.4670   70.2190   36.7620 C.2   442  GLY442      0.2309
     12  O         -8.3520   70.6050   36.4210 O.2   442  GLY442     -0.2863
     13  N         -5.9830   64.7350   39.2840 N.3   472  ASN472     -0.1240
     14  CA        -5.9790   65.8270   38.3230 C.3   472  ASN472      0.1653
     15  C         -6.2060   65.3100   36.9130 C.2   472  ASN472      0.2266
     16  O         -6.6930   66.0320   36.0450 O.2   472  ASN472     -0.2867
     17  CB        -4.6750   66.6110   38.3980 C.3   472  ASN472      0.1155
     18  CG        -4.7480   67.7570   39.3840 C.2   472  ASN472      0.2627
     19  OD1       -4.4780   67.5860   40.5740 O.2   472  ASN472     -0.2716
     20  ND2       -5.1240   68.9340   38.8950 N.am  472  ASN472     -0.0877
     21  N         -9.8190   65.6770   34.3010 N.3   476  GLU476     -0.1245
     22  CA        -9.6890   65.9990   32.8820 C.3   476  GLU476      0.1567
     23  C        -10.6060   65.1240   32.0310 C.2   476  GLU476      0.2260
     24  O        -11.2820   65.6260   31.1420 O.2   476  GLU476     -0.2867
     25  CB        -8.2390   65.8430   32.4230 C.3   476  GLU476      0.0388
     26  CG        -7.2720   66.8380   33.0380 C.3   476  GLU476      0.1160
     27  CD        -7.6040   68.2820   32.6900 C.2   476  GLU476      0.3649
     28  OE1       -8.4800   68.5180   31.8310 O.co2 476  GLU476     -0.2457
     29  OE2       -6.9830   69.1860   33.2800 O.co2 476  GLU476     -0.2457
     30  N         -7.0230   71.1710   27.6100 N.3   496  ASP496     -0.1225
     31  CA        -5.6250   71.5710   27.7300 C.3   496  ASP496      0.1805
     32  C         -4.8010   70.4210   28.3240 C.2   496  ASP496      0.2598
     33  O         -3.6770   70.6130   28.7740 O.2   496  ASP496     -0.2718
     34  CB        -5.4610   72.8700   28.5360 C.3   496  ASP496      0.1424
     35  CG        -5.9520   72.7440   29.9680 C.2   496  ASP496      0.3668
     36  OD1       -5.9880   73.7760   30.6810 O.co2 496  ASP496     -0.2456
     37  OD2       -6.3110   71.6260   30.3770 O.co2 496  ASP496     -0.2456
     38  N         -5.3860   69.2300   28.3200 N.am  497  SER497     -0.1952
     39  CA        -4.7310   68.0270   28.8450 C.3   497  SER497      0.1924
     40  C         -4.2080   67.1250   27.7290 C.2   497  SER497      0.2314
     41  O         -4.9880   66.3840   27.1290 O.2   497  SER497     -0.2863
     42  CB        -5.7290   67.2250   29.6900 C.3   497  SER497      0.2116
     43  OG        -5.1700   66.0050   30.1570 O.3   497  SER497     -0.2180
     44  N         -6.6750   70.8140   21.2870 N.3   533  TRP533     -0.1241
     45  CA        -5.8870   71.0880   22.4760 C.3   533  TRP533      0.1605
     46  C         -5.2780   72.4830   22.4650 C.2   533  TRP533      0.2264
     47  O         -4.9010   73.0190   21.4160 O.2   533  TRP533     -0.2867
     48  CB        -4.7850   70.0300   22.6300 C.3   533  TRP533      0.0550
     49  CG        -3.8310   70.2670   23.7720 C.ar  533  TRP533      0.0003
     50  CD1       -3.8930   69.7160   25.0240 C.ar  533  TRP533      0.0946
     51  CD2       -2.6670   71.0940   23.7580 C.ar  533  TRP533      0.0152
     52  NE1       -2.8370   70.1520   25.7880 N.ar  533  TRP533     -0.2442
     53  CE2       -2.0690   71.0000   25.0350 C.ar  533  TRP533      0.0810
     54  CE3       -2.0690   71.9110   22.7920 C.ar  533  TRP533      0.0012
     55  CZ2       -0.9090   71.6870   25.3650 C.ar  533  TRP533      0.0191
     56  CZ3       -0.9040   72.5850   23.1250 C.ar  533  TRP533      0.0001
     57  CH2       -0.3430   72.4730   24.4020 C.ar  533  TRP533      0.0015
     58  N         -2.6510   75.0980   25.1420 N.3   535  PRO535     -0.2102
     59  CA        -1.7930   75.1800   26.3230 C.3   535  PRO535      0.1504
     60  C         -2.5000   75.8820   27.4790 C.2   535  PRO535      0.2576
     61  O         -3.0590   76.9590   27.2910 O.2   535  PRO535     -0.2718
     62  CB        -0.6120   76.0220   25.8350 C.3   535  PRO535      0.0282
     63  CG        -1.1570   76.8160   24.6990 C.3   535  PRO535      0.0208
     64  CD        -2.1660   75.9380   24.0360 C.3   535  PRO535      0.0893
     65  N         -2.4740   75.2650   28.6540 N.am  536  ALA536     -0.1966
     66  CA        -3.0420   75.8520   29.8600 C.3   536  ALA536      0.1728
     67  C         -2.3850   77.1980   30.2120 C.2   536  ALA536      0.2616
     68  O         -1.2070   77.4170   29.9380 O.2   536  ALA536     -0.2715
     69  CB        -2.9100   74.8730   31.0220 C.3   536  ALA536      0.0334
     70  N         -3.1630   78.0980   30.8080 N.am  537  HIS537     -0.1959
     71  CA        -2.6470   79.3830   31.2830 C.3   537  HIS537      0.1787
     72  C         -1.8330   80.1780   30.2560 C.2   537  HIS537      0.2620
     73  O         -0.8180   80.7930   30.5920 O.2   537  HIS537     -0.2715
     74  CB        -1.8570   79.1810   32.5760 C.3   537  HIS537      0.0785
     75  CG        -2.6770   78.5850   33.6770 C.ar  537  HIS537      0.0821
     76  ND1       -3.6490   79.2960   34.3450 N.ar  537  HIS537     -0.2267
     77  CD2       -2.6980   77.3360   34.2010 C.ar  537  HIS537      0.1154
     78  CE1       -4.2220   78.5170   35.2450 C.ar  537  HIS537      0.1986
     79  NE2       -3.6640   77.3210   35.1780 N.ar  537  HIS537     -0.2212
     80  N         -2.2820   80.1560   29.0060 N.am  538  LYS538     -0.1977
     81  CA        -1.7510   81.0540   27.9870 C.3   538  LYS538      0.1596
     82  C         -2.7410   82.1810   27.7740 C.2   538  LYS538      0.2287
     83  O         -2.6020   82.9770   26.8420 O.2   538  LYS538     -0.2864
     84  CB        -1.5240   80.3220   26.6650 C.3   538  LYS538      0.0298
     85  CG        -0.1430   79.7280   26.5000 C.3   538  LYS538      0.0038
     86  CD         0.9420   80.7930   26.3850 C.3   538  LYS538      0.0206
     87  CE         1.7570   80.8590   27.6650 C.3   538  LYS538      0.1093
     88  NZ         2.1490   79.4970   28.1560 N.3   538  LYS538     -0.1314
     89  N        -10.9290   77.0860   33.4360 N.3   547  ASP547     -0.1239
     90  CA        -9.8720   76.9310   34.4380 C.3   547  ASP547      0.1674
     91  C        -10.3130   77.6480   35.7100 C.2   547  ASP547      0.2266
     92  O        -10.3640   77.0570   36.7930 O.2   547  ASP547     -0.2867
     93  CB        -8.5480   77.5030   33.9310 C.3   547  ASP547      0.1410
     94  CG        -7.4870   77.5910   35.0220 C.2   547  ASP547      0.3668
     95  OD1       -6.8540   76.5620   35.3350 O.co2 547  ASP547     -0.2456
     96  OD2       -7.2750   78.6950   35.5630 O.co2 547  ASP547     -0.2456
     97  N        -11.2720   75.6250   39.3050 N.3   551  SER551     -0.1217
     98  CA       -10.1860   75.8360   40.2660 C.3   551  SER551      0.1889
     99  C        -10.6320   76.5220   41.5630 C.2   551  SER551      0.2288
    100  O         -9.8250   76.7220   42.4760 O.2   551  SER551     -0.2866
    101  CB        -9.0300   76.6160   39.6250 C.3   551  SER551      0.2089
    102  OG        -8.1770   75.7610   38.8780 O.3   551  SER551     -0.2183
@<TRIPOS>BOND
     1    44    45    1
     2    47    46    2
     3    46    45    1
     4    45    48    1
     5    48    49    1
     6    54    56   ar
     7    54    51   ar
     8    56    57   ar
     9    51    49   ar
    10    51    53   ar
    11    49    50   ar
    12    64    63    1
    13    64    58    1
    14    57    55   ar
    15    63    62    1
    16    50    52   ar
    17    53    55   ar
    18    53    52   ar
    19    58    59    1
    20    62    59    1
    21    59    60    1
    22    86    85    1
    23    86    87    1
    24    85    84    1
    25    84    81    1
    26    83    82    2
    27    41    40    2
    28    61    60    2
    29    60    65   am
    30    30    31    1
    31    87    88    1
    32    40    39    1
    33    31    32    1
    34    31    34    1
    35    82    81    1
    36    81    80    1
    37    38    32   am
    38    38    39    1
    39    32    33    2
    40    34    35    1
    41    65    66    1
    42    39    42    1
    43    80    72   am
    44    42    43    1
    45    66    67    1
    46    66    69    1
    47    68    67    2
    48    35    37   ar
    49    35    36   ar
    50    67    70   am
    51    72    73    2
    52    72    71    1
    53    70    71    1
    54    24    23    2
    55    71    74    1
    56     1     2    1
    57    28    27   ar
    58    23    22    1
    59     2     5    1
    60     2     3    1
    61    25    22    1
    62    25    26    1
    63    74    75    1
    64     5     6    1
    65    27    26    1
    66    27    29   ar
    67     8     6   ar
    68    22    21    1
    69     6     7   ar
    70    89    90    1
    71    75    77   ar
    72    75    76   ar
    73     3     4    2
    74     3     9   am
    75    93    90    1
    76    93    94    1
    77    77    79   ar
    78    76    78   ar
    79    90    91    1
    80     9    10    1
    81    94    95   ar
    82    94    96   ar
    83    79    78   ar
    84    91    92    2
    85    10    11    1
    86    16    15    2
    87    12    11    2
    88    15    14    1
    89    14    17    1
    90    14    13    1
    91    17    18    1
    92   102   101    1
    93    20    18   am
    94    97    98    1
    95    18    19    2
    96   101    98    1
    97    98    99    1
    98    99   100    2
