@<TRIPOS>MOLECULE
tmp/3qiuA00.pdb
 195 189 0 0 0
SMALL
GASTEIGER

@<TRIPOS>ATOM
      1  N        -18.4950   10.4540   -5.1310 N.3     7  GLN7       -0.1245
      2  CA       -17.1850   11.0380   -5.3730 C.3     7  GLN7        0.1566
      3  C        -17.2830   12.5360   -5.1230 C.2     7  GLN7        0.2260
      4  O        -17.8040   13.2770   -5.9560 O.2     7  GLN7       -0.2867
      5  CB       -16.7310   10.7750   -6.8100 C.3     7  GLN7        0.0367
      6  CG       -15.5250   11.5990   -7.2440 C.3     7  GLN7        0.0905
      7  CD       -15.1220   11.3370   -8.6820 C.2     7  GLN7        0.2608
      8  OE1      -15.3610   10.2550   -9.2160 O.2     7  GLN7       -0.2717
      9  NE2      -14.5010   12.3260   -9.3140 N.am    7  GLN7       -0.0878
     10  N        -15.5130   16.1620   -4.5060 N.3     9  GLU9       -0.1245
     11  CA       -14.2940   16.9320   -4.7200 C.3     9  GLU9        0.1567
     12  C        -14.5920   18.4250   -4.7640 C.2     9  GLU9        0.2260
     13  O        -15.7170   18.8330   -5.0530 O.2     9  GLU9       -0.2867
     14  CB       -13.6170   16.5030   -6.0200 C.3     9  GLU9        0.0388
     15  CG       -14.4920   16.6710   -7.2480 C.3     9  GLU9        0.1160
     16  CD       -13.8070   16.2070   -8.5180 C.2     9  GLU9        0.3649
     17  OE1      -12.8400   16.8690   -8.9490 O.co2   9  GLU9       -0.2457
     18  OE2      -14.2390   15.1830   -9.0910 O.co2   9  GLU9       -0.2457
     19  N        -10.3430   15.4410   -2.5920 N.3    20  PHE20      -0.1241
     20  CA       -10.9280   14.3990   -3.4210 C.3    20  PHE20       0.1605
     21  C        -11.1260   13.1640   -2.5560 C.2    20  PHE20       0.2264
     22  O        -10.1600   12.5250   -2.1380 O.2    20  PHE20      -0.2867
     23  CB       -10.0140   14.0760   -4.6040 C.3    20  PHE20       0.0534
     24  CG       -10.5970   13.0820   -5.5760 C.ar   20  PHE20      -0.0203
     25  CD1      -10.6070   11.7270   -5.2840 C.ar   20  PHE20      -0.0042
     26  CD2      -11.1140   13.5020   -6.7920 C.ar   20  PHE20      -0.0042
     27  CE1      -11.1350   10.8140   -6.1770 C.ar   20  PHE20      -0.0003
     28  CE2      -11.6430   12.5940   -7.6910 C.ar   20  PHE20      -0.0003
     29  CZ       -11.6550   11.2480   -7.3830 C.ar   20  PHE20      -0.0000
     30  N        -13.9950    9.6590   -1.5230 N.3    22  PHE22      -0.1241
     31  CA       -15.1330    8.8260   -1.8780 C.3    22  PHE22       0.1605
     32  C        -15.9690    8.5480   -0.6360 C.2    22  PHE22       0.2264
     33  O        -15.4510    8.5230    0.4790 O.2    22  PHE22      -0.2867
     34  CB       -14.6690    7.5190   -2.5180 C.3    22  PHE22       0.0534
     35  CG       -14.6620    7.5500   -4.0190 C.ar   22  PHE22      -0.0203
     36  CD1      -13.8340    8.4210   -4.7040 C.ar   22  PHE22      -0.0042
     37  CD2      -15.4800    6.7020   -4.7450 C.ar   22  PHE22      -0.0042
     38  CE1      -13.8260    8.4510   -6.0850 C.ar   22  PHE22      -0.0003
     39  CE2      -15.4760    6.7260   -6.1250 C.ar   22  PHE22      -0.0003
     40  CZ       -14.6470    7.6010   -6.7970 C.ar   22  PHE22      -0.0000
     41  N        -14.7940    6.2380    2.2640 N.3    29  ILE29      -0.1231
     42  CA       -14.0460    5.0620    1.8360 C.3    29  ILE29       0.1692
     43  C        -12.5610    5.3990    1.8480 C.2    29  ILE29       0.2592
     44  O        -11.7470    4.6850    2.4340 O.2    29  ILE29      -0.2718
     45  CB       -14.4470    4.6170    0.4180 C.3    29  ILE29       0.0266
     46  CG1      -15.9660    4.4570    0.3150 C.3    29  ILE29       0.0019
     47  CG2      -13.7400    3.3240    0.0460 C.3    29  ILE29       0.0020
     48  CD1      -16.4440    4.0440   -1.0600 C.3    29  ILE29       0.0001
     49  N        -12.2220    6.5030    1.1930 N.am   30  PHE30      -0.1976
     50  CA       -10.8570    7.0050    1.1780 C.3    30  PHE30       0.1639
     51  C        -10.8640    8.4620    0.7570 C.2    30  PHE30       0.2290
     52  O        -11.9100    9.0250    0.4360 O.2    30  PHE30      -0.2864
     53  CB        -9.9920    6.2040    0.2010 C.3    30  PHE30       0.0560
     54  CG       -10.3290    6.4450   -1.2470 C.ar   30  PHE30      -0.0200
     55  CD1       -9.7680    7.5090   -1.9370 C.ar   30  PHE30      -0.0042
     56  CD2      -11.2070    5.6090   -1.9180 C.ar   30  PHE30      -0.0042
     57  CE1      -10.0770    7.7340   -3.2680 C.ar   30  PHE30      -0.0003
     58  CE2      -11.5190    5.8270   -3.2510 C.ar   30  PHE30      -0.0003
     59  CZ       -10.9530    6.8900   -3.9270 C.ar   30  PHE30      -0.0000
     60  N         -6.7700    5.3050    2.9160 N.3    41  TRP41      -0.1241
     61  CA        -7.9870    4.5530    3.2140 C.3    41  TRP41       0.1605
     62  C         -8.5110    4.8970    4.6030 C.2    41  TRP41       0.2264
     63  O         -7.7370    5.0130    5.5510 O.2    41  TRP41      -0.2867
     64  CB        -7.7390    3.0470    3.0940 C.3    41  TRP41       0.0550
     65  CG        -7.2670    2.6340    1.7380 C.ar   41  TRP41       0.0003
     66  CD1       -5.9830    2.3570    1.3650 C.ar   41  TRP41       0.0946
     67  CD2       -8.0710    2.4650    0.5650 C.ar   41  TRP41       0.0152
     68  NE1       -5.9390    2.0210    0.0330 N.ar   41  TRP41      -0.2442
     69  CE2       -7.2070    2.0810   -0.4810 C.ar   41  TRP41       0.0810
     70  CE3       -9.4360    2.6010    0.2970 C.ar   41  TRP41       0.0012
     71  CZ2       -7.6650    1.8310   -1.7740 C.ar   41  TRP41       0.0191
     72  CZ3       -9.8890    2.3510   -0.9860 C.ar   41  TRP41       0.0001
     73  CH2       -9.0060    1.9690   -2.0050 C.ar   41  TRP41       0.0015
     74  N         -7.5620   -1.4430    2.0070 N.3    47  ALA47      -0.1231
     75  CA        -6.4820   -1.5030    1.0250 C.3    47  ALA47       0.1694
     76  C         -6.3550   -2.8670    0.3530 C.2    47  ALA47       0.2592
     77  O         -5.8600   -2.9670   -0.7690 O.2    47  ALA47      -0.2718
     78  CB        -5.1660   -1.1100    1.6720 C.3    47  ALA47       0.0304
     79  N         -6.7970   -3.9130    1.0420 N.am   48  LYS48      -0.1966
     80  CA        -6.6650   -5.2730    0.5320 C.3    48  LYS48       0.1728
     81  C         -7.7210   -5.5960   -0.5170 C.2    48  LYS48       0.2616
     82  O         -7.5820   -6.5570   -1.2720 O.2    48  LYS48      -0.2715
     83  CB        -6.7460   -6.2890    1.6770 C.3    48  LYS48       0.0311
     84  CG        -5.7130   -6.0830    2.7760 C.3    48  LYS48       0.0038
     85  CD        -5.5620   -7.3310    3.6390 C.3    48  LYS48       0.0206
     86  CE        -6.8560   -7.6860    4.3610 C.3    48  LYS48       0.1093
     87  NZ        -7.1640   -6.7420    5.4700 N.3    48  LYS48      -0.1314
     88  N         -8.7760   -4.7900   -0.5650 N.am   49  PHE49      -0.1960
     89  CA        -9.9100   -5.0820   -1.4360 C.3    49  PHE49       0.1771
     90  C        -10.0030   -4.1690   -2.6490 C.2    49  PHE49       0.2619
     91  O        -10.8010   -4.4160   -3.5510 O.2    49  PHE49      -0.2715
     92  CB       -11.2200   -5.0210   -0.6500 C.3    49  PHE49       0.0574
     93  CG       -11.3630   -6.1060    0.3760 C.ar   49  PHE49      -0.0200
     94  CD1      -11.8790   -7.3440    0.0270 C.ar   49  PHE49      -0.0042
     95  CD2      -10.9840   -5.8880    1.6910 C.ar   49  PHE49      -0.0042
     96  CE1      -12.0140   -8.3450    0.9700 C.ar   49  PHE49      -0.0003
     97  CE2      -11.1150   -6.8860    2.6370 C.ar   49  PHE49      -0.0003
     98  CZ       -11.6310   -8.1170    2.2760 C.ar   49  PHE49      -0.0000
     99  N         -9.1980   -3.1140   -2.6760 N.am   50  ALA50      -0.1963
    100  CA        -9.2710   -2.1600   -3.7750 C.3    50  ALA50       0.1728
    101  C         -8.0560   -1.2440   -3.8550 C.2    50  ALA50       0.2617
    102  O         -7.2110   -1.2300   -2.9650 O.2    50  ALA50      -0.2715
    103  CB       -10.5500   -1.3370   -3.6720 C.3    50  ALA50       0.0334
    104  N         -7.9810   -0.4820   -4.9390 N.am   51  SER51      -0.1936
    105  CA        -6.9150    0.4880   -5.1310 C.3    51  SER51       0.2055
    106  C         -7.4250    1.6830   -5.9190 C.2    51  SER51       0.2643
    107  O         -8.4380    1.5970   -6.6090 O.2    51  SER51      -0.2714
    108  CB        -5.7330   -0.1480   -5.8620 C.3    51  SER51       0.2130
    109  OG        -5.0720   -1.0910   -5.0360 O.3    51  SER51      -0.2179
    110  N         -6.7200    2.8020   -5.8130 N.am   52  PHE52      -0.1959
    111  CA        -7.0720    3.9870   -6.5780 C.3    52  PHE52       0.1771
    112  C         -5.8290    4.8030   -6.8890 C.2    52  PHE52       0.2619
    113  O         -5.1100    5.2230   -5.9830 O.2    52  PHE52      -0.2715
    114  CB        -8.0940    4.8440   -5.8270 C.3    52  PHE52       0.0574
    115  CG        -8.5160    6.0770   -6.5770 C.ar   52  PHE52      -0.0200
    116  CD1       -9.4310    5.9930   -7.6150 C.ar   52  PHE52      -0.0042
    117  CD2       -7.9940    7.3190   -6.2500 C.ar   52  PHE52      -0.0042
    118  CE1       -9.8190    7.1240   -8.3110 C.ar   52  PHE52      -0.0003
    119  CE2       -8.3800    8.4540   -6.9420 C.ar   52  PHE52      -0.0003
    120  CZ        -9.2920    8.3550   -7.9740 C.ar   52  PHE52      -0.0000
    121  N         -5.5730    5.0150   -8.1750 N.am   53  GLU53      -0.1977
    122  CA        -4.4420    5.8280   -8.5970 C.3    53  GLU53       0.1602
    123  C         -4.6810    7.2770   -8.1870 C.2    53  GLU53       0.2287
    124  O         -5.5860    7.9340   -8.7010 O.2    53  GLU53      -0.2864
    125  CB        -4.2300    5.7100  -10.1070 C.3    53  GLU53       0.0415
    126  CG        -3.9030    4.2920  -10.5630 C.3    53  GLU53       0.1163
    127  CD        -3.7900    4.1550  -12.0750 C.2    53  GLU53       0.3649
    128  OE1       -4.4210    4.9510  -12.8030 O.co2  53  GLU53      -0.2457
    129  OE2       -3.0740    3.2390  -12.5340 O.co2  53  GLU53      -0.2457
    130  N         -5.2260   10.5840  -10.6850 N.3    56  GLY56      -0.1225
    131  CA        -6.5190   11.0290  -11.1710 C.3    56  GLY56       0.1811
    132  C         -7.1320   12.1270  -10.3230 C.2    56  GLY56       0.2280
    133  O         -7.7330   13.0680  -10.8440 O.2    56  GLY56      -0.2866
    134  N         -5.4290   15.4260  -10.8160 N.3    59  ALA59      -0.1231
    135  CA        -5.8420   15.9210  -12.1220 C.3    59  ALA59       0.1694
    136  C         -7.1860   16.6310  -12.0170 C.2    59  ALA59       0.2592
    137  O         -7.3150   17.7920  -12.4080 O.2    59  ALA59      -0.2718
    138  CB        -5.9170   14.7810  -13.1240 C.3    59  ALA59       0.0304
    139  N         -8.1830   15.9270  -11.4870 N.am   60  ASN60      -0.1974
    140  CA        -9.4950   16.5220  -11.2600 C.3    60  ASN60       0.1688
    141  C         -9.3900   17.8380  -10.5040 C.2    60  ASN60       0.2292
    142  O         -9.9890   18.8390  -10.8980 O.2    60  ASN60      -0.2864
    143  CB       -10.4110   15.5580  -10.5030 C.3    60  ASN60       0.1181
    144  CG       -11.1390   14.6000  -11.4210 C.2    60  ASN60       0.2629
    145  OD1      -10.7370   14.3860  -12.5640 O.2    60  ASN60      -0.2716
    146  ND2      -12.2230   14.0170  -10.9250 N.am   60  ASN60      -0.0877
    147  N         -8.3990   20.7480  -12.4920 N.3    63  VAL63      -0.1231
    148  CA        -9.5320   21.1770  -13.3020 C.3    63  VAL63       0.1692
    149  C        -10.5460   21.9330  -12.4480 C.2    63  VAL63       0.2592
    150  O        -11.1560   22.9010  -12.9070 O.2    63  VAL63      -0.2718
    151  CB       -10.2150   19.9840  -13.9930 C.3    63  VAL63       0.0266
    152  CG1      -11.4210   20.4500  -14.7930 C.3    63  VAL63       0.0020
    153  CG2       -9.2250   19.2630  -14.8860 C.3    63  VAL63       0.0020
    154  N        -10.7210   21.4900  -11.2050 N.am   64  ASP64      -0.1974
    155  CA       -11.5760   22.1980  -10.2570 C.3    64  ASP64       0.1709
    156  C        -11.0470   23.6080  -10.0320 C.2    64  ASP64       0.2293
    157  O        -11.8140   24.5650   -9.9560 O.2    64  ASP64      -0.2864
    158  CB       -11.6410   21.4600   -8.9190 C.3    64  ASP64       0.1436
    159  CG       -12.2540   20.0790   -9.0370 C.2    64  ASP64       0.3671
    160  OD1      -13.3460   19.9490   -9.6300 O.co2  64  ASP64      -0.2456
    161  OD2      -11.6460   19.1210   -8.5170 O.co2  64  ASP64      -0.2456
    162  N        -11.9600   25.6010  -13.1400 N.3    67  ASN67      -0.1240
    163  CA       -13.3900   25.8840  -13.1110 C.3    67  ASN67       0.1653
    164  C        -13.7700   26.9520  -12.0860 C.2    67  ASN67       0.2266
    165  O        -14.6660   27.7620  -12.3270 O.2    67  ASN67      -0.2867
    166  CB       -14.1850   24.6030  -12.8510 C.3    67  ASN67       0.1155
    167  CG       -14.1480   23.6460  -14.0270 C.2    67  ASN67       0.2627
    168  OD1      -13.7910   24.0280  -15.1430 O.2    67  ASN67      -0.2716
    169  ND2      -14.5240   22.3940  -13.7830 N.am   67  ASN67      -0.0877
    170  N        -13.3320   30.2820  -13.4410 N.3    70  VAL70      -0.1231
    171  CA       -14.4570   30.4950  -14.3400 C.3    70  VAL70       0.1692
    172  C        -15.6840   30.9440  -13.5560 C.2    70  VAL70       0.2591
    173  O        -16.2970   31.9610  -13.8740 O.2    70  VAL70      -0.2718
    174  CB       -14.7970   29.2160  -15.1370 C.3    70  VAL70       0.0266
    175  CG1      -16.2370   29.2510  -15.6200 C.3    70  VAL70       0.0020
    176  CG2      -13.8330   29.0390  -16.3030 C.3    70  VAL70       0.0020
    177  N        -16.0320   30.1850  -12.5220 N.am   71  MET71      -0.1979
    178  CA       -17.2090   30.4860  -11.7140 C.3    71  MET71       0.1605
    179  C        -17.1250   31.8500  -11.0320 C.2    71  MET71       0.2287
    180  O        -18.1390   32.5220  -10.8540 O.2    71  MET71      -0.2864
    181  CB       -17.4470   29.3890  -10.6730 C.3    71  MET71       0.0413
    182  CG       -17.7770   28.0420  -11.2810 C.3    71  MET71       0.0598
    183  SD       -19.0260   28.1970  -12.5700 S.3    71  MET71      -0.1393
    184  CE       -20.4370   27.4130  -11.7960 C.3    71  MET71       0.0692
    185  N        -17.7680   34.5610  -13.6370 N.3    74  ARG74      -0.1245
    186  CA       -19.1530   34.4880  -14.0860 C.3    74  ARG74       0.1563
    187  C        -20.1000   35.1800  -13.1110 C.2    74  ARG74       0.2260
    188  O        -21.1400   35.7040  -13.5120 O.2    74  ARG74      -0.2867
    189  CB       -19.5810   33.0310  -14.2820 C.3    74  ARG74       0.0307
    190  CG       -20.9820   32.8680  -14.8540 C.3    74  ARG74       0.0489
    191  CD       -21.3570   31.4000  -14.9940 C.3    74  ARG74       0.2205
    192  NE       -20.3900   30.6580  -15.7990 N.pl3  74  ARG74      -0.0865
    193  CZ       -20.4320   29.3430  -15.9880 C.cat  74  ARG74       0.5346
    194  NH1      -21.3950   28.6250  -15.4300 N.pl3  74  ARG74       0.1354
    195  NH2      -19.5110   28.7470  -16.7350 N.pl3  74  ARG74       0.1354
@<TRIPOS>BOND
     1   195   193    1
     2   176   174    1
     3   193   192    2
     4   193   194    1
     5   192   191    1
     6   175   174    1
     7   168   167    2
     8   174   171    1
     9   191   190    1
    10   153   151    1
    11   190   189    1
    12   152   151    1
    13   171   172    1
    14   171   170    1
    15   189   186    1
    16   186   185    1
    17   186   187    1
    18   167   169   am
    19   167   166    1
    20   151   148    1
    21   173   172    2
    22   172   177   am
    23   188   187    2
    24   148   147    1
    25   148   149    1
    26   162   163    1
    27   138   135    1
    28   163   166    1
    29   163   164    1
    30   150   149    2
    31   128   127   ar
    32   183   184    1
    33   183   182    1
    34   145   144    2
    35   129   127   ar
    36   177   178    1
    37   149   154   am
    38   137   136    2
    39   165   164    2
    40   135   136    1
    41   135   134    1
    42   127   126    1
    43   136   139   am
    44   178   179    1
    45   178   181    1
    46   139   140    1
    47   144   146   am
    48   144   143    1
    49   182   181    1
    50   140   141    1
    51   140   143    1
    52   154   155    1
    53   131   130    1
    54   131   132    1
    55   179   180    2
    56   142   141    2
    57   133   132    2
    58   126   125    1
    59   155   156    1
    60   155   158    1
    61   125   122    1
    62   156   157    2
    63   160   159   ar
    64     9     7   am
    65     8     7    2
    66    18    16   ar
    67   159   158    1
    68   159   161   ar
    69    17    16   ar
    70   124   123    2
    71     7     6    1
    72   122   123    1
    73   122   121    1
    74    16    15    1
    75   118   120   ar
    76   118   116   ar
    77   121   112   am
    78   120   119   ar
    79    28    29   ar
    80    28    26   ar
    81   116   115   ar
    82    29    27   ar
    83    15    14    1
    84     6     5    1
    85   119   117   ar
    86   112   111    1
    87   112   113    2
    88     5     2    1
    89    40    39   ar
    90    40    38   ar
    91    26    24   ar
    92   107   106    2
    93   111   114    1
    94   111   110    1
    95   115   117   ar
    96   115   114    1
    97    27    25   ar
    98    39    37   ar
    99    38    36   ar
   100    14    11    1
   101     4     3    2
   102   106   110   am
   103   106   105    1
   104   108   105    1
   105   108   109    1
   106    24    25   ar
   107    24    23    1
   108     2     1    1
   109     2     3    1
   110   105   104    1
   111    13    12    2
   112   104   101   am
   113    12    11    1
   114    37    35   ar
   115    11    10    1
   116    36    35   ar
   117    23    20    1
   118    35    34    1
   119    59    57   ar
   120    59    58   ar
   121   101   100    1
   122   101   102    2
   123   100   103    1
   124   100    99    1
   125    91    90    2
   126    20    19    1
   127    20    21    1
   128    57    55   ar
   129    58    56   ar
   130    99    90   am
   131    90    89    1
   132    21    22    2
   133    34    31    1
   134    73    71   ar
   135    73    72   ar
   136    55    54   ar
   137    56    54   ar
   138    31    30    1
   139    31    32    1
   140    71    69   ar
   141    89    92    1
   142    89    88    1
   143    82    81    2
   144    54    53    1
   145    48    46    1
   146    72    70   ar
   147    77    76    2
   148    92    93    1
   149    32    33    2
   150    88    81   am
   151    81    80    1
   152    69    68   ar
   153    69    67   ar
   154    94    93   ar
   155    94    96   ar
   156    68    66   ar
   157    47    45    1
   158    53    50    1
   159    70    67   ar
   160    46    45    1
   161    76    75    1
   162    76    79   am
   163    93    95   ar
   164    45    42    1
   165    52    51    2
   166    80    79    1
   167    80    83    1
   168    67    65   ar
   169    51    50    1
   170    96    98   ar
   171    75    78    1
   172    75    74    1
   173    50    49    1
   174    49    43   am
   175    66    65   ar
   176    83    84    1
   177    95    97   ar
   178    65    64    1
   179    42    43    1
   180    42    41    1
   181    43    44    2
   182    98    97   ar
   183    84    85    1
   184    60    61    1
   185    64    61    1
   186    61    62    1
   187    85    86    1
   188    86    87    1
   189    62    63    2
