@<TRIPOS>MOLECULE
tmp/3qiyA00.pdb
 210 206 0 0 0
SMALL
GASTEIGER

@<TRIPOS>ATOM
      1  N        -27.2650   43.0530    0.6980 N.3    65  VAL65      -0.1231
      2  CA       -26.3790   42.9950   -0.4670 C.3    65  VAL65       0.1678
      3  C        -25.6190   41.6640   -0.4660 C.2    65  VAL65       0.2434
      4  O        -25.1910   41.2380    0.6040 O.2    65  VAL65      -0.2733
      5  CB       -25.4400   44.2210   -0.6390 C.3    65  VAL65       0.0265
      6  CG1      -26.1930   45.4260   -1.1980 C.3    65  VAL65       0.0020
      7  CG2      -24.7290   44.5830    0.6630 C.3    65  VAL65       0.0020
      8  N        -25.4580   40.9600   -1.6130 N.am   66  PRO66      -0.2718
      9  CA       -25.9290   41.3030   -2.9660 C.3    66  PRO66       0.1535
     10  C        -27.4310   41.0830   -3.1080 C.2    66  PRO66       0.2598
     11  O        -28.0990   40.7490   -2.1250 O.2    66  PRO66      -0.2715
     12  CB       -25.0840   40.3780   -3.8670 C.3    66  PRO66       0.0310
     13  CG       -24.8250   39.1790   -3.0380 C.3    66  PRO66       0.0237
     14  CD       -24.7200   39.6790   -1.6110 C.3    66  PRO66       0.0939
     15  N        -27.9720   41.2900   -4.3230 N.am   67  VAL67      -0.1978
     16  CA       -29.4020   41.0650   -4.6040 C.3    67  VAL67       0.1596
     17  C        -29.6830   39.5440   -4.4780 C.2    67  VAL67       0.2287
     18  O        -28.7740   38.7600   -4.7340 O.2    67  VAL67      -0.2864
     19  CB       -29.8440   41.6820   -5.9600 C.3    67  VAL67       0.0276
     20  CG1      -29.2070   40.9810   -7.1610 C.3    67  VAL67       0.0022
     21  CG2      -31.3560   41.7340   -6.0850 C.3    67  VAL67       0.0022
     22  N        -29.8560   32.9230   -6.8700 N.3   158  ILE158     -0.1231
     23  CA       -28.7930   33.6560   -7.5580 C.3   158  ILE158      0.1692
     24  C        -27.4910   33.7350   -6.7970 C.2   158  ILE158      0.2592
     25  O        -26.5590   34.3980   -7.2560 O.2   158  ILE158     -0.2718
     26  CB       -29.2900   35.0120   -8.1010 C.3   158  ILE158      0.0266
     27  CG1      -29.8630   35.8970   -6.9620 C.3   158  ILE158      0.0019
     28  CG2      -30.3040   34.7810   -9.2260 C.3   158  ILE158      0.0020
     29  CD1      -30.0040   37.3030   -7.3150 C.3   158  ILE158      0.0001
     30  N        -27.3930   33.0590   -5.6640 N.am  159  GLN159     -0.1966
     31  CA       -26.1990   32.9580   -4.8300 C.3   159  GLN159      0.1733
     32  C        -25.3930   31.8170   -5.4220 C.2   159  GLN159      0.2616
     33  O        -25.7030   30.6500   -5.2860 O.2   159  GLN159     -0.2715
     34  CB       -26.5210   32.8160   -3.3230 C.3   159  GLN159      0.0408
     35  CG       -25.3040   32.6160   -2.4190 C.3   159  GLN159      0.0908
     36  CD       -25.4090   31.3180   -1.6460 C.2   159  GLN159      0.2608
     37  OE1      -25.0920   30.2320   -2.1440 O.2   159  GLN159     -0.2717
     38  NE2      -25.8800   31.4010   -0.4090 N.am  159  GLN159     -0.0878
     39  N        -24.3040   32.1630   -6.0660 N.am  160  PHE160     -0.1960
     40  CA       -23.4080   31.2220   -6.7070 C.3   160  PHE160      0.1771
     41  C        -22.1050   31.1630   -5.9640 C.2   160  PHE160      0.2619
     42  O        -21.6060   32.2100   -5.5580 O.2   160  PHE160     -0.2715
     43  CB       -23.1880   31.6240   -8.1800 C.3   160  PHE160      0.0574
     44  CG       -24.4670   31.7620   -8.9800 C.ar  160  PHE160     -0.0200
     45  CD1      -25.5460   30.9010   -8.7610 C.ar  160  PHE160     -0.0042
     46  CD2      -24.5920   32.7420   -9.9550 C.ar  160  PHE160     -0.0042
     47  CE1      -26.7120   31.0130   -9.5070 C.ar  160  PHE160     -0.0003
     48  CE2      -25.7630   32.8510  -10.7080 C.ar  160  PHE160     -0.0003
     49  CZ       -26.8150   31.9820  -10.4820 C.ar  160  PHE160     -0.0000
     50  N        -21.5520   29.9420   -5.7810 N.am  161  GLU161     -0.1963
     51  CA       -20.2900   29.7990   -5.0780 C.3   161  GLU161      0.1733
     52  C        -19.5200   28.5280   -5.4360 C.2   161  GLU161      0.2616
     53  O        -20.0760   27.5860   -5.9770 O.2   161  GLU161     -0.2715
     54  CB       -20.4720   29.9170   -3.5390 C.3   161  GLU161      0.0429
     55  CG       -21.1370   28.7200   -2.8900 C.3   161  GLU161      0.1163
     56  CD       -21.2250   28.7320   -1.3780 C.2   161  GLU161      0.3649
     57  OE1      -22.3440   28.5080   -0.8570 O.co2 161  GLU161     -0.2457
     58  OE2      -20.1730   28.9000   -0.7140 O.co2 161  GLU161     -0.2457
     59  N        -18.2440   28.5060   -5.1040 N.am  162  CYS162     -0.1968
     60  CA       -17.4380   27.3090   -5.2920 C.3   162  CYS162      0.1712
     61  C        -17.1000   26.8910   -3.9060 C.2   162  CYS162      0.2296
     62  O        -16.5140   27.6660   -3.1490 O.2   162  CYS162     -0.2864
     63  CB       -16.1930   27.5920   -6.1090 C.3   162  CYS162      0.0983
     64  SG       -15.2030   26.1250   -6.4460 S.3   162  CYS162     -0.0798
     65  N        -27.7910   38.7230  -13.4910 N.3   191  PHE191     -0.1227
     66  CA       -27.7790   40.0110  -12.8110 C.3   191  PHE191      0.1736
     67  C        -27.5950   41.0920  -13.8070 C.2   191  PHE191      0.2596
     68  O        -26.8750   40.9080  -14.8010 O.2   191  PHE191     -0.2718
     69  CB       -26.5950   40.1320  -11.8400 C.3   191  PHE191      0.0547
     70  CG       -26.4580   39.0110  -10.8600 C.ar  191  PHE191     -0.0202
     71  CD1      -26.9430   39.1380   -9.5690 C.ar  191  PHE191     -0.0042
     72  CD2      -25.7830   37.8500  -11.2030 C.ar  191  PHE191     -0.0042
     73  CE1      -26.7940   38.1010   -8.6490 C.ar  191  PHE191     -0.0003
     74  CE2      -25.6940   36.7950  -10.3020 C.ar  191  PHE191     -0.0003
     75  CZ       -26.2060   36.9330   -9.0290 C.ar  191  PHE191     -0.0000
     76  N        -28.2040   42.2340  -13.4820 N.am  192  GLY192     -0.1942
     77  CA       -28.1260   43.4660  -14.2370 C.3   192  GLY192      0.2014
     78  C        -27.3000   44.4680  -13.4580 C.2   192  GLY192      0.2638
     79  O        -27.3060   44.4620  -12.2190 O.2   192  GLY192     -0.2714
     80  N        -26.5340   45.2840  -14.1760 N.am  193  PHE193     -0.1973
     81  CA       -25.6770   46.3300  -13.6160 C.3   193  PHE193      0.1639
     82  C        -25.9090   47.6020  -14.4080 C.2   193  PHE193      0.2290
     83  O        -26.6540   47.5710  -15.4000 O.2   193  PHE193     -0.2864
     84  CB       -24.1870   45.9160  -13.6440 C.3   193  PHE193      0.0560
     85  CG       -23.6300   45.6500  -15.0220 C.ar  193  PHE193     -0.0200
     86  CD1      -22.9790   46.6530  -15.7320 C.ar  193  PHE193     -0.0042
     87  CD2      -23.7680   44.4000  -15.6170 C.ar  193  PHE193     -0.0042
     88  CE1      -22.4890   46.4150  -17.0160 C.ar  193  PHE193     -0.0003
     89  CE2      -23.2860   44.1650  -16.9030 C.ar  193  PHE193     -0.0003
     90  CZ       -22.6490   45.1740  -17.5960 C.ar  193  PHE193     -0.0000
     91  N        -25.4110   40.7190  -17.0080 N.3   200  THR200     -0.1218
     92  CA       -24.1750   39.9430  -16.9020 C.3   200  THR200      0.1862
     93  C        -24.2960   38.6760  -17.7590 C.2   200  THR200      0.2287
     94  O        -25.2850   37.9470  -17.6510 O.2   200  THR200     -0.2866
     95  CB       -23.8710   39.5570  -15.4380 C.3   200  THR200      0.1770
     96  OG1      -23.8830   40.7210  -14.6200 O.3   200  THR200     -0.2211
     97  CG2      -22.5270   38.8600  -15.2840 C.3   200  THR200      0.0375
     98  N        -20.0010   34.7240  -15.2080 N.3   205  THR205     -0.1218
     99  CA       -20.3630   34.1950  -13.8970 C.3   205  THR205      0.1862
    100  C        -19.8280   32.7550  -13.7560 C.2   205  THR205      0.2287
    101  O        -19.2290   32.4200  -12.7260 O.2   205  THR205     -0.2866
    102  CB       -21.8650   34.2410  -13.7760 C.3   205  THR205      0.1770
    103  OG1      -22.2770   35.5710  -14.0850 O.3   205  THR205     -0.2211
    104  CG2      -22.3560   33.8470  -12.3950 C.3   205  THR205      0.0375
    105  N        -16.0620   32.7820  -13.5480 N.3   208  HIS208     -0.1226
    106  CA       -15.7000   33.2920  -12.2140 C.3   208  HIS208      0.1752
    107  C        -15.5780   32.1110  -11.2330 C.2   208  HIS208      0.2595
    108  O        -14.5910   31.9890  -10.5400 O.2   208  HIS208     -0.2718
    109  CB       -16.7300   34.3440  -11.7100 C.3   208  HIS208      0.0759
    110  CG       -16.4870   34.8230  -10.2940 C.ar  208  HIS208      0.0818
    111  ND1      -15.8140   36.0070  -10.0330 N.ar  208  HIS208     -0.2268
    112  CD2      -16.8130   34.2440   -9.1090 C.ar  208  HIS208      0.1154
    113  CE1      -15.7310   36.0830   -8.7150 C.ar  208  HIS208      0.1986
    114  NE2      -16.2980   35.0320   -8.1230 N.ar  208  HIS208     -0.2212
    115  N        -16.5970   31.2740  -11.1760 N.am  209  GLU209     -0.1979
    116  CA       -16.6640   30.1220  -10.2950 C.3   209  GLU209      0.1602
    117  C        -15.6210   29.0600  -10.6060 C.2   209  GLU209      0.2287
    118  O        -15.0840   28.4380   -9.6890 O.2   209  GLU209     -0.2864
    119  CB       -18.0930   29.5610  -10.2770 C.3   209  GLU209      0.0415
    120  CG       -19.1410   30.5540   -9.7670 C.3   209  GLU209      0.1163
    121  CD       -18.8530   31.3060   -8.4780 C.2   209  GLU209      0.3649
    122  OE1      -18.1310   30.7730   -7.6050 O.co2 209  GLU209     -0.2457
    123  OE2      -19.3790   32.4310   -8.3330 O.co2 209  GLU209     -0.2457
    124  N        -12.3370   30.2140   -9.0070 N.3   212  HIS212     -0.1241
    125  CA       -12.2490   29.7380   -7.6140 C.3   212  HIS212      0.1621
    126  C        -11.9100   28.2250   -7.5940 C.2   212  HIS212      0.2264
    127  O        -11.0090   27.8240   -6.8580 O.2   212  HIS212     -0.2867
    128  CB       -13.5580   29.9350   -6.8590 C.3   212  HIS212      0.0745
    129  CG       -13.8420   31.3410   -6.4980 C.ar  212  HIS212      0.0817
    130  ND1      -12.9410   32.0930   -5.7600 N.ar  212  HIS212     -0.2268
    131  CD2      -14.9510   32.0730   -6.7020 C.ar  212  HIS212      0.1154
    132  CE1      -13.5280   33.2660   -5.5690 C.ar  212  HIS212      0.1986
    133  NE2      -14.7240   33.3010   -6.1180 N.ar  212  HIS212     -0.2212
    134  N        -15.8170   45.4250    2.8240 N.3   229  GLU229     -0.1245
    135  CA       -15.7500   44.0170    3.2360 C.3   229  GLU229      0.1567
    136  C        -15.6920   43.0140    2.0590 C.2   229  GLU229      0.2260
    137  O        -16.7050   42.4270    1.6530 O.2   229  GLU229     -0.2867
    138  CB       -16.8430   43.6640    4.2810 C.3   229  GLU229      0.0388
    139  CG       -18.2990   43.9480    3.8930 C.3   229  GLU229      0.1160
    140  CD       -18.7800   45.3900    3.8440 C.2   229  GLU229      0.3649
    141  OE1      -18.1640   46.2580    4.5050 O.co2 229  GLU229     -0.2457
    142  OE2      -19.7830   45.6500    3.1370 O.co2 229  GLU229     -0.2457
    143  N        -11.7790   36.8430   -3.5880 N.3   234  GLU234     -0.1245
    144  CA       -12.7680   37.4380   -4.4790 C.3   234  GLU234      0.1567
    145  C        -12.1580   38.5170   -5.3820 C.2   234  GLU234      0.2260
    146  O        -12.4460   38.5190   -6.5780 O.2   234  GLU234     -0.2867
    147  CB       -14.0080   37.9470   -3.7050 C.3   234  GLU234      0.0388
    148  CG       -14.9670   36.8400   -3.2370 C.3   234  GLU234      0.1160
    149  CD       -15.5360   35.9200   -4.3020 C.2   234  GLU234      0.3649
    150  OE1      -15.2910   36.1820   -5.5020 O.co2 234  GLU234     -0.2457
    151  OE2      -16.2330   34.9370   -3.9480 O.co2 234  GLU234     -0.2457
    152  N        -19.7240   44.5720  -15.1750 N.3   333  ARG333     -0.1245
    153  CA       -19.5480   45.6100  -14.1490 C.3   333  ARG333      0.1563
    154  C        -18.0390   45.9190  -13.9000 C.2   333  ARG333      0.2260
    155  O        -17.1840   45.0640  -14.1290 O.2   333  ARG333     -0.2867
    156  CB       -20.3020   45.2370  -12.8590 C.3   333  ARG333      0.0307
    157  CG       -19.6330   44.1350  -12.0650 C.3   333  ARG333      0.0489
    158  CD       -20.5840   43.5670  -11.0500 C.3   333  ARG333      0.2205
    159  NE       -19.9120   42.7540  -10.0430 N.pl3 333  ARG333     -0.0865
    160  CZ       -19.4890   41.5060  -10.2240 C.cat 333  ARG333      0.5346
    161  NH1      -19.6370   40.9090  -11.4030 N.pl3 333  ARG333      0.1354
    162  NH2      -18.9100   40.8480   -9.2320 N.pl3 333  ARG333      0.1354
    163  N        -16.0930   44.3040   -8.3350 N.3   336  TYR336     -0.1227
    164  CA       -16.7320   43.1090   -7.7720 C.3   336  TYR336      0.1736
    165  C        -18.0170   43.4530   -7.0040 C.2   336  TYR336      0.2595
    166  O        -19.0490   42.8350   -7.2430 O.2   336  TYR336     -0.2718
    167  CB       -15.7540   42.3100   -6.8920 C.3   336  TYR336      0.0548
    168  CG       -16.3900   41.1430   -6.1540 C.ar  336  TYR336     -0.0200
    169  CD1      -16.6380   39.9300   -6.7990 C.ar  336  TYR336     -0.0009
    170  CD2      -16.6940   41.2370   -4.7980 C.ar  336  TYR336     -0.0009
    171  CE1      -17.1980   38.8450   -6.1140 C.ar  336  TYR336      0.0417
    172  CE2      -17.2710   40.1730   -4.1110 C.ar  336  TYR336      0.0417
    173  CZ       -17.5220   38.9770   -4.7710 C.ar  336  TYR336      0.1957
    174  OH       -18.0600   37.9370   -4.0540 O.3   336  TYR336     -0.2866
    175  N        -17.9370   44.4160   -6.0850 N.am  337  LEU337     -0.1966
    176  CA       -19.0460   44.8710   -5.2680 C.3   337  LEU337      0.1728
    177  C        -20.0160   45.6290   -6.1680 C.2   337  LEU337      0.2616
    178  O        -19.5990   46.5090   -6.9240 O.2   337  LEU337     -0.2715
    179  CB       -18.5000   45.7940   -4.1680 C.3   337  LEU337      0.0311
    180  CG       -17.9150   45.1320   -2.9190 C.3   337  LEU337      0.0022
    181  CD1      -16.5790   44.5450   -3.1950 C.3   337  LEU337      0.0001
    182  CD2      -17.7180   46.1600   -1.8250 C.3   337  LEU337      0.0001
    183  N        -21.2960   45.2520   -6.1350 N.am  338  ASN338     -0.1958
    184  CA       -22.3120   45.8820   -6.9650 C.3   338  ASN338      0.1819
    185  C        -23.6610   45.8310   -6.2770 C.2   338  ASN338      0.2621
    186  O        -24.1680   44.7540   -5.9730 O.2   338  ASN338     -0.2715
    187  CB       -22.3640   45.2530   -8.3500 C.3   338  ASN338      0.1195
    188  CG       -23.2800   45.9610   -9.3050 C.2   338  ASN338      0.2630
    189  OD1      -24.5030   45.8380   -9.2210 O.2   338  ASN338     -0.2716
    190  ND2      -22.7070   46.7150  -10.2360 N.am  338  ASN338     -0.0877
    191  N        -24.2540   47.0170   -6.0560 N.am  339  PHE339     -0.1974
    192  CA       -25.5210   47.1670   -5.3560 C.3   339  PHE339      0.1639
    193  C        -26.6810   47.5390   -6.3050 C.2   339  PHE339      0.2290
    194  O        -27.7080   48.0350   -5.8370 O.2   339  PHE339     -0.2864
    195  CB       -25.3600   48.1850   -4.1940 C.3   339  PHE339      0.0560
    196  CG       -23.9770   48.1800   -3.5940 C.ar  339  PHE339     -0.0200
    197  CD1      -23.5820   47.1720   -2.7260 C.ar  339  PHE339     -0.0042
    198  CD2      -23.0400   49.1330   -3.9670 C.ar  339  PHE339     -0.0042
    199  CE1      -22.2800   47.1280   -2.2280 C.ar  339  PHE339     -0.0003
    200  CE2      -21.7450   49.1000   -3.4550 C.ar  339  PHE339     -0.0003
    201  CZ       -21.3720   48.0940   -2.5930 C.ar  339  PHE339     -0.0000
    202  N        -29.0150   45.7840   -7.6730 N.3   341  LYS341     -0.1245
    203  CA       -30.2380   45.0160   -7.3460 C.3   341  LYS341      0.1561
    204  C        -31.2740   44.6490   -8.4450 C.2   341  LYS341      0.2260
    205  O        -32.4720   44.8590   -8.2570 O.2   341  LYS341     -0.2867
    206  CB       -30.9690   45.6870   -6.1760 C.3   341  LYS341      0.0271
    207  CG       -30.2860   45.5020   -4.8300 C.3   341  LYS341      0.0035
    208  CD       -31.3030   45.3900   -3.7060 C.3   341  LYS341      0.0206
    209  CE       -32.1140   46.6680   -3.5650 C.3   341  LYS341      0.1093
    210  NZ       -33.5160   46.4910   -4.0320 N.3   341  LYS341     -0.1314
@<TRIPOS>BOND
     1    93    94    2
     2    93    92    1
     3    90    88   ar
     4    90    89   ar
     5    88    86   ar
     6    91    92    1
     7    89    87   ar
     8    92    95    1
     9    86    85   ar
    10    87    85   ar
    11    95    97    1
    12    95    96    1
    13    83    82    2
    14    98    99    1
    15   152   153    1
    16    85    84    1
    17    68    67    2
    18    82    81    1
    19    77    76    1
    20    77    78    1
    21    80    81    1
    22    80    78   am
    23   153   154    1
    24   153   156    1
    25   155   154    2
    26   103   102    1
    27    99   102    1
    28    99   100    1
    29    67    76   am
    30    67    66    1
    31   102   104    1
    32   100   101    2
    33    84    81    1
    34   105   106    1
    35    65    66    1
    36    78    79    2
    37   156   157    1
    38    66    69    1
    39   106   109    1
    40   106   107    1
    41   157   158    1
    42    69    70    1
    43   109   110    1
    44   161   160    1
    45   107   115   am
    46   107   108    2
    47    72    70   ar
    48    72    74   ar
    49   115   116    1
    50   158   159    1
    51    70    71   ar
    52    48    49   ar
    53    48    46   ar
    54   117   116    1
    55   117   118    2
    56    49    47   ar
    57    74    75   ar
    58   116   119    1
    59   110   111   ar
    60   110   112   ar
    61   119   120    1
    62   190   188   am
    63   160   159    2
    64   160   162    1
    65   111   113   ar
    66    46    44   ar
    67   120   121    1
    68    71    73   ar
    69    47    45   ar
    70   188   189    2
    71   188   187    1
    72    28    26    1
    73   112   114   ar
    74    75    73   ar
    75   124   125    1
    76    44    45   ar
    77    44    43    1
    78   113   114   ar
    79   121   123   ar
    80   121   122   ar
    81   204   205    2
    82   204   203    1
    83   187   184    1
    84   163   164    1
    85    43    40    1
    86    26    23    1
    87    26    27    1
    88   164   165    1
    89   164   167    1
    90   202   203    1
    91   125   126    1
    92   125   128    1
    93   126   127    2
    94    23    22    1
    95    23    24    1
    96   203   206    1
    97    29    27    1
    98    25    24    2
    99   166   165    2
   100    20    19    1
   101   165   175   am
   102   184   185    1
   103   184   183    1
   104   178   177    2
   105   167   168    1
   106   128   129    1
   107   169   168   ar
   108   169   171   ar
   109    24    30   am
   110    40    39    1
   111    40    41    1
   112   131   129   ar
   113   131   133   ar
   114   146   145    2
   115   129   130   ar
   116    64    63    1
   117   193   194    2
   118   193   192    1
   119   185   191   am
   120   185   186    2
   121   206   207    1
   122   177   183   am
   123   177   176    1
   124   168   170   ar
   125   133   132   ar
   126   171   173   ar
   127    63    60    1
   128   175   176    1
   129    21    19    1
   130    39    32   am
   131   191   192    1
   132    53    52    2
   133    41    50   am
   134    41    42    2
   135    19    16    1
   136    50    51    1
   137   130   132   ar
   138    30    31    1
   139   150   149   ar
   140    52    59   am
   141    52    51    1
   142    32    33    2
   143    32    31    1
   144   145   144    1
   145   192   195    1
   146    60    59    1
   147    60    61    1
   148   176   179    1
   149    51    54    1
   150    31    34    1
   151   207   208    1
   152   170   172   ar
   153   173   172   ar
   154   173   174    1
   155    18    17    2
   156    16    17    1
   157    16    15    1
   158   144   147    1
   159   144   143    1
   160    15    10   am
   161   149   151   ar
   162   149   148    1
   163   195   196    1
   164   179   180    1
   165   210   209    1
   166   198   196   ar
   167   198   200   ar
   168    61    62    2
   169    12    13    1
   170    12     9    1
   171   208   209    1
   172   147   148    1
   173   196   197   ar
   174    54    55    1
   175   200   201   ar
   176    34    35    1
   177   181   180    1
   178    10     9    1
   179    10    11    2
   180    13    14    1
   181     9     8    1
   182   180   182    1
   183    55    56    1
   184   197   199   ar
   185   201   199   ar
   186    35    36    1
   187    37    36    2
   188    36    38   am
   189     8    14    1
   190     8     3   am
   191    56    57   ar
   192    56    58   ar
   193     6     5    1
   194     5     2    1
   195     5     7    1
   196     2     3    1
   197     2     1    1
   198     3     4    2
   199   137   136    2
   200   136   135    1
   201   134   135    1
   202   142   140   ar
   203   135   138    1
   204   140   139    1
   205   140   141   ar
   206   139   138    1
