@<TRIPOS>MOLECULE
tmp/3qizA00.pdb
 206 201 0 0 0
SMALL
GASTEIGER

@<TRIPOS>ATOM
      1  N          0.9430   39.6150  -23.6410 N.3    65  LYS65      -0.1245
      2  CA        -0.4320   39.9910  -23.3340 C.3    65  LYS65       0.1561
      3  C         -0.3820   41.3900  -22.7420 C.2    65  LYS65       0.2260
      4  O          0.5630   41.7260  -22.0270 O.2    65  LYS65      -0.2867
      5  CB        -1.0560   39.0270  -22.3100 C.3    65  LYS65       0.0271
      6  CG        -1.8830   37.9120  -22.9110 C.3    65  LYS65       0.0035
      7  CD        -2.4750   37.0340  -21.8270 C.3    65  LYS65       0.0206
      8  CE        -1.5630   35.8530  -21.5120 C.3    65  LYS65       0.1093
      9  NZ        -2.1800   34.9520  -20.4830 N.3    65  LYS65      -0.1314
     10  N         -3.2320   43.0580  -21.0660 N.3    67  VAL67      -0.1231
     11  CA        -4.0040   43.0490  -19.8370 C.3    67  VAL67       0.1678
     12  C         -4.5620   41.6410  -19.6860 C.2    67  VAL67       0.2434
     13  O         -4.8930   41.0080  -20.6840 O.2    67  VAL67      -0.2733
     14  CB        -5.1680   44.0600  -19.9060 C.3    67  VAL67       0.0265
     15  CG1       -6.2130   43.5920  -20.8970 C.3    67  VAL67       0.0020
     16  CG2       -5.7920   44.2750  -18.5270 C.3    67  VAL67       0.0020
     17  N         -4.6220   41.1200  -18.4500 N.am   68  PRO68      -0.2718
     18  CA        -4.0840   41.7060  -17.2190 C.3    68  PRO68       0.1535
     19  C         -2.6020   41.3760  -17.1150 C.2    68  PRO68       0.2598
     20  O         -1.9810   41.0270  -18.1190 O.2    68  PRO68      -0.2715
     21  CB        -4.8520   40.9650  -16.1370 C.3    68  PRO68       0.0310
     22  CG        -5.0520   39.6020  -16.7160 C.3    68  PRO68       0.0237
     23  CD        -5.2920   39.8320  -18.1890 C.3    68  PRO68       0.0939
     24  N         -2.0550   41.4740  -15.9120 N.am   69  VAL69      -0.1978
     25  CA        -0.6440   41.1800  -15.6670 C.3    69  VAL69       0.1596
     26  C         -0.3230   39.7290  -16.0430 C.2    69  VAL69       0.2287
     27  O         -1.1640   38.8480  -15.8510 O.2    69  VAL69      -0.2864
     28  CB        -0.3060   41.4240  -14.1850 C.3    69  VAL69       0.0276
     29  CG1       -1.0280   40.4160  -13.2960 C.3    69  VAL69       0.0022
     30  CG2        1.1920   41.3870  -13.9490 C.3    69  VAL69       0.0022
     31  N          0.0220   33.1540  -14.1210 N.3   160  ILE160     -0.1231
     32  CA        -1.1080   33.8280  -13.4830 C.3   160  ILE160      0.1692
     33  C         -2.3670   33.8860  -14.3410 C.2   160  ILE160      0.2592
     34  O         -3.3020   34.6350  -14.0460 O.2   160  ILE160     -0.2718
     35  CB        -0.7380   35.2360  -12.9740 C.3   160  ILE160      0.0266
     36  CG1       -0.2790   36.1400  -14.1170 C.3   160  ILE160      0.0019
     37  CG2        0.3500   35.1430  -11.9320 C.3   160  ILE160      0.0020
     38  CD1        0.5530   37.2970  -13.6300 C.3   160  ILE160      0.0001
     39  N         -2.3890   33.0900  -15.4020 N.am  161  GLN161     -0.1966
     40  CA        -3.5860   32.9540  -16.2020 C.3   161  GLN161      0.1733
     41  C         -4.4470   31.8600  -15.5970 C.2   161  GLN161      0.2616
     42  O         -4.1930   30.6710  -15.8270 O.2   161  GLN161     -0.2715
     43  CB        -3.1950   32.5840  -17.6300 C.3   161  GLN161      0.0408
     44  CG        -4.3310   32.4990  -18.6100 C.3   161  GLN161      0.0908
     45  CD        -3.8880   31.8700  -19.8940 C.2   161  GLN161      0.2608
     46  OE1       -3.0020   32.3930  -20.5660 O.2   161  GLN161     -0.2717
     47  NE2       -4.4830   30.7470  -20.2510 N.am  161  GLN161     -0.0878
     48  N         -5.4530   32.2520  -14.8240 N.am  162  PHE162     -0.1960
     49  CA        -6.3560   31.2630  -14.2500 C.3   162  PHE162      0.1771
     50  C         -7.6070   31.1770  -15.1050 C.2   162  PHE162      0.2619
     51  O         -8.0840   32.1790  -15.6470 O.2   162  PHE162     -0.2715
     52  CB        -6.7400   31.6190  -12.8270 C.3   162  PHE162      0.0574
     53  CG        -5.5660   31.8210  -11.9270 C.ar  162  PHE162     -0.0200
     54  CD1       -4.3640   31.1760  -12.1930 C.ar  162  PHE162     -0.0042
     55  CD2       -5.6430   32.6560  -10.8370 C.ar  162  PHE162     -0.0042
     56  CE1       -3.2720   31.3520  -11.3740 C.ar  162  PHE162     -0.0003
     57  CE2       -4.5510   32.8360  -10.0070 C.ar  162  PHE162     -0.0003
     58  CZ        -3.3700   32.1890  -10.2730 C.ar  162  PHE162     -0.0000
     59  N         -8.1360   29.9690  -15.2500 N.am  163  GLU163     -0.1977
     60  CA        -9.3400   29.8120  -16.0160 C.3   163  GLU163      0.1602
     61  C         -9.9710   28.4610  -15.7900 C.2   163  GLU163      0.2287
     62  O         -9.3250   27.4980  -15.3750 O.2   163  GLU163     -0.2864
     63  CB        -9.0690   30.0370  -17.5100 C.3   163  GLU163      0.0415
     64  CG        -8.2140   28.9670  -18.1610 C.3   163  GLU163      0.1163
     65  CD        -7.6390   29.4260  -19.4740 C.2   163  GLU163      0.3649
     66  OE1       -7.0840   28.5970  -20.2070 O.co2 163  GLU163     -0.2457
     67  OE2       -7.7430   30.6390  -19.7810 O.co2 163  GLU163     -0.2457
     68  N         -1.8400   38.5220   -7.7940 N.3   193  PHE193     -0.1241
     69  CA        -1.6760   39.7510   -8.5480 C.3   193  PHE193      0.1605
     70  C         -2.1520   40.9210   -7.6980 C.2   193  PHE193      0.2264
     71  O         -3.0000   40.7530   -6.8250 O.2   193  PHE193     -0.2867
     72  CB        -2.4190   39.6900   -9.8860 C.3   193  PHE193      0.0534
     73  CG        -3.9150   39.4770   -9.7530 C.ar  193  PHE193     -0.0203
     74  CD1       -4.4630   38.2000   -9.7280 C.ar  193  PHE193     -0.0042
     75  CD2       -4.7710   40.5630   -9.6750 C.ar  193  PHE193     -0.0042
     76  CE1       -5.8260   38.0120   -9.6190 C.ar  193  PHE193     -0.0003
     77  CE2       -6.1370   40.3850   -9.5770 C.ar  193  PHE193     -0.0003
     78  CZ        -6.6710   39.1140   -9.5440 C.ar  193  PHE193     -0.0000
     79  N         -9.7560   34.6510   -5.6290 N.3   209  THR209     -0.1218
     80  CA        -9.4890   34.2090   -7.0020 C.3   209  THR209      0.1862
     81  C         -9.9820   32.7810   -7.2310 C.2   209  THR209      0.2287
     82  O        -10.5720   32.4900   -8.2720 O.2   209  THR209     -0.2866
     83  CB        -7.9980   34.3190   -7.3380 C.3   209  THR209      0.1770
     84  OG1       -7.5660   35.6750   -7.1290 O.3   209  THR209     -0.2211
     85  CG2       -7.7530   33.9370   -8.7800 C.3   209  THR209      0.0375
     86  N        -13.6320   32.8050   -7.4670 N.3   212  HIS212     -0.1226
     87  CA       -13.9580   33.2900   -8.8110 C.3   212  HIS212      0.1752
     88  C        -14.0330   32.1370   -9.7890 C.2   212  HIS212      0.2595
     89  O        -15.0380   31.9780  -10.4860 O.2   212  HIS212     -0.2718
     90  CB       -12.9300   34.3170   -9.2960 C.3   212  HIS212      0.0759
     91  CG       -13.1500   34.7670  -10.7100 C.ar  212  HIS212      0.0818
     92  ND1      -13.7410   35.9710  -11.0190 N.ar  212  HIS212     -0.2268
     93  CD2      -12.8740   34.1730  -11.8950 C.ar  212  HIS212      0.1154
     94  CE1      -13.8150   36.1050  -12.3400 C.ar  212  HIS212      0.1986
     95  NE2      -13.2860   35.0150  -12.8890 N.ar  212  HIS212     -0.2212
     96  N        -12.9750   31.3240   -9.8350 N.am  213  GLU213     -0.1979
     97  CA       -12.9580   30.1970  -10.7430 C.3   213  GLU213      0.1602
     98  C        -14.0200   29.1540  -10.4050 C.2   213  GLU213      0.2287
     99  O        -14.6240   28.5850  -11.3040 O.2   213  GLU213     -0.2864
    100  CB       -11.5690   29.5430  -10.7970 C.3   213  GLU213      0.0415
    101  CG       -10.4670   30.4350  -11.3640 C.3   213  GLU213      0.1163
    102  CD       -10.8270   31.0360  -12.7130 C.2   213  GLU213      0.3649
    103  OE1      -11.4720   30.3520  -13.5240 O.co2 213  GLU213     -0.2457
    104  OE2      -10.4610   32.2080  -12.9450 O.co2 213  GLU213     -0.2457
    105  N        -17.2530   30.1880  -11.9930 N.3   216  HIS216     -0.1241
    106  CA       -17.2710   29.7400  -13.3960 C.3   216  HIS216      0.1621
    107  C        -17.6650   28.2580  -13.4520 C.2   216  HIS216      0.2264
    108  O        -18.5490   27.8710  -14.2210 O.2   216  HIS216     -0.2867
    109  CB       -15.9030   29.9110  -14.0620 C.3   216  HIS216      0.0745
    110  CG       -15.5560   31.3200  -14.4690 C.ar  216  HIS216      0.0817
    111  ND1      -16.4050   32.1470  -15.1750 N.ar  216  HIS216     -0.2268
    112  CD2      -14.4080   32.0380  -14.2910 C.ar  216  HIS216      0.1154
    113  CE1      -15.8080   33.3140  -15.4000 C.ar  216  HIS216      0.1986
    114  NE2      -14.5910   33.2760  -14.8760 N.ar  216  HIS216     -0.2212
    115  N        -14.2690   49.3440  -23.6290 N.3   234  LEU234     -0.1231
    116  CA       -13.6000   48.1660  -24.1840 C.3   234  LEU234      0.1693
    117  C        -14.4890   46.9760  -24.4160 C.2   234  LEU234      0.2592
    118  O        -15.6850   47.0950  -24.7270 O.2   234  LEU234     -0.2718
    119  CB       -12.5190   47.6870  -23.2330 C.3   234  LEU234      0.0284
    120  CG       -11.3910   48.6510  -22.9620 C.3   234  LEU234      0.0019
    121  CD1      -10.2990   47.9140  -22.2300 C.3   234  LEU234      0.0001
    122  CD2      -10.9040   49.1820  -24.2830 C.3   234  LEU234      0.0001
    123  N        -13.8620   45.8220  -24.1680 N.am  235  GLU235     -0.1966
    124  CA       -14.3720   44.4910  -24.4960 C.3   235  GLU235      0.1733
    125  C        -14.2250   43.5280  -23.3040 C.2   235  GLU235      0.2616
    126  O        -13.1140   43.0730  -23.0130 O.2   235  GLU235     -0.2715
    127  CB       -13.5430   43.9440  -25.6660 C.3   235  GLU235      0.0429
    128  CG       -12.0580   43.6850  -25.3460 C.3   235  GLU235      0.1163
    129  CD       -11.1630   44.9230  -25.4460 C.2   235  GLU235      0.3649
    130  OE1      -11.6320   45.9630  -25.9570 O.co2 235  GLU235     -0.2457
    131  OE2       -9.9830   44.8530  -25.0330 O.co2 235  GLU235     -0.2457
    132  N        -15.3150   43.2070  -22.6050 N.am  236  VAL236     -0.1977
    133  CA       -15.2640   42.1770  -21.5420 C.3   236  VAL236      0.1596
    134  C        -16.4700   41.2600  -21.6330 C.2   236  VAL236      0.2287
    135  O        -17.5850   41.7320  -21.8450 O.2   236  VAL236     -0.2864
    136  CB       -15.1980   42.8040  -20.1300 C.3   236  VAL236      0.0276
    137  CG1      -16.4450   43.6040  -19.8370 C.3   236  VAL236      0.0022
    138  CG2      -14.9870   41.7240  -19.0730 C.3   236  VAL236      0.0022
    139  N        -17.6630   36.9700  -17.4720 N.3   240  GLU240     -0.1245
    140  CA       -16.8040   37.5660  -16.4480 C.3   240  GLU240      0.1567
    141  C        -17.5550   38.5830  -15.5980 C.2   240  GLU240      0.2260
    142  O        -17.4490   38.5710  -14.3640 O.2   240  GLU240     -0.2867
    143  CB       -15.5790   38.2330  -17.0720 C.3   240  GLU240      0.0388
    144  CG       -14.6730   37.2760  -17.8400 C.3   240  GLU240      0.1160
    145  CD       -14.1070   36.1470  -16.9900 C.2   240  GLU240      0.3649
    146  OE1      -14.1610   36.2220  -15.7360 O.co2 240  GLU240     -0.2457
    147  OE2      -13.5590   35.1930  -17.5800 O.co2 240  GLU240     -0.2457
    148  N        -18.0020   36.8830   -7.1720 N.3   329  GLU329     -0.1245
    149  CA       -16.7440   37.2280   -6.5250 C.3   329  GLU329      0.1567
    150  C        -16.9950   38.3460   -5.5050 C.2   329  GLU329      0.2260
    151  O        -16.4960   38.2730   -4.3760 O.2   329  GLU329     -0.2867
    152  CB       -15.6860   37.6480   -7.5460 C.3   329  GLU329      0.0388
    153  CG       -14.2870   37.8510   -6.9480 C.3   329  GLU329      0.1160
    154  CD       -13.2500   38.2670   -7.9790 C.2   329  GLU329      0.3649
    155  OE1      -13.3700   37.8640   -9.1580 O.co2 329  GLU329     -0.2457
    156  OE2      -12.3100   38.9990   -7.6170 O.co2 329  GLU329     -0.2457
    157  N        -10.1750   44.4920   -5.7010 N.3   341  ARG341     -0.1245
    158  CA       -10.3740   45.5740   -6.6650 C.3   341  ARG341      0.1563
    159  C        -11.8740   45.7700   -6.8970 C.2   341  ARG341      0.2260
    160  O        -12.6590   44.8450   -6.6970 O.2   341  ARG341     -0.2867
    161  CB        -9.6480   45.2710   -7.9700 C.3   341  ARG341      0.0307
    162  CG       -10.2700   44.1460   -8.7550 C.3   341  ARG341      0.0489
    163  CD        -9.3070   43.5910   -9.7730 C.3   341  ARG341      0.2205
    164  NE       -10.0160   42.7730  -10.7390 N.pl3 341  ARG341     -0.0865
    165  CZ       -10.2830   41.4860  -10.5700 C.cat 341  ARG341      0.5346
    166  NH1       -9.9030   40.8660   -9.4570 N.pl3 341  ARG341      0.1354
    167  NH2      -10.9300   40.8140  -11.5140 N.pl3 341  ARG341      0.1354
    168  N        -13.9420   44.2230  -12.4750 N.3   344  TYR344     -0.1227
    169  CA       -13.2510   43.1250  -13.1600 C.3   344  TYR344      0.1736
    170  C        -11.9770   43.5940  -13.8590 C.2   344  TYR344      0.2595
    171  O        -10.9000   43.0350  -13.6530 O.2   344  TYR344     -0.2718
    172  CB       -14.1700   42.4210  -14.1550 C.3   344  TYR344      0.0548
    173  CG       -13.4790   41.2670  -14.8270 C.ar  344  TYR344     -0.0200
    174  CD1      -13.2250   40.1030  -14.1290 C.ar  344  TYR344     -0.0009
    175  CD2      -13.0760   41.3380  -16.1540 C.ar  344  TYR344     -0.0009
    176  CE1      -12.5820   39.0410  -14.7270 C.ar  344  TYR344      0.0417
    177  CE2      -12.4380   40.2820  -16.7630 C.ar  344  TYR344      0.0417
    178  CZ       -12.1940   39.1360  -16.0470 C.ar  344  TYR344      0.1957
    179  OH       -11.5540   38.0750  -16.6490 O.3   344  TYR344     -0.2866
    180  N        -12.1150   44.6280  -14.6800 N.am  345  LEU345     -0.1966
    181  CA       -10.9810   45.2240  -15.3600 C.3   345  LEU345      0.1728
    182  C         -9.9510   45.7080  -14.3660 C.2   345  LEU345      0.2616
    183  O        -10.2880   46.3310  -13.3590 O.2   345  LEU345     -0.2715
    184  CB       -11.4310   46.4230  -16.1930 C.3   345  LEU345      0.0311
    185  CG       -12.5570   46.1090  -17.1610 C.3   345  LEU345      0.0022
    186  CD1      -12.8720   47.3290  -17.9800 C.3   345  LEU345      0.0001
    187  CD2      -12.1450   44.9410  -18.0450 C.3   345  LEU345      0.0001
    188  N         -8.6900   45.4220  -14.6530 N.am  346  ASN346     -0.1958
    189  CA        -7.6060   45.8160  -13.7650 C.3   346  ASN346      0.1819
    190  C         -6.3350   46.0940  -14.5440 C.2   346  ASN346      0.2621
    191  O         -5.7000   45.1710  -15.0560 O.2   346  ASN346     -0.2715
    192  CB        -7.3640   44.7360  -12.7170 C.3   346  ASN346      0.1195
    193  CG        -6.3350   45.1470  -11.7000 C.2   346  ASN346      0.2630
    194  OD1       -6.0760   46.3360  -11.5050 O.2   346  ASN346     -0.2716
    195  ND2       -5.7390   44.1640  -11.0360 N.am  346  ASN346     -0.0877
    196  N         -5.9740   47.3680  -14.6400 N.am  347  PHE347     -0.1974
    197  CA        -4.8750   47.7800  -15.4940 C.3   347  PHE347      0.1639
    198  C         -3.5840   48.0020  -14.7210 C.2   347  PHE347      0.2290
    199  O         -2.5290   48.2300  -15.3170 O.2   347  PHE347     -0.2864
    200  CB        -5.2740   49.0390  -16.2630 C.3   347  PHE347      0.0560
    201  CG        -6.4440   48.8250  -17.1800 C.ar  347  PHE347     -0.0200
    202  CD1       -6.2560   48.2720  -18.4350 C.ar  347  PHE347     -0.0042
    203  CD2       -7.7310   49.1410  -16.7790 C.ar  347  PHE347     -0.0042
    204  CE1       -7.3250   48.0570  -19.2820 C.ar  347  PHE347     -0.0003
    205  CE2       -8.8060   48.9310  -17.6210 C.ar  347  PHE347     -0.0003
    206  CZ        -8.6030   48.3880  -18.8760 C.ar  347  PHE347     -0.0000
@<TRIPOS>BOND
     1   130   129   ar
     2   127   128    1
     3   127   124    1
     4   129   128    1
     5   129   131   ar
     6   118   117    2
     7   124   123    1
     8   124   125    1
     9   117   116    1
    10   117   123   am
    11   122   120    1
    12   116   115    1
    13   116   119    1
    14     1     2    1
    15     2     3    1
    16     2     5    1
    17   125   126    2
    18   125   132   am
    19   119   120    1
    20   120   121    1
    21     6     5    1
    22     6     7    1
    23     3     4    2
    24   132   133    1
    25   135   134    2
    26     7     8    1
    27   134   133    1
    28   133   136    1
    29     8     9    1
    30    10    11    1
    31    15    14    1
    32    13    12    2
    33    46    45    2
    34    47    45   am
    35    66    65   ar
    36   136   137    1
    37   136   138    1
    38    14    11    1
    39    14    16    1
    40    45    44    1
    41    11    12    1
    42    67    65   ar
    43    12    17   am
    44    65    64    1
    45   204   206   ar
    46   204   202   ar
    47   206   205   ar
    48    44    43    1
    49    17    23    1
    50    17    18    1
    51   202   201   ar
    52    23    22    1
    53    64    63    1
    54    20    19    2
    55   187   185    1
    56   186   185    1
    57   144   143    1
    58   144   145    1
    59    43    40    1
    60   205   203   ar
    61   147   145   ar
    62    63    60    1
    63   139   140    1
    64    18    19    1
    65    18    21    1
    66   201   203   ar
    67   201   200    1
    68   185   184    1
    69    19    24   am
    70   143   140    1
    71   145   146   ar
    72   177   175   ar
    73   177   178   ar
    74    22    21    1
    75   179   178    1
    76   140   141    1
    77   200   197    1
    78    40    41    1
    79    40    39    1
    80   184   181    1
    81   175   173   ar
    82   178   176   ar
    83    26    27    2
    84    26    25    1
    85    60    61    1
    86    60    59    1
    87    24    25    1
    88    42    41    2
    89    61    62    2
    90    25    28    1
    91    51    50    2
    92   141   142    2
    93    41    48   am
    94   197   198    1
    95   197   196    1
    96    39    33   am
    97   113   111   ar
    98   113   114   ar
    99   181   180    1
   100   181   182    1
   101   199   198    2
   102    59    50   am
   103   111   110   ar
   104    50    49    1
   105   191   190    2
   106   114   112   ar
   107   173   172    1
   108   173   174   ar
   109    48    49    1
   110   176   174   ar
   111   180   170   am
   112   188   182   am
   113   188   189    1
   114   196   190   am
   115   190   189    1
   116   110   112   ar
   117   110   109    1
   118   182   183    2
   119    33    34    2
   120    33    32    1
   121    49    52    1
   122   108   107    2
   123    28    30    1
   124    28    29    1
   125   172   169    1
   126    31    32    1
   127    36    38    1
   128    36    35    1
   129   109   106    1
   130   170   171    2
   131   170   169    1
   132   189   192    1
   133   103   102   ar
   134    32    35    1
   135   107   106    1
   136   106   105    1
   137   169   168    1
   138    35    37    1
   139   104   102   ar
   140    95    94   ar
   141    95    93   ar
   142    52    53    1
   143   192   193    1
   144   102   101    1
   145    94    92   ar
   146    54    53   ar
   147    54    56   ar
   148    53    55   ar
   149    93    91   ar
   150   193   194    2
   151   193   195   am
   152   167   165    1
   153    56    58   ar
   154   101   100    1
   155    99    98    2
   156    92    91   ar
   157    55    57   ar
   158   100    97    1
   159    97    98    1
   160    97    96    1
   161   164   165    2
   162   164   163    1
   163    91    90    1
   164   165   166    1
   165    89    88    2
   166    58    57   ar
   167    72    73    1
   168    72    69    1
   169    96    88   am
   170    88    87    1
   171   163   162    1
   172    73    74   ar
   173    73    75   ar
   174    74    76   ar
   175    75    77   ar
   176    76    78   ar
   177    77    78   ar
   178    90    87    1
   179   155   154   ar
   180    87    86    1
   181    85    83    1
   182   162   161    1
   183    69    68    1
   184    69    70    1
   185    82    81    2
   186   154   156   ar
   187   154   153    1
   188   161   158    1
   189    70    71    2
   190   152   153    1
   191   152   149    1
   192    83    84    1
   193    83    80    1
   194    81    80    1
   195   148   149    1
   196    80    79    1
   197   159   160    2
   198   159   158    1
   199   158   157    1
   200   149   150    1
   201   150   151    2
