@<TRIPOS>MOLECULE
tmp/3qj0A00.pdb
 189 184 0 0 0
SMALL
GASTEIGER

@<TRIPOS>ATOM
      1  N        -31.7550   39.2160    2.6040 N.3    65  LYS65      -0.1245
      2  CA       -30.3780   39.6830    2.7040 C.3    65  LYS65       0.1561
      3  C        -30.2770   41.0720    2.0870 C.2    65  LYS65       0.2260
      4  O        -30.8070   41.3050    1.0060 O.2    65  LYS65      -0.2867
      5  CB       -29.4450   38.7390    1.9580 C.3    65  LYS65       0.0271
      6  CG       -29.8970   37.3000    2.0040 C.3    65  LYS65       0.0035
      7  CD       -29.5400   36.5430    0.7270 C.3    65  LYS65       0.0206
      8  CE       -28.3300   35.6370    0.9170 C.3    65  LYS65       0.1093
      9  NZ       -27.0750   36.4180    1.1210 N.3    65  LYS65      -0.1314
     10  N        -27.6570   42.6660    0.8250 N.3    67  VAL67      -0.1231
     11  CA       -26.9250   42.5490   -0.4250 C.3    67  VAL67       0.1678
     12  C        -26.2200   41.2030   -0.5330 C.2    67  VAL67       0.2434
     13  O        -25.8370   40.6110    0.4750 O.2    67  VAL67      -0.2733
     14  CB       -25.8880   43.6640   -0.5830 C.3    67  VAL67       0.0265
     15  CG1      -25.9940   44.6480    0.5730 C.3    67  VAL67       0.0020
     16  CG2      -24.4860   43.0740   -0.6840 C.3    67  VAL67       0.0020
     17  N        -26.0670   40.7060   -1.7670 N.am   68  PRO68      -0.2718
     18  CA       -26.5950   41.3380   -2.9830 C.3    68  PRO68       0.1535
     19  C        -28.0530   40.9530   -3.2090 C.2    68  PRO68       0.2598
     20  O        -28.7290   40.5100   -2.2780 O.2    68  PRO68      -0.2715
     21  CB       -25.7210   40.7340   -4.0800 C.3    68  PRO68       0.0310
     22  CG       -25.4050   39.3410   -3.5640 C.3    68  PRO68       0.0237
     23  CD       -25.2770   39.4970   -2.0660 C.3    68  PRO68       0.0939
     24  N        -28.5350   41.1060   -4.4360 N.am   69  VAL69      -0.1978
     25  CA       -29.9030   40.7020   -4.7550 C.3    69  VAL69       0.1596
     26  C        -30.1000   39.1890   -4.4960 C.2    69  VAL69       0.2287
     27  O        -29.2060   38.3920   -4.7530 O.2    69  VAL69      -0.2864
     28  CB       -30.2860   41.1090   -6.1990 C.3    69  VAL69       0.0276
     29  CG1      -29.2620   40.5760   -7.1930 C.3    69  VAL69       0.0022
     30  CG2      -31.7010   40.6450   -6.5390 C.3    69  VAL69       0.0022
     31  N        -29.9040   32.7430   -6.7580 N.3   160  ILE160     -0.1231
     32  CA       -28.9140   33.5450   -7.4800 C.3   160  ILE160      0.1692
     33  C        -27.5850   33.5780   -6.7260 C.2   160  ILE160      0.2592
     34  O        -26.6700   34.3160   -7.0660 O.2   160  ILE160     -0.2718
     35  CB       -29.4190   34.9780   -7.7090 C.3   160  ILE160      0.0266
     36  CG1      -28.5570   35.7160   -8.7480 C.3   160  ILE160      0.0019
     37  CG2      -29.3950   35.7230   -6.4000 C.3   160  ILE160      0.0020
     38  CD1      -28.5810   35.1190  -10.1520 C.3   160  ILE160      0.0001
     39  N        -27.4890   32.7860   -5.6700 N.am  161  GLN161     -0.1966
     40  CA       -26.2580   32.7360   -4.9030 C.3   161  GLN161      0.1733
     41  C        -25.3430   31.5830   -5.3550 C.2   161  GLN161      0.2616
     42  O        -25.4770   30.4260   -4.9290 O.2   161  GLN161     -0.2715
     43  CB       -26.5680   32.6700   -3.4170 C.3   161  GLN161      0.0408
     44  CG       -25.3440   32.6040   -2.5550 C.3   161  GLN161      0.0908
     45  CD       -25.6860   32.4600   -1.0870 C.2   161  GLN161      0.2608
     46  OE1      -26.2520   33.3720   -0.4800 O.2   161  GLN161     -0.2717
     47  NE2      -25.3620   31.3070   -0.5110 N.am  161  GLN161     -0.0878
     48  N        -24.4370   31.9300   -6.2600 N.am  162  PHE162     -0.1960
     49  CA       -23.4860   30.9970   -6.8320 C.3   162  PHE162      0.1771
     50  C        -22.2290   30.9660   -5.9930 C.2   162  PHE162      0.2619
     51  O        -21.8000   32.0140   -5.5130 O.2   162  PHE162     -0.2715
     52  CB       -23.1820   31.3920   -8.2750 C.3   162  PHE162      0.0574
     53  CG       -24.4100   31.4730   -9.1240 C.ar  162  PHE162     -0.0200
     54  CD1      -25.5070   30.6760   -8.8190 C.ar  162  PHE162     -0.0042
     55  CD2      -24.5030   32.3590  -10.1830 C.ar  162  PHE162     -0.0042
     56  CE1      -26.6700   30.7370   -9.5670 C.ar  162  PHE162     -0.0003
     57  CE2      -25.6660   32.4300  -10.9420 C.ar  162  PHE162     -0.0003
     58  CZ       -26.7500   31.6140  -10.6330 C.ar  162  PHE162     -0.0000
     59  N        -21.6640   29.7690   -5.8110 N.am  163  GLU163     -0.1977
     60  CA       -20.5800   29.5790   -4.8800 C.3   163  GLU163      0.1602
     61  C        -19.7660   28.3130   -5.2180 C.2   163  GLU163      0.2287
     62  O        -20.2780   27.3550   -5.7870 O.2   163  GLU163     -0.2864
     63  CB       -21.1770   29.4320   -3.4850 C.3   163  GLU163      0.0415
     64  CG       -20.1470   29.2870   -2.3910 C.3   163  GLU163      0.1163
     65  CD       -20.7480   28.8620   -1.0680 C.2   163  GLU163      0.3649
     66  OE1      -21.9990   28.8050   -0.9850 O.co2 163  GLU163     -0.2457
     67  OE2      -19.9640   28.5720   -0.1250 O.co2 163  GLU163     -0.2457
     68  N        -27.8470   38.1700  -13.1920 N.3   193  PHE193     -0.1241
     69  CA       -28.0350   39.4060  -12.4680 C.3   193  PHE193      0.1605
     70  C        -27.6030   40.5980  -13.3070 C.2   193  PHE193      0.2264
     71  O        -26.8300   40.4430  -14.2570 O.2   193  PHE193     -0.2867
     72  CB       -27.3100   39.3750  -11.1120 C.3   193  PHE193      0.0534
     73  CG       -25.8340   39.1450  -11.2090 C.ar  193  PHE193     -0.0203
     74  CD1      -25.3140   37.8450  -11.1450 C.ar  193  PHE193     -0.0042
     75  CD2      -24.9510   40.2170  -11.3570 C.ar  193  PHE193     -0.0042
     76  CE1      -23.9530   37.6110  -11.2200 C.ar  193  PHE193     -0.0003
     77  CE2      -23.5740   39.9920  -11.4450 C.ar  193  PHE193     -0.0003
     78  CZ       -23.0740   38.6740  -11.3770 C.ar  193  PHE193     -0.0000
     79  N        -19.9250   34.3560  -15.2960 N.3   208  THR208     -0.1218
     80  CA       -20.2130   33.8520  -13.9620 C.3   208  THR208      0.1862
     81  C        -19.6890   32.4130  -13.7480 C.2   208  THR208      0.2287
     82  O        -19.0870   32.0930  -12.7080 O.2   208  THR208     -0.2866
     83  CB       -21.7130   33.9190  -13.6850 C.3   208  THR208      0.1770
     84  OG1      -22.1400   35.2820  -13.8030 O.3   208  THR208     -0.2211
     85  CG2      -22.0270   33.3860  -12.2820 C.3   208  THR208      0.0375
     86  N        -16.0420   32.5020  -13.5100 N.3   211  HIS211     -0.1226
     87  CA       -15.6900   33.0040  -12.1860 C.3   211  HIS211      0.1752
     88  C        -15.6380   31.8360  -11.1900 C.2   211  HIS211      0.2595
     89  O        -14.6800   31.6590  -10.4590 O.2   211  HIS211     -0.2718
     90  CB       -16.6720   34.1160  -11.7390 C.3   211  HIS211      0.0759
     91  CG       -16.4870   34.5360  -10.3030 C.ar  211  HIS211      0.0818
     92  ND1      -15.9050   35.7330   -9.9430 N.ar  211  HIS211     -0.2268
     93  CD2      -16.8080   33.9210   -9.1420 C.ar  211  HIS211      0.1154
     94  CE1      -15.8740   35.8330   -8.6350 C.ar  211  HIS211      0.1986
     95  NE2      -16.4080   34.7420   -8.1280 N.ar  211  HIS211     -0.2212
     96  N        -16.6720   31.0170  -11.1730 N.am  212  GLU212     -0.1979
     97  CA       -16.6870   29.9030  -10.2340 C.3   212  GLU212      0.1602
     98  C        -15.5710   28.8650  -10.5130 C.2   212  GLU212      0.2287
     99  O        -14.9680   28.3050   -9.5900 O.2   212  GLU212     -0.2864
    100  CB       -18.0760   29.2530  -10.1950 C.3   212  GLU212      0.0415
    101  CG       -19.1980   30.2190   -9.7340 C.3   212  GLU212      0.1163
    102  CD       -18.8930   30.8230   -8.3650 C.2   212  GLU212      0.3649
    103  OE1      -18.1620   30.1920   -7.5770 O.co2 212  GLU212     -0.2457
    104  OE2      -19.3640   31.9400   -8.0770 O.co2 212  GLU212     -0.2457
    105  N        -12.4460   30.0640   -8.9380 N.3   215  HIS215     -0.1241
    106  CA       -12.4180   29.6260   -7.5410 C.3   215  HIS215      0.1621
    107  C        -11.9800   28.1400   -7.4810 C.2   215  HIS215      0.2264
    108  O        -11.1910   27.7310   -6.6200 O.2   215  HIS215     -0.2867
    109  CB       -13.7880   29.7730   -6.8780 C.3   215  HIS215      0.0745
    110  CG       -14.1470   31.1710   -6.4780 C.ar  215  HIS215      0.0817
    111  ND1      -13.2810   32.0030   -5.7910 N.ar  215  HIS215     -0.2268
    112  CD2      -15.2920   31.8690   -6.6240 C.ar  215  HIS215      0.1154
    113  CE1      -13.8720   33.1570   -5.5650 C.ar  215  HIS215      0.1986
    114  NE2      -15.1010   33.1210   -6.0690 N.ar  215  HIS215     -0.2212
    115  N        -17.7530   44.1520    3.6120 N.3   232  GLU232     -0.1231
    116  CA       -16.3860   43.6480    3.4690 C.3   232  GLU232      0.1699
    117  C        -16.2450   42.6250    2.3280 C.2   232  GLU232      0.2592
    118  O        -17.1630   41.8320    2.0610 O.2   232  GLU232     -0.2718
    119  CB       -15.8990   43.0380    4.7870 C.3   232  GLU232      0.0402
    120  CG       -16.8450   42.0080    5.3960 C.3   232  GLU232      0.1161
    121  CD       -16.3300   41.4220    6.7070 C.2   232  GLU232      0.3649
    122  OE1      -15.7970   42.1880    7.5440 O.co2 232  GLU232     -0.2457
    123  OE2      -16.4470   40.1920    6.8930 O.co2 232  GLU232     -0.2457
    124  N        -15.0900   42.6400    1.6650 N.am  233  VAL233     -0.1980
    125  CA       -14.8470   41.7450    0.5380 C.3   233  VAL233      0.1595
    126  C        -13.5450   40.9920    0.7550 C.2   233  VAL233      0.2287
    127  O        -12.5260   41.5900    1.1190 O.2   233  VAL233     -0.2864
    128  CB       -14.7560   42.5050   -0.7980 C.3   233  VAL233      0.0276
    129  CG1      -14.3500   41.5520   -1.9120 C.3   233  VAL233      0.0022
    130  CG2      -16.0850   43.1820   -1.1220 C.3   233  VAL233      0.0022
    131  N        -12.0790   36.7040   -3.4170 N.3   237  GLU237     -0.1245
    132  CA       -12.9380   37.3390   -4.4160 C.3   237  GLU237      0.1567
    133  C        -12.2100   38.4000   -5.2200 C.2   237  GLU237      0.2260
    134  O        -12.3640   38.4660   -6.4410 O.2   237  GLU237     -0.2867
    135  CB       -14.1950   37.9440   -3.7780 C.3   237  GLU237      0.0388
    136  CG       -15.1150   36.9340   -3.1480 C.3   237  GLU237      0.1160
    137  CD       -15.7030   35.9220   -4.1260 C.2   237  GLU237      0.3649
    138  OE1      -15.5570   36.0260   -5.3710 O.co2 237  GLU237     -0.2457
    139  OE2      -16.3500   34.9910   -3.6250 O.co2 237  GLU237     -0.2457
    140  N        -19.4110   44.4530  -15.2330 N.3   338  ARG338     -0.1245
    141  CA       -19.1390   45.4780  -14.2180 C.3   338  ARG338      0.1563
    142  C        -17.6350   45.6220  -13.9920 C.2   338  ARG338      0.2260
    143  O        -16.8770   44.6830  -14.2400 O.2   338  ARG338     -0.2867
    144  CB       -19.8650   45.1520  -12.9100 C.3   338  ARG338      0.0307
    145  CG       -19.3710   43.9120  -12.2080 C.3   338  ARG338      0.0489
    146  CD       -20.3780   43.5100  -11.1560 C.3   338  ARG338      0.2205
    147  NE       -19.7790   42.6720  -10.1270 N.pl3 338  ARG338     -0.0865
    148  CZ       -19.5500   41.3650  -10.2500 C.cat 338  ARG338      0.5346
    149  NH1      -19.8720   40.7300  -11.3700 N.pl3 338  ARG338      0.1354
    150  NH2      -19.0060   40.6960   -9.2440 N.pl3 338  ARG338      0.1354
    151  N        -15.8780   44.4550   -8.2480 N.3   341  TYR341     -0.1227
    152  CA       -16.5940   43.3280   -7.6850 C.3   341  TYR341      0.1736
    153  C        -17.9890   43.7240   -7.1640 C.2   341  TYR341      0.2595
    154  O        -18.9410   42.9850   -7.3360 O.2   341  TYR341     -0.2718
    155  CB       -15.7450   42.6140   -6.6140 C.3   341  TYR341      0.0548
    156  CG       -16.3950   41.3670   -6.0640 C.ar  341  TYR341     -0.0200
    157  CD1      -16.4740   40.2070   -6.8190 C.ar  341  TYR341     -0.0009
    158  CD2      -16.9330   41.3550   -4.7870 C.ar  341  TYR341     -0.0009
    159  CE1      -17.0830   39.0640   -6.3130 C.ar  341  TYR341      0.0417
    160  CE2      -17.5380   40.2380   -4.2750 C.ar  341  TYR341      0.0417
    161  CZ       -17.6130   39.0950   -5.0380 C.ar  341  TYR341      0.1957
    162  OH       -18.2220   38.0010   -4.4860 O.3   341  TYR341     -0.2866
    163  N        -18.1260   44.9020   -6.5680 N.am  342  LEU342     -0.1980
    164  CA       -19.4070   45.2880   -5.9810 C.3   342  LEU342      0.1596
    165  C        -20.3040   46.0910   -6.9050 C.2   342  LEU342      0.2287
    166  O        -21.4880   46.2520   -6.6170 O.2   342  LEU342     -0.2864
    167  CB       -19.1810   46.0830   -4.7110 C.3   342  LEU342      0.0297
    168  CG       -18.5950   45.3050   -3.5390 C.3   342  LEU342      0.0022
    169  CD1      -17.4210   44.4780   -3.9870 C.3   342  LEU342      0.0001
    170  CD2      -18.1730   46.2720   -2.4540 C.3   342  LEU342      0.0001
    171  N        -22.5490   46.0240   -8.9940 N.3   344  PHE344     -0.1227
    172  CA       -23.6930   45.3100   -9.5360 C.3   344  PHE344      0.1736
    173  C        -24.9120   46.1250   -9.1550 C.2   344  PHE344      0.2595
    174  O        -24.8000   47.1250   -8.4420 O.2   344  PHE344     -0.2718
    175  CB       -23.7990   43.9050   -8.9190 C.3   344  PHE344      0.0547
    176  CG       -23.7920   43.8980   -7.4060 C.ar  344  PHE344     -0.0202
    177  CD1      -22.6610   43.4890   -6.7070 C.ar  344  PHE344     -0.0042
    178  CD2      -24.9140   44.3050   -6.6860 C.ar  344  PHE344     -0.0042
    179  CE1      -22.6460   43.4840   -5.3210 C.ar  344  PHE344     -0.0003
    180  CE2      -24.9100   44.3070   -5.2990 C.ar  344  PHE344     -0.0003
    181  CZ       -23.7740   43.8940   -4.6130 C.ar  344  PHE344     -0.0000
    182  N        -26.0770   45.7050   -9.6190 N.am  345  ASP345     -0.1974
    183  CA       -27.2900   46.3430   -9.1690 C.3   345  ASP345      0.1709
    184  C        -28.2650   45.2740   -8.7010 C.2   345  ASP345      0.2293
    185  O        -28.1300   44.0940   -9.0530 O.2   345  ASP345     -0.2864
    186  CB       -27.8870   47.1940  -10.2810 C.3   345  ASP345      0.1436
    187  CG       -29.1000   47.9620   -9.8290 C.2   345  ASP345      0.3671
    188  OD1      -28.9910   48.7470   -8.8590 O.co2 345  ASP345     -0.2456
    189  OD2      -30.1720   47.7560  -10.4340 O.co2 345  ASP345     -0.2456
@<TRIPOS>BOND
     1    79    80    1
     2   140   141    1
     3    71    70    2
     4   143   142    2
     5   141   142    1
     6   141   144    1
     7    80    81    1
     8    80    83    1
     9    84    83    1
    10    81    82    2
    11    83    85    1
    12    86    87    1
    13    70    69    1
    14    68    69    1
    15   144   145    1
    16    69    72    1
    17   145   146    1
    18    87    90    1
    19    87    88    1
    20    90    91    1
    21    77    78   ar
    22    77    75   ar
    23    78    76   ar
    24   149   148    1
    25    75    73   ar
    26    76    74   ar
    27    73    74   ar
    28    73    72    1
    29    88    96   am
    30    88    89    2
    31    96    97    1
    32   146   147    1
    33    57    58   ar
    34    57    55   ar
    35    58    56   ar
    36    98    97    1
    37    98    99    2
    38   189   187   ar
    39    91    92   ar
    40    91    93   ar
    41   186   187    1
    42   186   183    1
    43   148   147    2
    44   148   150    1
    45    97   100    1
    46   100   101    1
    47    55    53   ar
    48    38    36    1
    49    92    94   ar
    50   187   188   ar
    51   101   102    1
    52   182   183    1
    53   182   173   am
    54    56    54   ar
    55   172   173    1
    56   172   171    1
    57   172   175    1
    58   183   184    1
    59   173   174    2
    60    93    95   ar
    61    53    54   ar
    62    53    52    1
    63   185   184    2
    64   105   106    1
    65   175   176    1
    66    36    35    1
    67    94    95   ar
    68   102   104   ar
    69   102   103   ar
    70    52    49    1
    71   151   152    1
    72    35    32    1
    73    35    37    1
    74   152   153    1
    75   152   155    1
    76   106   107    1
    77   106   109    1
    78   107   108    2
    79    32    31    1
    80    32    33    1
    81   176   177   ar
    82   176   178   ar
    83   154   153    2
    84    29    28    1
    85   153   163   am
    86    34    33    2
    87   165   166    2
    88   165   164    1
    89   109   110    1
    90    49    48    1
    91    49    50    1
    92   157   159   ar
    93   157   156   ar
    94    33    39   am
    95   177   179   ar
    96   178   180   ar
    97   112   110   ar
    98   112   114   ar
    99   155   156    1
   100   163   164    1
   101    30    28    1
   102   110   111   ar
   103   134   133    2
   104   159   161   ar
   105    48    41   am
   106    28    25    1
   107   114   113   ar
   108   156   158   ar
   109    50    59   am
   110    50    51    2
   111   164   167    1
   112    59    60    1
   113   111   113   ar
   114    62    61    2
   115    39    40    1
   116   138   137   ar
   117    41    42    2
   118    41    40    1
   119   179   181   ar
   120   180   181   ar
   121   133   132    1
   122    61    60    1
   123   161   162    1
   124   161   160   ar
   125    40    43    1
   126    60    63    1
   127   158   160   ar
   128    25    26    1
   129    25    24    1
   130    27    26    2
   131   167   168    1
   132    24    19   am
   133   132   135    1
   134   132   131    1
   135   137   139   ar
   136   137   136    1
   137    21    22    1
   138    21    18    1
   139   169   168    1
   140   135   136    1
   141    22    23    1
   142   168   170    1
   143    63    64    1
   144    43    44    1
   145    19    18    1
   146    19    20    2
   147    18    17    1
   148    44    45    1
   149    64    65    1
   150    23    17    1
   151   129   128    1
   152    17    12   am
   153   130   128    1
   154    45    47   am
   155    45    46    2
   156    65    66   ar
   157    65    67   ar
   158   128   125    1
   159    16    14    1
   160    14    11    1
   161    14    15    1
   162    12    11    1
   163    12    13    2
   164    11    10    1
   165   125   126    1
   166   125   124    1
   167     7     8    1
   168     7     6    1
   169   126   127    2
   170     8     9    1
   171     4     3    2
   172   124   117   am
   173     5     6    1
   174     5     2    1
   175   118   117    2
   176     3     2    1
   177   117   116    1
   178     1     2    1
   179   116   115    1
   180   116   119    1
   181   119   120    1
   182   120   121    1
   183   121   123   ar
   184   121   122   ar
