@<TRIPOS>MOLECULE
tmp/3qj5A01.pdb
 163 157 0 0 0
SMALL
GASTEIGER

@<TRIPOS>ATOM
      1  N         58.1580   13.2630   -6.4160 N.3    43  CYS43      -0.1221
      2  CA        58.0840   13.3500   -4.9690 C.3    43  CYS43       0.1808
      3  C         56.6630   13.0280   -4.4780 C.2    43  CYS43       0.2601
      4  O         55.7040   13.0720   -5.2560 O.2    43  CYS43      -0.2717
      5  CB        58.5730   14.7360   -4.5370 C.3    43  CYS43       0.0970
      6  SG        57.7830   15.4790   -3.1110 S.3    43  CYS43      -0.0800
      7  N         56.5500   12.6880   -3.1950 N.am   44  HIS44      -0.1961
      8  CA        55.2790   12.3310   -2.5590 C.3    44  HIS44       0.1787
      9  C         54.0760   13.2160   -2.9210 C.2    44  HIS44       0.2620
     10  O         52.9830   12.7030   -3.1690 O.2    44  HIS44      -0.2715
     11  CB        55.4410   12.2870   -1.0310 C.3    44  HIS44       0.0785
     12  CG        54.1500   12.0740   -0.3020 C.ar   44  HIS44       0.0821
     13  ND1       53.4590   13.1020    0.3010 N.ar   44  HIS44      -0.2267
     14  CD2       53.4060   10.9590   -0.1150 C.ar   44  HIS44       0.1154
     15  CE1       52.3540   12.6250    0.8480 C.ar   44  HIS44       0.1986
     16  NE2       52.2970   11.3270    0.6100 N.ar   44  HIS44      -0.2212
     17  N         54.2650   14.5340   -2.9350 N.am   45  THR45      -0.1951
     18  CA        53.1340   15.4490   -3.1680 C.3    45  THR45       0.1897
     19  C         52.6120   15.4310   -4.6110 C.2    45  THR45       0.2313
     20  O         51.4300   15.6970   -4.8380 O.2    45  THR45      -0.2863
     21  CB        53.4070   16.8910   -2.6660 C.3    45  THR45       0.1794
     22  OG1       52.1620   17.5860   -2.5040 O.3    45  THR45      -0.2208
     23  CG2       54.3020   17.6640   -3.6220 C.3    45  THR45       0.0378
     24  N         57.7900   19.2470   -9.5810 N.3    65  HIS65      -0.1241
     25  CA        58.3060   20.4330   -8.8920 C.3    65  HIS65       0.1621
     26  C         59.7630   20.2790   -8.4210 C.2    65  HIS65       0.2264
     27  O         60.2990   21.1470   -7.7180 O.2    65  HIS65      -0.2867
     28  CB        57.3920   20.7810   -7.7140 C.3    65  HIS65       0.0745
     29  CG        57.3860   19.7360   -6.6510 C.ar   65  HIS65       0.0817
     30  ND1       56.6910   18.5550   -6.7780 N.ar   65  HIS65      -0.2268
     31  CD2       58.0230   19.6740   -5.4580 C.ar   65  HIS65       0.1154
     32  CE1       56.8930   17.8130   -5.7050 C.ar   65  HIS65       0.1986
     33  NE2       57.6930   18.4720   -4.8880 N.ar   65  HIS65      -0.2212
     34  N         59.2420   26.3260   -6.2060 N.3    91  TYR91      -0.1227
     35  CA        57.8380   26.3580   -5.7870 C.3    91  TYR91       0.1736
     36  C         57.5990   27.3550   -4.6460 C.2    91  TYR91       0.2595
     37  O         56.4540   27.7230   -4.3520 O.2    91  TYR91      -0.2718
     38  CB        57.2930   24.9630   -5.4660 C.3    91  TYR91       0.0548
     39  CG        57.9410   24.2260   -4.3180 C.ar   91  TYR91      -0.0200
     40  CD1       58.9410   23.2760   -4.5500 C.ar   91  TYR91      -0.0009
     41  CD2       57.5220   24.4380   -3.0020 C.ar   91  TYR91      -0.0009
     42  CE1       59.5290   22.5760   -3.4950 C.ar   91  TYR91       0.0417
     43  CE2       58.1050   23.7380   -1.9340 C.ar   91  TYR91       0.0417
     44  CZ        59.1020   22.8130   -2.1920 C.ar   91  TYR91       0.1957
     45  OH        59.6720   22.1120   -1.1580 O.3    91  TYR91      -0.2866
     46  N         58.6920   27.7710   -4.0090 N.am   92  ILE92      -0.1980
     47  CA        58.6850   28.9310   -3.1210 C.3    92  ILE92       0.1595
     48  C         59.5250   29.9910   -3.8100 C.2    92  ILE92       0.2287
     49  O         60.7360   29.8210   -3.9390 O.2    92  ILE92      -0.2864
     50  CB        59.3070   28.6240   -1.7350 C.3    92  ILE92       0.0276
     51  CG1       58.6220   27.4240   -1.0710 C.3    92  ILE92       0.0022
     52  CG2       59.3000   29.8900   -0.8390 C.3    92  ILE92       0.0022
     53  CD1       57.5260   27.7710   -0.1070 C.3    92  ILE92       0.0001
     54  N         58.6440   32.6980    3.0580 N.3   108  LEU108     -0.1231
     55  CA        57.3410   32.5030    2.4400 C.3   108  LEU108      0.1693
     56  C         56.8670   33.7100    1.6270 C.2   108  LEU108      0.2592
     57  O         55.8580   34.3320    1.9580 O.2   108  LEU108     -0.2718
     58  CB        56.3020   32.0860    3.4900 C.3   108  LEU108      0.0284
     59  CG        56.4960   30.7220    4.1750 C.3   108  LEU108      0.0019
     60  CD1       55.5150   30.5680    5.3340 C.3   108  LEU108      0.0001
     61  CD2       56.3550   29.5550    3.1950 C.3   108  LEU108      0.0001
     62  N         57.5940   34.0160    0.5520 N.am  109  CYS109     -0.1956
     63  CA        57.1970   35.0620   -0.4080 C.3   109  CYS109      0.1843
     64  C         55.7280   34.9240   -0.8090 C.2   109  CYS109      0.2625
     65  O         55.2850   33.8370   -1.1870 O.2   109  CYS109     -0.2714
     66  CB        58.0790   34.9930   -1.6590 C.3   109  CYS109      0.0997
     67  SG        57.6530   36.2220   -2.9270 S.3   109  CYS109     -0.0797
     68  N         54.9760   36.0240   -0.7210 N.am  110  GLN110     -0.1977
     69  CA        53.5270   35.9830   -0.9610 C.3   110  GLN110      0.1601
     70  C         53.0990   36.5610   -2.3040 C.2   110  GLN110      0.2287
     71  O         51.9100   36.5650   -2.6210 O.2   110  GLN110     -0.2864
     72  CB        52.7720   36.7160    0.1540 C.3   110  GLN110      0.0394
     73  CG        53.0340   36.1460    1.5370 C.3   110  GLN110      0.0908
     74  CD        52.3270   34.8320    1.7890 C.2   110  GLN110      0.2608
     75  OE1       51.1200   34.8130    2.0510 O.2   110  GLN110     -0.2717
     76  NE2       53.0710   33.7250    1.7300 N.am  110  GLN110     -0.0878
     77  N         51.3760   33.7190   -4.7420 N.3   113  ARG113     -0.1245
     78  CA        50.7860   32.5290   -4.1100 C.3   113  ARG113      0.1563
     79  C         49.3540   32.1930   -4.5390 C.2   113  ARG113      0.2260
     80  O         49.0130   31.0190   -4.6920 O.2   113  ARG113     -0.2867
     81  CB        50.8780   32.6190   -2.5760 C.3   113  ARG113      0.0307
     82  CG        50.0250   33.7190   -1.9530 C.3   113  ARG113      0.0489
     83  CD        50.0820   33.6840   -0.4310 C.3   113  ARG113      0.2205
     84  NE        49.3300   32.5690    0.1400 N.pl3 113  ARG113     -0.0865
     85  CZ        48.0430   32.6170    0.4660 C.cat 113  ARG113      0.5346
     86  NH1       47.3390   33.7270    0.2790 N.pl3 113  ARG113      0.1354
     87  NH2       47.4520   31.5460    0.9790 N.pl3 113  ARG113      0.1354
     88  N         49.3920   30.9070   -8.1190 N.3   116  GLN116     -0.1231
     89  CA        50.1260   29.6340   -8.0980 C.3   116  GLN116      0.1698
     90  C         49.2720   28.4880   -7.5520 C.2   116  GLN116      0.2592
     91  O         49.2500   27.3980   -8.1270 O.2   116  GLN116     -0.2718
     92  CB        51.4320   29.7590   -7.3140 C.3   116  GLN116      0.0381
     93  CG        52.2720   28.4980   -7.3730 C.3   116  GLN116      0.0905
     94  CD        53.6620   28.6860   -6.8150 C.2   116  GLN116      0.2608
     95  OE1       54.3830   29.6060   -7.2030 O.2   116  GLN116     -0.2717
     96  NE2       54.0560   27.7990   -5.9080 N.am  116  GLN116     -0.0878
     97  N         48.5560   28.7450   -6.4570 N.am  117  GLY117     -0.1957
     98  CA        47.6530   27.7570   -5.8760 C.3   117  GLY117      0.1869
     99  C         46.5690   27.3010   -6.8360 C.2   117  GLY117      0.2309
    100  O         46.0780   26.1840   -6.7330 O.2   117  GLY117     -0.2863
    101  N         51.4750   23.5390  -11.9520 N.3   138  TYR138     -0.1227
    102  CA        51.5150   22.9250  -10.6230 C.3   138  TYR138      0.1736
    103  C         52.6970   23.4580   -9.8300 C.2   138  TYR138      0.2595
    104  O         53.8410   23.4440  -10.3080 O.2   138  TYR138     -0.2718
    105  CB        51.5870   21.4020  -10.7430 C.3   138  TYR138      0.0548
    106  CG        51.6090   20.6270   -9.4360 C.ar  138  TYR138     -0.0200
    107  CD1       50.4840   20.5800   -8.6080 C.ar  138  TYR138     -0.0009
    108  CD2       52.7430   19.8980   -9.0510 C.ar  138  TYR138     -0.0009
    109  CE1       50.4900   19.8520   -7.4270 C.ar  138  TYR138      0.0417
    110  CE2       52.7560   19.1560   -7.8620 C.ar  138  TYR138      0.0417
    111  CZ        51.6260   19.1480   -7.0570 C.ar  138  TYR138      0.1957
    112  OH        51.6110   18.4330   -5.8830 O.3   138  TYR138     -0.2866
    113  N         52.3970   23.9500   -8.6270 N.am  139  MET139     -0.1979
    114  CA        53.4000   24.4490   -7.6780 C.3   139  MET139      0.1605
    115  C         54.3340   25.4980   -8.2830 C.2   139  MET139      0.2287
    116  O         55.4720   25.6650   -7.8430 O.2   139  MET139     -0.2864
    117  CB        54.1750   23.2740   -7.0550 C.3   139  MET139      0.0413
    118  CG        53.2770   22.3590   -6.2320 C.3   139  MET139      0.0598
    119  SD        54.1070   21.0200   -5.3600 S.3   139  MET139     -0.1393
    120  CE        55.0860   21.9310   -4.1570 C.3   139  MET139      0.0692
    121  N         63.6460   20.3600   -4.1130 N.3   172  CYS172     -0.1235
    122  CA        62.6960   20.0670   -3.0310 C.3   172  CYS172      0.1677
    123  C         63.2570   19.3230   -1.8120 C.2   172  CYS172      0.2270
    124  O         63.5920   19.9470   -0.8060 O.2   172  CYS172     -0.2867
    125  CB        61.4620   19.3250   -3.5600 C.3   172  CYS172      0.0956
    126  SG        60.2030   19.0640   -2.3040 S.3   172  CYS172     -0.0801
    127  N         65.0330   20.8460    1.6730 N.3   176  THR176     -0.1218
    128  CA        64.0540   20.9250    2.7640 C.3   176  THR176      0.1862
    129  C         64.5890   20.2780    4.0510 C.2   176  THR176      0.2287
    130  O         64.6200   20.9210    5.1010 O.2   176  THR176     -0.2866
    131  CB        62.7030   20.3000    2.3550 C.3   176  THR176      0.1770
    132  OG1       62.1330   21.0580    1.2780 O.3   176  THR176     -0.2211
    133  CG2       61.7360   20.3170    3.5270 C.3   176  THR176      0.0375
    134  N         54.0860   16.9750    5.5140 N.3   292  VAL292     -0.1245
    135  CA        52.8400   17.6890    5.2300 C.3   292  VAL292      0.1561
    136  C         51.6710   16.7250    5.4140 C.2   292  VAL292      0.2260
    137  O         51.5060   15.7770    4.6460 O.2   292  VAL292     -0.2867
    138  CB        52.8520   18.3260    3.8110 C.3   292  VAL292      0.0252
    139  CG1       51.4910   18.9500    3.4600 C.3   292  VAL292      0.0019
    140  CG2       53.9530   19.3690    3.7080 C.3   292  VAL292      0.0019
    141  N         58.6580   23.7930    9.0910 N.3   315  THR315     -0.1203
    142  CA        59.4920   24.3540    8.0480 C.3   315  THR315      0.1994
    143  C         58.8550   24.2040    6.6730 C.2   315  THR315      0.2618
    144  O         58.1120   23.2500    6.4240 O.2   315  THR315     -0.2717
    145  CB        60.9240   23.7470    8.0930 C.3   315  THR315      0.1784
    146  OG1       61.8120   24.5260    7.2800 O.3   315  THR315     -0.2211
    147  CG2       60.9210   22.2990    7.6240 C.3   315  THR315      0.0376
    148  N         59.1460   25.1660    5.7980 N.am  316  ALA316     -0.1965
    149  CA        58.7240   25.1180    4.4050 C.3   316  ALA316      0.1728
    150  C         59.9640   25.2790    3.5440 C.2   316  ALA316      0.2616
    151  O         60.6490   26.3030    3.6160 O.2   316  ALA316     -0.2715
    152  CB        57.7100   26.2300    4.1010 C.3   316  ALA316      0.0334
    153  N         60.2690   24.2520    2.7510 N.am  317  PHE317     -0.1974
    154  CA        61.4710   24.2490    1.9010 C.3   317  PHE317      0.1639
    155  C         62.7330   24.5740    2.7230 C.2   317  PHE317      0.2290
    156  O         63.6110   25.3230    2.2870 O.2   317  PHE317     -0.2864
    157  CB        61.2900   25.2020    0.6950 C.3   317  PHE317      0.0560
    158  CG        62.3780   25.0850   -0.3580 C.ar  317  PHE317     -0.0200
    159  CD1       62.6210   23.8730   -1.0020 C.ar  317  PHE317     -0.0042
    160  CD2       63.1430   26.1930   -0.7120 C.ar  317  PHE317     -0.0042
    161  CE1       63.6290   23.7650   -1.9720 C.ar  317  PHE317     -0.0003
    162  CE2       64.1490   26.0940   -1.6810 C.ar  317  PHE317     -0.0003
    163  CZ        64.3880   24.8740   -2.3120 C.ar  317  PHE317     -0.0000
@<TRIPOS>BOND
     1   101   102    1
     2   105   102    1
     3   105   106    1
     4   102   103    1
     5   104   103    2
     6   103   113   am
     7    24    25    1
     8   106   108   ar
     9   106   107   ar
    10   108   110   ar
    11    25    26    1
    12    25    28    1
    13   113   114    1
    14   107   109   ar
    15    26    27    2
    16   115   116    2
    17   115   114    1
    18    91    90    2
    19    88    89    1
    20    89    90    1
    21    89    92    1
    22   110   111   ar
    23    28    29    1
    24   114   117    1
    25    90    97   am
    26   109   111   ar
    27    93    92    1
    28    93    94    1
    29    95    94    2
    30   111   112    1
    31   117   118    1
    32    99   100    2
    33    99    98    1
    34    94    96   am
    35    30    29   ar
    36    30    32   ar
    37    29    31   ar
    38    97    98    1
    39     1     2    1
    40   118   119    1
    41    34    35    1
    42    35    38    1
    43    35    36    1
    44    32    33   ar
    45    38    39    1
    46    31    33   ar
    47   119   120    1
    48     4     3    2
    49     2     5    1
    50     2     3    1
    51    20    19    2
    52    77    78    1
    53    80    79    2
    54    36    37    2
    55    36    46   am
    56    19    18    1
    57    40    39   ar
    58    40    42   ar
    59    79    78    1
    60     5     6    1
    61     3     7   am
    62    39    41   ar
    63   121   122    1
    64    78    81    1
    65    46    47    1
    66    49    48    2
    67    48    47    1
    68    23    21    1
    69   125   122    1
    70   125   126    1
    71    42    44   ar
    72     7     8    1
    73    10     9    2
    74    18    17    1
    75    18    21    1
    76    47    50    1
    77   122   123    1
    78    41    43   ar
    79    17     9   am
    80    67    66    1
    81     9     8    1
    82    21    22    1
    83    71    70    2
    84    81    82    1
    85     8    11    1
    86   163   161   ar
    87   163   162   ar
    88    70    69    1
    89    44    43   ar
    90    44    45    1
    91   161   159   ar
    92    82    83    1
    93   123   124    2
    94    50    51    1
    95    50    52    1
    96   162   160   ar
    97    66    63    1
    98    65    64    2
    99    51    53    1
   100    11    12    1
   101   159   158   ar
   102    69    68    1
   103    69    72    1
   104    64    68   am
   105    64    63    1
   106   160   158   ar
   107    83    84    1
   108    63    62    1
   109   158   157    1
   110    12    14   ar
   111    12    13   ar
   112    14    16   ar
   113    84    85    2
   114    72    73    1
   115    86    85    1
   116    13    15   ar
   117    85    87    1
   118    62    56   am
   119    16    15   ar
   120   157   154    1
   121   132   131    1
   122    73    74    1
   123    56    57    2
   124    56    55    1
   125   127   128    1
   126    76    74   am
   127    74    75    2
   128   154   155    1
   129   154   153    1
   130   156   155    2
   131   131   128    1
   132   131   133    1
   133    55    54    1
   134    55    58    1
   135   153   150   am
   136   128   129    1
   137    61    59    1
   138   139   138    1
   139    58    59    1
   140   150   151    2
   141   150   149    1
   142   140   138    1
   143   138   135    1
   144   129   130    2
   145   152   149    1
   146    59    60    1
   147   149   148    1
   148   137   136    2
   149   135   136    1
   150   135   134    1
   151   148   143   am
   152   144   143    2
   153   143   142    1
   154   146   145    1
   155   147   145    1
   156   142   145    1
   157   142   141    1
