@<TRIPOS>MOLECULE
tmp/3qj5A03.pdb
 92 86 0 0 0
SMALL
GASTEIGER

@<TRIPOS>ATOM
      1  N         67.8030   39.9980  -15.4020 N.3    80  LYS80      -0.1231
      2  CA        68.7350   39.2100  -14.5860 C.3    80  LYS80       0.1693
      3  C         68.9760   37.7950  -15.1220 C.2    80  LYS80       0.2591
      4  O         69.9680   37.1500  -14.7680 O.2    80  LYS80      -0.2718
      5  CB        68.2530   39.1260  -13.1330 C.3    80  LYS80       0.0285
      6  CG        68.1050   40.4630  -12.4230 C.3    80  LYS80       0.0035
      7  CD        67.4910   40.2610  -11.0370 C.3    80  LYS80       0.0206
      8  CE        66.4990   41.3690  -10.7090 C.3    80  LYS80       0.1093
      9  NZ        65.9030   41.2300   -9.3410 N.3    80  LYS80      -0.1314
     10  N         68.0560   37.3100  -15.9490 N.am   81  LEU81      -0.1980
     11  CA        68.1810   35.9910  -16.5560 C.3    81  LEU81       0.1596
     12  C         68.1640   36.1050  -18.0720 C.2    81  LEU81       0.2287
     13  O         67.6020   37.0500  -18.6240 O.2    81  LEU81      -0.2864
     14  CB        67.0600   35.0640  -16.0830 C.3    81  LEU81       0.0297
     15  CG        66.9630   34.7820  -14.5810 C.3    81  LEU81       0.0022
     16  CD1       65.5500   34.3690  -14.2290 C.3    81  LEU81       0.0001
     17  CD2       67.9750   33.7240  -14.1450 C.3    81  LEU81       0.0001
     18  N         61.0580   34.0730   -4.5670 N.3    94  GLN94      -0.1231
     19  CA        61.6260   35.1710   -3.7820 C.3    94  GLN94       0.1698
     20  C         61.5730   36.4640   -4.5990 C.2    94  GLN94       0.2592
     21  O         62.4900   36.7600   -5.3700 O.2    94  GLN94      -0.2718
     22  CB        63.0600   34.8580   -3.3100 C.3    94  GLN94       0.0381
     23  CG        63.6320   35.8660   -2.2990 C.3    94  GLN94       0.0905
     24  CD        65.0770   35.5880   -1.8980 C.2    94  GLN94       0.2608
     25  OE1       65.6720   34.5880   -2.3000 O.2    94  GLN94      -0.2717
     26  NE2       65.6480   36.4850   -1.0960 N.am   94  GLN94      -0.0878
     27  N         60.4890   37.2220   -4.4280 N.am   95  CYS95      -0.1956
     28  CA        60.3330   38.5200   -5.1050 C.3    95  CYS95       0.1843
     29  C         61.3060   39.5690   -4.5540 C.2    95  CYS95       0.2626
     30  O         61.6650   40.5280   -5.2450 O.2    95  CYS95      -0.2714
     31  CB        58.8840   39.0170   -5.0170 C.3    95  CYS95       0.0997
     32  SG        58.4150   39.8080   -3.4420 S.3    95  CYS95      -0.0797
     33  N         61.7370   39.3770   -3.3100 N.am   96  GLY96      -0.1940
     34  CA        62.6900   40.2810   -2.6780 C.3    96  GLY96       0.2014
     35  C         62.1250   41.6170   -2.2200 C.2    96  GLY96       0.2638
     36  O         62.8750   42.4720   -1.7600 O.2    96  GLY96      -0.2714
     37  N         60.8070   41.7910   -2.3250 N.am   97  GLU97      -0.1977
     38  CA        60.1630   43.0940   -2.0860 C.3    97  GLU97       0.1602
     39  C         59.0020   43.0580   -1.0880 C.2    97  GLU97       0.2287
     40  O         58.6660   44.0870   -0.4940 O.2    97  GLU97      -0.2864
     41  CB        59.6620   43.6930   -3.4050 C.3    97  GLU97       0.0415
     42  CG        60.7570   44.0940   -4.3790 C.3    97  GLU97       0.1163
     43  CD        60.2100   44.6570   -5.6880 C.2    97  GLU97       0.3649
     44  OE1       59.2670   45.4880   -5.6550 O.co2  97  GLU97      -0.2457
     45  OE2       60.7320   44.2740   -6.7540 O.co2  97  GLU97      -0.2457
     46  N         60.3760   35.3420  -10.6800 N.3   153  ILE153     -0.1245
     47  CA        60.7600   35.2420   -9.2660 C.3   153  ILE153      0.1561
     48  C         60.8220   33.7900   -8.7500 C.2   153  ILE153      0.2260
     49  O         61.1870   33.5510   -7.5970 O.2   153  ILE153     -0.2867
     50  CB        59.8490   36.1210   -8.3430 C.3   153  ILE153      0.0252
     51  CG1       58.3910   35.6310   -8.3680 C.3   153  ILE153      0.0019
     52  CG2       59.9810   37.6070   -8.7220 C.3   153  ILE153      0.0019
     53  CD1       57.4860   36.2480   -7.2550 C.3   153  ILE153      0.0001
     54  N         62.8340   31.4440   -9.9840 N.3   155  VAL155     -0.1245
     55  CA        64.0290   30.9340  -10.6730 C.3   155  VAL155      0.1561
     56  C         65.3110   31.1350   -9.8670 C.2   155  VAL155      0.2260
     57  O         65.6530   32.2620   -9.4970 O.2   155  VAL155     -0.2867
     58  CB        64.2170   31.6090  -12.0680 C.3   155  VAL155      0.0252
     59  CG1       65.4260   31.0260  -12.7890 C.3   155  VAL155      0.0019
     60  CG2       62.9760   31.4550  -12.9280 C.3   155  VAL155      0.0019
     61  N         69.3260   30.8380  -10.3350 N.3   157  LYS157     -0.1245
     62  CA        70.4030   30.7160  -11.3180 C.3   157  LYS157      0.1561
     63  C         71.6080   30.0970  -10.6430 C.2   157  LYS157      0.2260
     64  O         72.1110   30.6330   -9.6520 O.2   157  LYS157     -0.2867
     65  CB        70.7800   32.0830  -11.8910 C.3   157  LYS157      0.0271
     66  CG        71.8610   32.0200  -12.9770 C.3   157  LYS157      0.0035
     67  CD        72.3410   33.4120  -13.3540 C.3   157  LYS157      0.0206
     68  CE        73.4070   33.3480  -14.4320 C.3   157  LYS157      0.1093
     69  NZ        73.9360   34.7090  -14.7540 N.3   157  LYS157     -0.1314
     70  N         65.7190   32.0560   -3.9850 N.3   323  VAL323     -0.1231
     71  CA        66.5150   32.6010   -5.0910 C.3   323  VAL323      0.1692
     72  C         67.9710   32.8510   -4.6700 C.2   323  VAL323      0.2591
     73  O         68.9070   32.6030   -5.4410 O.2   323  VAL323     -0.2718
     74  CB        65.8480   33.8720   -5.7060 C.3   323  VAL323      0.0266
     75  CG1       66.7280   34.5030   -6.7850 C.3   323  VAL323      0.0020
     76  CG2       64.4860   33.5200   -6.2910 C.3   323  VAL323      0.0020
     77  N         68.1670   33.3190   -3.4440 N.am  324  GLU324     -0.1979
     78  CA        69.5210   33.5420   -2.9520 C.3   324  GLU324      0.1602
     79  C         70.1960   32.2640   -2.4420 C.2   324  GLU324      0.2287
     80  O         71.4210   32.1510   -2.5170 O.2   324  GLU324     -0.2864
     81  CB        69.5620   34.6550   -1.8920 C.3   324  GLU324      0.0415
     82  CG        68.8060   34.3630   -0.6020 C.3   324  GLU324      0.1163
     83  CD        68.8770   35.5170    0.3780 C.2   324  GLU324      0.3649
     84  OE1       68.1810   36.5330    0.1640 O.co2 324  GLU324     -0.2457
     85  OE2       69.6290   35.4040    1.3670 O.co2 324  GLU324     -0.2457
     86  N         71.3290   28.5790   -5.2580 N.3   327  PRO327     -0.2116
     87  CA        72.6740   28.6100   -5.8510 C.3   327  PRO327      0.1372
     88  C         73.7810   28.2700   -4.8410 C.2   327  PRO327      0.2244
     89  O         74.7470   27.5850   -5.1940 O.2   327  PRO327     -0.2868
     90  CB        72.8190   30.0590   -6.3320 C.3   327  PRO327      0.0268
     91  CG        71.4190   30.5410   -6.5110 C.3   327  PRO327      0.0207
     92  CD        70.6530   29.8820   -5.4030 C.3   327  PRO327      0.0892
@<TRIPOS>BOND
     1    13    12    2
     2    12    11    1
     3    11    14    1
     4    11    10    1
     5    14    15    1
     6    10     3   am
     7     1     2    1
     8     3     4    2
     9     3     2    1
    10    69    68    1
    11     2     5    1
    12    15    16    1
    13    15    17    1
    14    68    67    1
    15    67    66    1
    16     5     6    1
    17    66    65    1
    18    60    58    1
    19    59    58    1
    20     6     7    1
    21    58    55    1
    22    65    62    1
    23    62    63    1
    24    62    61    1
    25     7     8    1
    26     8     9    1
    27    46    47    1
    28    55    54    1
    29    55    56    1
    30    63    64    2
    31    56    57    2
    32    47    48    1
    33    47    50    1
    34    48    49    2
    35    52    50    1
    36    51    50    1
    37    51    53    1
    38    75    74    1
    39    45    43   ar
    40    91    90    1
    41    91    92    1
    42    90    87    1
    43    76    74    1
    44    87    86    1
    45    87    88    1
    46    74    71    1
    47    43    44   ar
    48    43    42    1
    49    73    72    2
    50    92    86    1
    51    21    20    2
    52    30    29    2
    53    89    88    2
    54    28    31    1
    55    28    29    1
    56    28    27    1
    57    71    72    1
    58    71    70    1
    59    31    32    1
    60    72    77   am
    61    20    27   am
    62    20    19    1
    63    18    19    1
    64    29    33   am
    65    42    41    1
    66    19    22    1
    67    77    78    1
    68    41    38    1
    69    22    23    1
    70    33    34    1
    71    78    79    1
    72    78    81    1
    73    34    35    1
    74    80    79    2
    75    37    35   am
    76    37    38    1
    77    25    24    2
    78    23    24    1
    79    35    36    2
    80    38    39    1
    81    24    26   am
    82    81    82    1
    83    39    40    2
    84    82    83    1
    85    84    83   ar
    86    83    85   ar
