@<TRIPOS>MOLECULE
tmp/3qj7A01.pdb
 86 83 0 0 0
SMALL
GASTEIGER

@<TRIPOS>ATOM
      1  N         45.3600    0.4230   23.1260 N.3   120  ARG120     -0.1245
      2  CA        44.2200    0.1530   24.0020 C.3   120  ARG120      0.1563
      3  C         44.6310   -0.5450   25.3040 C.2   120  ARG120      0.2260
      4  O         44.0840   -0.2600   26.3750 O.2   120  ARG120     -0.2867
      5  CB        43.1820   -0.7160   23.2800 C.3   120  ARG120      0.0307
      6  CG        42.4370   -0.0220   22.1500 C.3   120  ARG120      0.0489
      7  CD        41.7930   -1.0390   21.2080 C.3   120  ARG120      0.2205
      8  NE        41.1480   -0.4040   20.0620 N.pl3 120  ARG120     -0.0865
      9  CZ        40.8660   -1.0280   18.9210 C.cat 120  ARG120      0.5346
     10  NH1       41.1860   -2.3090   18.7670 N.pl3 120  ARG120      0.1354
     11  NH2       40.2740   -0.3700   17.9280 N.pl3 120  ARG120      0.1354
     12  N         40.9920    8.1250   17.4790 N.3   190  ALA190     -0.1231
     13  CA        39.5630    7.8460   17.5700 C.3   190  ALA190      0.1694
     14  C         39.3020    6.3830   17.8950 C.2   190  ALA190      0.2592
     15  O         38.4210    6.0740   18.6870 O.2   190  ALA190     -0.2718
     16  CB        38.8350    8.2420   16.2590 C.3   190  ALA190      0.0304
     17  N         40.0580    5.4890   17.2640 N.am  191  GLN191     -0.1966
     18  CA        39.8600    4.0580   17.4530 C.3   191  GLN191      0.1733
     19  C         40.4970    3.5270   18.7460 C.2   191  GLN191      0.2616
     20  O         40.1970    2.4170   19.1710 O.2   191  GLN191     -0.2715
     21  CB        40.3830    3.2740   16.2500 C.3   191  GLN191      0.0408
     22  CG        39.5320    3.4000   14.9850 C.3   191  GLN191      0.0908
     23  CD        38.1030    2.9440   15.2170 C.2   191  GLN191      0.2608
     24  OE1       37.8790    1.9040   15.8150 O.2   191  GLN191     -0.2717
     25  NE2       37.1310    3.7340   14.7590 N.am  191  GLN191     -0.0878
     26  N         41.3770    4.3090   19.3630 N.am  192  ALA192     -0.1963
     27  CA        42.0270    3.8770   20.5980 C.3   192  ALA192      0.1728
     28  C         41.3900    4.5280   21.8040 C.2   192  ALA192      0.2616
     29  O         41.7970    4.2730   22.9400 O.2   192  ALA192     -0.2715
     30  CB        43.5320    4.1760   20.5690 C.3   192  ALA192      0.0334
     31  N         40.3940    5.3760   21.5510 N.am  193  GLY193     -0.1955
     32  CA        39.7200    6.0960   22.6150 C.3   193  GLY193      0.1869
     33  C         40.5650    7.2220   23.1890 C.2   193  GLY193      0.2309
     34  O         40.4250    7.5710   24.3520 O.2   193  GLY193     -0.2863
     35  N         35.6840   13.1940   11.9750 N.3   232  LEU232     -0.1231
     36  CA        35.4290   11.8150   11.5370 C.3   232  LEU232      0.1693
     37  C         34.0810   11.3070   12.0220 C.2   232  LEU232      0.2592
     38  O         33.7200   11.4730   13.1850 O.2   232  LEU232     -0.2718
     39  CB        36.5190   10.8600   12.0260 C.3   232  LEU232      0.0284
     40  CG        37.9400   11.1050   11.5270 C.3   232  LEU232      0.0019
     41  CD1       38.9090   10.1470   12.2220 C.3   232  LEU232      0.0001
     42  CD2       37.9810   10.9440   10.0270 C.3   232  LEU232      0.0001
     43  N         33.3360   10.6970   11.1130 N.am  233  ALA233     -0.1966
     44  CA        32.1260    9.9900   11.4730 C.3   233  ALA233      0.1728
     45  C         32.4830    8.8340   12.4230 C.2   233  ALA233      0.2616
     46  O         33.6250    8.3750   12.4560 O.2   233  ALA233     -0.2715
     47  CB        31.4620    9.4560   10.2170 C.3   233  ALA233      0.0334
     48  N         31.5050    8.3580   13.1880 N.am  234  ASP234     -0.1957
     49  CA        31.7020    7.2050   14.0530 C.3   234  ASP234      0.1840
     50  C         31.8800    5.9030   13.2620 C.2   234  ASP234      0.2622
     51  O         31.1050    5.6090   12.3580 O.2   234  ASP234     -0.2715
     52  CB        30.5190    7.0620   15.0060 C.3   234  ASP234      0.1450
     53  CG        30.7280    5.9570   16.0290 C.2   234  ASP234      0.3671
     54  OD1       31.4480    6.1910   17.0110 O.co2 234  ASP234     -0.2456
     55  OD2       30.1820    4.8510   15.8610 O.co2 234  ASP234     -0.2456
     56  N         32.9070    5.1340   13.6070 N.am  235  ARG235     -0.1963
     57  CA        33.0720    3.7600   13.1230 C.3   235  ARG235      0.1729
     58  C         33.7000    2.9010   14.2110 C.2   235  ARG235      0.2616
     59  O         34.4390    3.4070   15.0450 O.2   235  ARG235     -0.2715
     60  CB        33.9430    3.7220   11.8830 C.3   235  ARG235      0.0348
     61  CG        33.3170    4.4020   10.6900 C.3   235  ARG235      0.0492
     62  CD        32.3120    3.5050    9.9840 C.3   235  ARG235      0.2205
     63  NE        31.9380    4.1150    8.7220 N.pl3 235  ARG235     -0.0865
     64  CZ        30.7990    3.8940    8.0810 C.cat 235  ARG235      0.5346
     65  NH1       29.9040    3.0480    8.5830 N.pl3 235  ARG235      0.1354
     66  NH2       30.5540    4.5310    6.9420 N.pl3 235  ARG235      0.1354
     67  N         33.4260    1.6040   14.2170 N.am  236  ASP236     -0.1971
     68  CA        33.9840    0.7920   15.2960 C.3   236  ASP236      0.1709
     69  C         35.2510    0.0470   14.8770 C.2   236  ASP236      0.2293
     70  O         35.7650   -0.7650   15.6160 O.2   236  ASP236     -0.2864
     71  CB        32.9390   -0.1470   15.9180 C.3   236  ASP236      0.1436
     72  CG        33.2230   -0.4410   17.3910 C.2   236  ASP236      0.3671
     73  OD1       34.0460    0.2810   18.0030 O.co2 236  ASP236     -0.2456
     74  OD2       32.6150   -1.3870   17.9410 O.co2 236  ASP236     -0.2456
     75  N         36.4550    2.9080    7.9750 N.3   241  TYR241     -0.1241
     76  CA        36.3390    4.3110    7.5540 C.3   241  TYR241      0.1605
     77  C         36.2490    4.3790    6.0350 C.2   241  TYR241      0.2264
     78  O         36.8740    3.5900    5.3260 O.2   241  TYR241     -0.2867
     79  CB        37.5210    5.1810    8.0220 C.3   241  TYR241      0.0534
     80  CG        37.5190    5.5780    9.4850 C.ar  241  TYR241     -0.0201
     81  CD1       38.5480    5.1800   10.3260 C.ar  241  TYR241     -0.0009
     82  CD2       36.5110    6.3710   10.0190 C.ar  241  TYR241     -0.0009
     83  CE1       38.5810    5.5570   11.6600 C.ar  241  TYR241      0.0417
     84  CE2       36.5190    6.7370   11.3630 C.ar  241  TYR241      0.0417
     85  CZ        37.5670    6.3250   12.1770 C.ar  241  TYR241      0.1957
     86  OH        37.6120    6.6790   13.5110 O.3   241  TYR241     -0.2866
@<TRIPOS>BOND
     1    78    77    2
     2    77    76    1
     3    66    64    1
     4    76    75    1
     5    76    79    1
     6    79    80    1
     7    64    65    1
     8    64    63    2
     9    63    62    1
    10    80    82   ar
    11    80    81   ar
    12    62    61    1
    13    82    84   ar
    14    42    40    1
    15    47    44    1
    16    81    83   ar
    17    61    60    1
    18    43    44    1
    19    43    37   am
    20    84    85   ar
    21    44    45    1
    22    40    39    1
    23    40    41    1
    24    36    35    1
    25    36    37    1
    26    36    39    1
    27    83    85   ar
    28    60    57    1
    29    37    38    2
    30    85    86    1
    31    51    50    2
    32    45    46    2
    33    45    48   am
    34    57    56    1
    35    57    58    1
    36    48    49    1
    37    50    56   am
    38    50    49    1
    39    49    52    1
    40    58    67   am
    41    58    59    2
    42    67    68    1
    43    25    23   am
    44    69    68    1
    45    69    70    2
    46    22    23    1
    47    22    21    1
    48    52    53    1
    49    23    24    2
    50    68    71    1
    51    55    53   ar
    52    71    72    1
    53    53    54   ar
    54    21    18    1
    55    16    13    1
    56    17    18    1
    57    17    14   am
    58    72    74   ar
    59    72    73   ar
    60    18    19    1
    61    12    13    1
    62    13    14    1
    63    14    15    2
    64    11     9    1
    65    19    20    2
    66    19    26   am
    67    10     9    1
    68     9     8    2
    69    26    27    1
    70     8     7    1
    71    30    27    1
    72    27    28    1
    73     7     6    1
    74    31    28   am
    75    31    32    1
    76    28    29    2
    77     6     5    1
    78    32    33    1
    79     1     2    1
    80    33    34    2
    81     5     2    1
    82     2     3    1
    83     3     4    2
