@<TRIPOS>MOLECULE
tmp/3qj9A01.pdb
 112 107 0 0 0
SMALL
GASTEIGER

@<TRIPOS>ATOM
      1  N          9.4590  -14.5360   22.2300 N.3    47  LEU47      -0.1231
      2  CA         8.5140  -13.7920   21.3980 C.3    47  LEU47       0.1693
      3  C          9.0840  -12.4920   20.8210 C.2    47  LEU47       0.2592
      4  O          8.6620  -12.0490   19.7520 O.2    47  LEU47      -0.2718
      5  CB         7.2310  -13.4970   22.1790 C.3    47  LEU47       0.0284
      6  CG         6.3150  -14.6830   22.4920 C.3    47  LEU47       0.0019
      7  CD1        5.3700  -14.3330   23.6260 C.3    47  LEU47       0.0001
      8  CD2        5.5440  -15.1480   21.2600 C.3    47  LEU47       0.0001
      9  N         10.0400  -11.8900   21.5270 N.am   48  THR48      -0.1953
     10  CA        10.6380  -10.6220   21.0980 C.3    48  THR48       0.1897
     11  C         11.7870  -10.8090   20.1000 C.2    48  THR48       0.2313
     12  O         12.2610   -9.8380   19.5050 O.2    48  THR48      -0.2863
     13  CB        11.1280   -9.7750   22.2990 C.3    48  THR48       0.1794
     14  OG1       12.0640  -10.5340   23.0680 O.3    48  THR48      -0.2208
     15  CG2        9.9550   -9.3450   23.1870 C.3    48  THR48       0.0378
     16  N         13.6850  -11.2670   16.7960 N.3    50  PRO50      -0.2116
     17  CA        13.4310  -11.0660   15.3730 C.3    50  PRO50       0.1372
     18  C         13.4630  -12.4140   14.6740 C.2    50  PRO50       0.2244
     19  O         14.2450  -13.2870   15.0690 O.2    50  PRO50      -0.2868
     20  CB        14.6150  -10.2060   14.9230 C.3    50  PRO50       0.0268
     21  CG        15.0410   -9.4910   16.1490 C.3    50  PRO50       0.0207
     22  CD        14.8330  -10.4720   17.2640 C.3    50  PRO50       0.0892
     23  N          0.5420  -16.8390   22.5540 N.3    75  LYS75      -0.1245
     24  CA         0.4770  -15.4100   22.2420 C.3    75  LYS75       0.1561
     25  C         -0.6390  -15.1100   21.2410 C.2    75  LYS75       0.2260
     26  O         -1.3580  -14.1210   21.3950 O.2    75  LYS75      -0.2867
     27  CB         1.8280  -14.8970   21.7230 C.3    75  LYS75       0.0271
     28  CG         1.8800  -13.3910   21.4400 C.3    75  LYS75       0.0035
     29  CD         1.7790  -12.5440   22.7140 C.3    75  LYS75       0.0206
     30  CE         2.0240  -11.0700   22.4030 C.3    75  LYS75       0.1093
     31  NZ         1.9800  -10.2070   23.6100 N.3    75  LYS75      -0.1314
     32  N         -4.0870   -1.7100   17.6270 N.3   180  TRP180     -0.1241
     33  CA        -3.6700   -0.3950   18.1290 C.3   180  TRP180      0.1605
     34  C         -4.8300    0.4240   18.7040 C.2   180  TRP180      0.2264
     35  O         -4.6280    1.2470   19.5910 O.2   180  TRP180     -0.2867
     36  CB        -2.9970    0.4150   17.0190 C.3   180  TRP180      0.0550
     37  CG        -1.6880   -0.1340   16.5210 C.ar  180  TRP180      0.0003
     38  CD1       -1.5080   -1.1650   15.6390 C.ar  180  TRP180      0.0946
     39  CD2       -0.3770    0.3410   16.8540 C.ar  180  TRP180      0.0152
     40  NE1       -0.1690   -1.3690   15.4120 N.ar  180  TRP180     -0.2442
     41  CE2        0.5500   -0.4610   16.1450 C.ar  180  TRP180      0.0810
     42  CE3        0.1060    1.3600   17.6870 C.ar  180  TRP180      0.0012
     43  CZ2        1.9370   -0.2710   16.2420 C.ar  180  TRP180      0.0191
     44  CZ3        1.4880    1.5520   17.7810 C.ar  180  TRP180      0.0001
     45  CH2        2.3850    0.7370   17.0600 C.ar  180  TRP180      0.0015
     46  N         -0.1210  -10.5370   13.3320 N.3   197  ILE197     -0.1231
     47  CA         1.3090  -10.2220   13.2480 C.3   197  ILE197      0.1692
     48  C          1.6350   -8.9100   13.9600 C.2   197  ILE197      0.2593
     49  O          2.6190   -8.8210   14.7040 O.2   197  ILE197     -0.2718
     50  CB         1.7890  -10.1650   11.7670 C.3   197  ILE197      0.0266
     51  CG1        1.5430  -11.5160   11.0770 C.3   197  ILE197      0.0019
     52  CG2        3.2690   -9.7700   11.6770 C.3   197  ILE197      0.0020
     53  CD1        1.7110  -11.4960    9.5690 C.3   197  ILE197      0.0001
     54  N          0.7920   -7.9050   13.7440 N.am  198  GLY198     -0.1942
     55  CA         1.0040   -6.5760   14.3100 C.3   198  GLY198      0.2014
     56  C          0.9100   -6.5040   15.8230 C.2   198  GLY198      0.2640
     57  O          1.2510   -5.4830   16.4170 O.2   198  GLY198     -0.2714
     58  N          0.4370   -7.5750   16.4500 N.am  199  SER199     -0.1935
     59  CA         0.3620   -7.6100   17.9040 C.3   199  SER199      0.2055
     60  C          1.2900   -8.6680   18.5070 C.2   199  SER199      0.2643
     61  O          1.2060   -8.9700   19.6960 O.2   199  SER199     -0.2714
     62  CB        -1.0870   -7.7870   18.3710 C.3   199  SER199      0.2130
     63  OG        -1.6150   -9.0070   17.8990 O.3   199  SER199     -0.2179
     64  N          2.1770   -9.2210   17.6820 N.am  200  GLY200     -0.1954
     65  CA         3.1810  -10.1770   18.1470 C.3   200  GLY200      0.1869
     66  C          2.7530  -11.6380   18.1300 C.2   200  GLY200      0.2309
     67  O          3.4960  -12.5070   18.5950 O.2   200  GLY200     -0.2863
     68  N         -1.7640   -1.7330   10.4750 N.3   221  CYS221     -0.1221
     69  CA        -1.3620   -2.4560   11.6940 C.3   221  CYS221      0.1808
     70  C          0.1350   -2.3500   12.0200 C.2   221  CYS221      0.2602
     71  O          0.6060   -2.9540   12.9750 O.2   221  CYS221     -0.2717
     72  CB        -1.7840   -3.9310   11.6170 C.3   221  CYS221      0.0970
     73  SG        -3.5760   -4.2180   11.6110 S.3   221  CYS221     -0.0800
     74  N          0.8710   -1.5870   11.2170 N.am  222  GLY222     -0.1942
     75  CA         2.2760   -1.2770   11.5040 C.3   222  GLY222      0.2014
     76  C          3.2770   -2.4000   11.2990 C.2   222  GLY222      0.2638
     77  O          4.2510   -2.5130   12.0450 O.2   222  GLY222     -0.2714
     78  N          3.0320   -3.2290   10.2890 N.am  223  ILE223     -0.1977
     79  CA         3.9640   -4.2820    9.8920 C.3   223  ILE223      0.1596
     80  C          4.3290   -4.0960    8.4190 C.2   223  ILE223      0.2287
     81  O          3.7750   -3.2160    7.7550 O.2   223  ILE223     -0.2864
     82  CB         3.3770   -5.7030   10.1340 C.3   223  ILE223      0.0276
     83  CG1        2.0610   -5.8980    9.3730 C.3   223  ILE223      0.0022
     84  CG2        3.2110   -5.9720   11.6340 C.3   223  ILE223      0.0022
     85  CD1        1.6880   -7.3540    9.1430 C.3   223  ILE223      0.0001
     86  N          7.1620   -8.6990   10.5590 N.3   257  ARG257     -0.1245
     87  CA         7.5370   -7.5580   11.4070 C.3   257  ARG257      0.1563
     88  C          8.7250   -6.7470   10.8710 C.2   257  ARG257      0.2260
     89  O          8.9740   -5.6340   11.3320 O.2   257  ARG257     -0.2867
     90  CB         7.8280   -8.0120   12.8470 C.3   257  ARG257      0.0307
     91  CG         6.6580   -8.6890   13.5570 C.3   257  ARG257      0.0489
     92  CD         6.9090   -8.7990   15.0570 C.3   257  ARG257      0.2205
     93  NE         8.0490   -9.6590   15.3840 N.pl3 257  ARG257     -0.0865
     94  CZ         7.9600  -10.9020   15.8590 C.cat 257  ARG257      0.5346
     95  NH1        9.0720  -11.5790   16.1210 N.pl3 257  ARG257      0.1354
     96  NH2        6.7790  -11.4730   16.0820 N.pl3 257  ARG257      0.1354
     97  N          6.3370    0.5790    7.6680 N.3   480  PRO480     -0.2116
     98  CA         6.0070    1.6160    8.6540 C.3   480  PRO480      0.1372
     99  C          7.1720    2.5820    8.8400 C.2   480  PRO480      0.2244
    100  O          8.3140    2.1370    8.9650 O.2   480  PRO480     -0.2868
    101  CB         5.7770    0.8250    9.9540 C.3   480  PRO480      0.0268
    102  CG         5.7620   -0.6100    9.5750 C.3   480  PRO480      0.0207
    103  CD         6.4970   -0.7480    8.2900 C.3   480  PRO480      0.0892
    104  N         15.0630   -2.1140   13.9020 N.3   548  LYS548     -0.1245
    105  CA        14.5770   -3.3260   13.2330 C.3   548  LYS548      0.1561
    106  C         15.6930   -4.0440   12.4660 C.2   548  LYS548      0.2260
    107  O         15.5110   -5.1690   12.0000 O.2   548  LYS548     -0.2867
    108  CB        13.3860   -3.0130   12.3150 C.3   548  LYS548      0.0271
    109  CG        12.1370   -2.5250   13.0550 C.3   548  LYS548      0.0035
    110  CD        10.8680   -3.0410   12.3950 C.3   548  LYS548      0.0206
    111  CE         9.6200   -2.6930   13.2030 C.3   548  LYS548      0.1093
    112  NZ         9.0520   -1.3520   12.8330 N.3   548  LYS548     -0.1314
@<TRIPOS>BOND
     1    97   103    1
     2    97    98    1
     3    81    80    2
     4   103   102    1
     5    80    79    1
     6    98    99    1
     7    98   101    1
     8    99   100    2
     9    85    83    1
    10    83    82    1
    11    53    51    1
    12   102   101    1
    13    79    82    1
    14    79    78    1
    15    82    84    1
    16    78    76   am
    17    68    69    1
    18    86    87    1
    19    88    89    2
    20    88    87    1
    21    51    50    1
    22    74    75    1
    23    74    70   am
    24    76    75    1
    25    76    77    2
    26    87    90    1
    27    73    72    1
    28    72    69    1
    29    52    50    1
    30    69    70    1
    31    50    47    1
    32   107   106    2
    33    70    71    2
    34   108   109    1
    35   108   105    1
    36   110   109    1
    37   110   111    1
    38   106   105    1
    39   112   111    1
    40    90    91    1
    41   105   104    1
    42    47    46    1
    43    47    48    1
    44    91    92    1
    45    54    48   am
    46    54    55    1
    47    48    49    2
    48    55    56    1
    49    18    19    2
    50    18    17    1
    51    20    17    1
    52    20    21    1
    53    92    93    1
    54    17    16    1
    55    93    94    2
    56    40    38   ar
    57    40    41   ar
    58    38    37   ar
    59    56    57    2
    60    56    58   am
    61    94    96    1
    62    94    95    1
    63    41    43   ar
    64    41    39   ar
    65    21    22    1
    66    43    45   ar
    67    58    59    1
    68    37    39   ar
    69    37    36    1
    70    16    22    1
    71    39    42   ar
    72    36    33    1
    73    45    44   ar
    74    32    33    1
    75    64    65    1
    76    64    60   am
    77    42    44   ar
    78    63    62    1
    79    59    62    1
    80    59    60    1
    81    33    34    1
    82    66    65    1
    83    66    67    2
    84    60    61    2
    85    34    35    2
    86    12    11    2
    87     4     3    2
    88    11    10    1
    89     3     2    1
    90     3     9   am
    91    10     9    1
    92    10    13    1
    93    25    26    2
    94    25    24    1
    95     8     6    1
    96     2     5    1
    97     2     1    1
    98    28    27    1
    99    28    29    1
   100    27    24    1
   101     5     6    1
   102    24    23    1
   103    13    14    1
   104    13    15    1
   105    30    29    1
   106    30    31    1
   107     6     7    1
