@<TRIPOS>MOLECULE
tmp/3qj9B00.pdb
 206 196 0 0 0
SMALL
GASTEIGER

@<TRIPOS>ATOM
      1  N         -2.9330  -13.4280  -41.2280 N.3   158  MET158     -0.1230
      2  CA        -2.1670  -14.4060  -40.4350 C.3   158  MET158      0.1702
      3  C         -2.9400  -15.5450  -39.7510 C.2   158  MET158      0.2592
      4  O         -2.3540  -16.3080  -38.9830 O.2   158  MET158     -0.2718
      5  CB        -1.2630  -13.7120  -39.4030 C.3   158  MET158      0.0401
      6  CG        -0.1740  -12.8320  -39.9900 C.3   158  MET158      0.0596
      7  SD         1.1590  -12.5340  -38.8010 S.3   158  MET158     -0.1393
      8  CE         0.3170  -11.6400  -37.4880 C.3   158  MET158      0.0692
      9  N         -4.2330  -15.6890  -40.0070 N.am  159  LEU159     -0.1966
     10  CA        -4.9170  -16.8580  -39.4420 C.3   159  LEU159      0.1728
     11  C         -5.2660  -17.9240  -40.4690 C.2   159  LEU159      0.2617
     12  O         -6.4170  -18.1350  -40.8500 O.2   159  LEU159     -0.2715
     13  CB        -6.0790  -16.5030  -38.5180 C.3   159  LEU159      0.0311
     14  CG        -6.8500  -15.2090  -38.6080 C.3   159  LEU159      0.0022
     15  CD1       -7.5790  -15.2240  -39.9300 C.3   159  LEU159      0.0001
     16  CD2       -7.8120  -15.1540  -37.4300 C.3   159  LEU159      0.0001
     17  N         -4.2090  -18.6110  -40.8680 N.am  160  SER160     -0.1936
     18  CA        -4.2220  -19.6080  -41.9040 C.3   160  SER160      0.2055
     19  C         -2.8860  -20.3070  -41.7800 C.2   160  SER160      0.2643
     20  O         -1.8930  -19.6710  -41.4180 O.2   160  SER160     -0.2714
     21  CB        -4.3150  -18.9250  -43.2680 C.3   160  SER160      0.2130
     22  OG        -4.0660  -19.8410  -44.3170 O.3   160  SER160     -0.2179
     23  N         -2.8470  -21.6060  -42.0500 N.am  161  PHE161     -0.1973
     24  CA        -1.5570  -22.2740  -42.1880 C.3   161  PHE161      0.1639
     25  C         -1.1950  -22.5390  -43.6560 C.2   161  PHE161      0.2290
     26  O         -0.4190  -23.4380  -43.9770 O.2   161  PHE161     -0.2864
     27  CB        -1.3770  -23.4790  -41.2380 C.3   161  PHE161      0.0560
     28  CG        -2.2990  -24.6420  -41.4990 C.ar  161  PHE161     -0.0200
     29  CD1       -1.8530  -25.7460  -42.2200 C.ar  161  PHE161     -0.0042
     30  CD2       -3.5910  -24.6620  -40.9820 C.ar  161  PHE161     -0.0042
     31  CE1       -2.6910  -26.8380  -42.4540 C.ar  161  PHE161     -0.0003
     32  CE2       -4.4400  -25.7510  -41.2170 C.ar  161  PHE161     -0.0003
     33  CZ        -3.9790  -26.8420  -41.9530 C.ar  161  PHE161     -0.0000
     34  N          0.1860  -19.0010  -32.8860 N.3   205  ILE205     -0.1231
     35  CA        -0.9810  -19.0160  -31.9900 C.3   205  ILE205      0.1692
     36  C         -1.8300  -20.2810  -32.1900 C.2   205  ILE205      0.2593
     37  O         -2.6880  -20.6130  -31.3590 O.2   205  ILE205     -0.2718
     38  CB        -1.8550  -17.7440  -32.1490 C.3   205  ILE205      0.0266
     39  CG1       -2.8350  -17.5960  -30.9700 C.3   205  ILE205      0.0019
     40  CG2       -2.5730  -17.7500  -33.5040 C.3   205  ILE205      0.0020
     41  CD1       -3.5620  -16.2560  -30.9130 C.3   205  ILE205      0.0001
     42  N         -1.5750  -20.9820  -33.2900 N.am  206  GLY206     -0.1942
     43  CA        -2.2770  -22.2130  -33.6030 C.3   206  GLY206      0.2014
     44  C         -1.3980  -23.2130  -34.3240 C.2   206  GLY206      0.2639
     45  O         -1.8810  -24.2610  -34.7570 O.2   206  GLY206     -0.2714
     46  N         -0.1130  -22.8820  -34.4620 N.am  207  GLY207     -0.1939
     47  CA         0.8510  -23.7260  -35.1700 C.3   207  GLY207      0.2014
     48  C          1.7430  -23.0030  -36.1690 C.2   207  GLY207      0.2639
     49  O          2.5260  -23.6470  -36.8750 O.2   207  GLY207     -0.2714
     50  N          1.6500  -21.6720  -36.2130 N.am  208  SER208     -0.1949
     51  CA         2.2760  -20.8640  -37.2840 C.3   208  SER208      0.1924
     52  C          3.8140  -20.8340  -37.3500 C.2   208  SER208      0.2314
     53  O          4.3720  -20.3140  -38.3140 O.2   208  SER208     -0.2863
     54  CB         1.7270  -19.4400  -37.2830 C.3   208  SER208      0.2116
     55  OG         0.3980  -19.4180  -37.7590 O.3   208  SER208     -0.2180
     56  N          3.9320  -25.5040  -38.3750 N.3   211  PHE211     -0.1241
     57  CA         3.4780  -25.8580  -39.7270 C.3   211  PHE211      0.1605
     58  C          4.5130  -25.5760  -40.8190 C.2   211  PHE211      0.2264
     59  O          4.8870  -26.4910  -41.5530 O.2   211  PHE211     -0.2867
     60  CB         2.1470  -25.1740  -40.0810 C.3   211  PHE211      0.0534
     61  CG         0.9420  -25.8300  -39.4670 C.ar  211  PHE211     -0.0203
     62  CD1        0.6560  -27.1720  -39.7170 C.ar  211  PHE211     -0.0042
     63  CD2        0.0810  -25.0990  -38.6540 C.ar  211  PHE211     -0.0042
     64  CE1       -0.4630  -27.7770  -39.1490 C.ar  211  PHE211     -0.0003
     65  CE2       -1.0380  -25.6910  -38.0860 C.ar  211  PHE211     -0.0003
     66  CZ        -1.3130  -27.0300  -38.3330 C.ar  211  PHE211     -0.0000
     67  N        -11.0030  -23.1210  -30.1800 N.3   344  ALA344     -0.1245
     68  CA       -11.8550  -22.3840  -31.1160 C.3   344  ALA344      0.1562
     69  C        -12.5560  -21.2050  -30.4340 C.2   344  ALA344      0.2260
     70  O        -12.6230  -20.1110  -30.9960 O.2   344  ALA344     -0.2867
     71  CB       -12.8730  -23.3100  -31.7840 C.3   344  ALA344      0.0290
     72  N        -10.0490  -18.3240  -29.5260 N.3   347  LEU347     -0.1231
     73  CA        -9.6190  -17.5220  -30.6670 C.3   347  LEU347      0.1693
     74  C        -10.7360  -16.6300  -31.2090 C.2   347  LEU347      0.2592
     75  O        -10.4690  -15.5820  -31.7960 O.2   347  LEU347     -0.2718
     76  CB        -9.0580  -18.4150  -31.7800 C.3   347  LEU347      0.0284
     77  CG        -7.7900  -19.2140  -31.4600 C.3   347  LEU347      0.0019
     78  CD1       -7.4950  -20.2460  -32.5460 C.3   347  LEU347      0.0001
     79  CD2       -6.5900  -18.3060  -31.2300 C.3   347  LEU347      0.0001
     80  N        -11.9810  -17.0450  -30.9760 N.am  348  PHE348     -0.1976
     81  CA       -13.1470  -16.4080  -31.5750 C.3   348  PHE348      0.1639
     82  C        -14.2310  -16.0230  -30.5600 C.2   348  PHE348      0.2290
     83  O        -15.4270  -16.0840  -30.8690 O.2   348  PHE348     -0.2864
     84  CB       -13.7200  -17.3160  -32.6690 C.3   348  PHE348      0.0560
     85  CG       -12.7670  -17.5540  -33.8090 C.ar  348  PHE348     -0.0200
     86  CD1      -12.5420  -16.5610  -34.7650 C.ar  348  PHE348     -0.0042
     87  CD2      -12.0800  -18.7560  -33.9170 C.ar  348  PHE348     -0.0042
     88  CE1      -11.6550  -16.7670  -35.8160 C.ar  348  PHE348     -0.0003
     89  CE2      -11.1930  -18.9750  -34.9630 C.ar  348  PHE348     -0.0003
     90  CZ       -10.9780  -17.9770  -35.9160 C.ar  348  PHE348     -0.0000
     91  N         -7.8020  -18.6450  -47.4070 N.3   368  LEU368     -0.1245
     92  CA        -8.5770  -18.5720  -46.1680 C.3   368  LEU368      0.1561
     93  C         -9.8670  -19.3850  -46.2440 C.2   368  LEU368      0.2260
     94  O        -10.5720  -19.5360  -45.2410 O.2   368  LEU368     -0.2867
     95  CB        -8.9190  -17.1110  -45.8490 C.3   368  LEU368      0.0270
     96  CG        -8.0380  -16.2650  -44.9200 C.3   368  LEU368      0.0019
     97  CD1       -6.5640  -16.6460  -44.9350 C.3   368  LEU368      0.0001
     98  CD2       -8.2110  -14.8120  -45.2700 C.3   368  LEU368      0.0001
     99  N        -13.4610  -20.5710  -46.4240 N.3   370  ASP370     -0.1225
    100  CA       -14.7640  -20.0330  -46.0480 C.3   370  ASP370      0.1805
    101  C        -14.7800  -19.3410  -44.6800 C.2   370  ASP370      0.2597
    102  O        -15.8530  -19.0450  -44.1560 O.2   370  ASP370     -0.2718
    103  CB       -15.8340  -21.1350  -46.1070 C.3   370  ASP370      0.1424
    104  CG       -16.1440  -21.5790  -47.5320 C.2   370  ASP370      0.3668
    105  OD1      -16.2830  -20.7110  -48.4260 O.co2 370  ASP370     -0.2456
    106  OD2      -16.2530  -22.8020  -47.7630 O.co2 370  ASP370     -0.2456
    107  N        -13.6000  -19.0680  -44.1190 N.am  371  LEU371     -0.1979
    108  CA       -13.4870  -18.4570  -42.7840 C.3   371  LEU371      0.1596
    109  C        -14.2970  -17.1670  -42.6360 C.2   371  LEU371      0.2287
    110  O        -15.1120  -17.0450  -41.7210 O.2   371  LEU371     -0.2864
    111  CB       -12.0210  -18.1710  -42.4230 C.3   371  LEU371      0.0297
    112  CG       -11.5180  -18.3220  -40.9740 C.3   371  LEU371      0.0022
    113  CD1      -10.3370  -17.4070  -40.7040 C.3   371  LEU371      0.0001
    114  CD2      -12.5780  -18.1640  -39.8830 C.3   371  LEU371      0.0001
    115  N        -18.0720  -17.4910  -43.0340 N.3   374  ILE374     -0.1245
    116  CA       -18.6310  -18.1210  -41.8410 C.3   374  ILE374      0.1561
    117  C        -18.7120  -17.1520  -40.6540 C.2   374  ILE374      0.2260
    118  O        -19.7350  -17.1030  -39.9600 O.2   374  ILE374     -0.2867
    119  CB       -17.8720  -19.4290  -41.4860 C.3   374  ILE374      0.0252
    120  CG1      -18.3620  -20.5600  -42.3890 C.3   374  ILE374      0.0019
    121  CG2      -18.0640  -19.8200  -40.0190 C.3   374  ILE374      0.0019
    122  CD1      -17.3740  -21.6780  -42.5730 C.3   374  ILE374      0.0001
    123  N        -26.1500  -29.4870  -38.1980 N.3   389  LEU389     -0.1245
    124  CA       -24.9350  -30.2310  -38.5190 C.3   389  LEU389      0.1561
    125  C        -24.5570  -31.2820  -37.4670 C.2   389  LEU389      0.2260
    126  O        -23.8990  -32.2680  -37.7980 O.2   389  LEU389     -0.2867
    127  CB       -23.7590  -29.2650  -38.7340 C.3   389  LEU389      0.0270
    128  CG       -23.3410  -28.7890  -40.1340 C.3   389  LEU389      0.0019
    129  CD1      -24.5070  -28.6670  -41.1190 C.3   389  LEU389      0.0001
    130  CD2      -22.5710  -27.4710  -40.0380 C.3   389  LEU389      0.0001
    131  N        -17.6290  -30.0370  -37.3970 N.3   396  LEU396     -0.1245
    132  CA       -18.0300  -28.7640  -37.9890 C.3   396  LEU396      0.1561
    133  C        -19.0180  -28.0100  -37.1020 C.2   396  LEU396      0.2260
    134  O        -18.9140  -26.7890  -36.9470 O.2   396  LEU396     -0.2867
    135  CB       -18.6510  -29.0000  -39.3710 C.3   396  LEU396      0.0270
    136  CG       -17.7620  -29.1840  -40.6080 C.3   396  LEU396      0.0019
    137  CD1      -16.7680  -30.3230  -40.4580 C.3   396  LEU396      0.0001
    138  CD2      -18.6420  -29.3920  -41.8520 C.3   396  LEU396      0.0001
    139  N        -17.2100  -26.5110  -33.8710 N.3   399  PHE399     -0.1227
    140  CA       -16.4280  -25.3350  -34.2440 C.3   399  PHE399      0.1736
    141  C        -17.3220  -24.1220  -34.5170 C.2   399  PHE399      0.2595
    142  O        -17.0330  -23.0180  -34.0520 O.2   399  PHE399     -0.2718
    143  CB       -15.5380  -25.6270  -35.4590 C.3   399  PHE399      0.0547
    144  CG       -14.1450  -26.0920  -35.1050 C.ar  399  PHE399     -0.0202
    145  CD1      -13.0770  -25.1980  -35.1120 C.ar  399  PHE399     -0.0042
    146  CD2      -13.8960  -27.4280  -34.7750 C.ar  399  PHE399     -0.0042
    147  CE1      -11.7820  -25.6210  -34.7920 C.ar  399  PHE399     -0.0003
    148  CE2      -12.6100  -27.8590  -34.4520 C.ar  399  PHE399     -0.0003
    149  CZ       -11.5510  -26.9500  -34.4620 C.ar  399  PHE399     -0.0000
    150  N        -18.4080  -24.3400  -35.2580 N.am  400  LEU400     -0.1980
    151  CA       -19.3230  -23.2700  -35.6530 C.3   400  LEU400      0.1596
    152  C        -19.9730  -22.6020  -34.4470 C.2   400  LEU400      0.2287
    153  O        -20.0580  -21.3710  -34.3740 O.2   400  LEU400     -0.2864
    154  CB       -20.4010  -23.8220  -36.5880 C.3   400  LEU400      0.0297
    155  CG       -21.3060  -22.8620  -37.3690 C.3   400  LEU400      0.0022
    156  CD1      -20.5360  -21.6640  -37.9330 C.3   400  LEU400      0.0001
    157  CD2      -21.9780  -23.6300  -38.4940 C.3   400  LEU400      0.0001
    158  N        -17.5830  -20.4400  -32.5290 N.3   403  MET403     -0.1245
    159  CA       -17.1730  -19.2260  -33.2370 C.3   403  MET403      0.1570
    160  C        -18.2450  -18.1280  -33.1560 C.2   403  MET403      0.2261
    161  O        -18.2820  -17.2230  -33.9850 O.2   403  MET403     -0.2867
    162  CB       -16.7820  -19.5430  -34.6930 C.3   403  MET403      0.0387
    163  CG       -15.4910  -20.3710  -34.8280 C.3   403  MET403      0.0595
    164  SD       -15.3450  -21.2910  -36.3920 S.3   403  MET403     -0.1393
    165  CE       -14.6660  -20.0350  -37.4700 C.3   403  MET403      0.0692
    166  N         -6.8250  -23.9720  -45.6150 N.3   452  GLY452     -0.1225
    167  CA        -8.0590  -23.2450  -45.3060 C.3   452  GLY452      0.1811
    168  C         -9.3340  -24.0770  -45.3150 C.2   452  GLY452      0.2280
    169  O        -10.3790  -23.6230  -44.8520 O.2   452  GLY452     -0.2866
    170  N         -9.4640  -27.5890  -41.5290 N.3   455  THR455     -0.1218
    171  CA        -9.2980  -26.9510  -40.2190 C.3   455  THR455      0.1862
    172  C         -8.9610  -27.9100  -39.0820 C.2   455  THR455      0.2287
    173  O         -8.1380  -27.5870  -38.2290 O.2   455  THR455     -0.2866
    174  CB       -10.5330  -26.0900  -39.8530 C.3   455  THR455      0.1770
    175  OG1      -10.7900  -25.1600  -40.9130 O.3   455  THR455     -0.2211
    176  CG2      -10.3010  -25.3010  -38.5670 C.3   455  THR455      0.0375
    177  N         -5.3480  -28.8360  -37.4110 N.3   458  ILE458     -0.1245
    178  CA        -4.6270  -28.0170  -36.4250 C.3   458  ILE458      0.1561
    179  C         -4.5710  -28.6990  -35.0580 C.2   458  ILE458      0.2260
    180  O         -3.9120  -28.2050  -34.1400 O.2   458  ILE458     -0.2867
    181  CB        -5.2310  -26.5910  -36.2600 C.3   458  ILE458      0.0252
    182  CG1       -6.6330  -26.6480  -35.6390 C.3   458  ILE458      0.0019
    183  CG2       -5.2280  -25.8400  -37.5930 C.3   458  ILE458      0.0019
    184  CD1       -7.1730  -25.2970  -35.1660 C.3   458  ILE458      0.0001
    185  N        -15.8610  -33.3160  -44.5010 N.3   497  ILE497     -0.1231
    186  CA       -15.1070  -32.5850  -45.5340 C.3   497  ILE497      0.1692
    187  C        -13.6500  -32.3380  -45.1730 C.2   497  ILE497      0.2592
    188  O        -12.7900  -32.3580  -46.0500 O.2   497  ILE497     -0.2718
    189  CB       -15.7210  -31.2200  -45.9280 C.3   497  ILE497      0.0266
    190  CG1      -16.4000  -30.5550  -44.7320 C.3   497  ILE497      0.0019
    191  CG2      -16.6410  -31.3750  -47.1300 C.3   497  ILE497      0.0020
    192  CD1      -16.4040  -29.0370  -44.8080 C.3   497  ILE497      0.0001
    193  N        -13.3810  -32.0900  -43.8930 N.am  498  TRP498     -0.1976
    194  CA       -12.0120  -31.8940  -43.4280 C.3   498  TRP498      0.1640
    195  C        -11.1390  -33.1220  -43.7040 C.2   498  TRP498      0.2290
    196  O        -10.0390  -32.9840  -44.2390 O.2   498  TRP498     -0.2864
    197  CB       -11.9800  -31.5050  -41.9420 C.3   498  TRP498      0.0576
    198  CG       -12.5840  -30.1620  -41.6490 C.ar  498  TRP498      0.0006
    199  CD1      -12.9070  -29.1870  -42.5550 C.ar  498  TRP498      0.0946
    200  CD2      -12.9060  -29.6270  -40.3540 C.ar  498  TRP498      0.0152
    201  NE1      -13.4310  -28.0910  -41.9060 N.ar  498  TRP498     -0.2442
    202  CE2      -13.4330  -28.3310  -40.5550 C.ar  498  TRP498      0.0810
    203  CE3      -12.8010  -30.1190  -39.0430 C.ar  498  TRP498      0.0012
    204  CZ2      -13.8600  -27.5200  -39.4930 C.ar  498  TRP498      0.0191
    205  CZ3      -13.2240  -29.3100  -37.9860 C.ar  498  TRP498      0.0001
    206  CH2      -13.7460  -28.0270  -38.2190 C.ar  498  TRP498      0.0015
@<TRIPOS>BOND
     1   105   104   ar
     2   106   104   ar
     3   104   103    1
     4    91    92    1
     5   191   189    1
     6    99   100    1
     7    93    92    1
     8    93    94    2
     9    92    95    1
    10   103   100    1
    11   188   187    2
    12   100   101    1
    13   189   186    1
    14   189   190    1
    15    95    96    1
    16   166   167    1
    17   186   187    1
    18   186   185    1
    19   168   167    1
    20   168   169    2
    21    98    96    1
    22   187   193   am
    23    97    96    1
    24   192   190    1
    25   101   102    2
    26   101   107   am
    27    22    21    1
    28   196   195    2
    29   107   108    1
    30    26    25    2
    31   193   194    1
    32   195   194    1
    33    25    24    1
    34   194   197    1
    35    21    18    1
    36   115   116    1
    37   108   109    1
    38   108   111    1
    39   109   110    2
    40   122   120    1
    41   199   201   ar
    42   199   198   ar
    43    31    29   ar
    44    31    33   ar
    45   111   112    1
    46   120   119    1
    47    29    28   ar
    48    24    23    1
    49    24    27    1
    50    23    19   am
    51    33    32   ar
    52   197   198    1
    53   201   202   ar
    54    18    19    1
    55    18    17    1
    56   138   136    1
    57   116   119    1
    58   116   117    1
    59    19    20    2
    60   198   200   ar
    61    59    58    2
    62   170   171    1
    63    28    27    1
    64    28    30   ar
    65   119   121    1
    66     1     2    1
    67    32    30   ar
    68   129   128    1
    69   112   113    1
    70   112   114    1
    71   175   174    1
    72    17    11   am
    73    12    11    2
    74    58    57    1
    75   117   118    2
    76   136   137    1
    77   136   135    1
    78   202   200   ar
    79   202   204   ar
    80    11    10    1
    81     2     3    1
    82     2     5    1
    83   200   203   ar
    84   171   174    1
    85   171   172    1
    86   128   130    1
    87   128   127    1
    88    60    57    1
    89    60    61    1
    90     9     3   am
    91     9    10    1
    92     6     5    1
    93     6     7    1
    94    15    14    1
    95   174   176    1
    96     3     4    2
    97    57    56    1
    98    62    61   ar
    99    62    64   ar
   100   204   206   ar
   101    61    63   ar
   102    10    13    1
   103   135   132    1
   104    64    66   ar
   105   172   173    2
   106   203   205   ar
   107     7     8    1
   108   127   124    1
   109    63    65   ar
   110    14    13    1
   111    14    16    1
   112   124   123    1
   113   124   125    1
   114   157   155    1
   115    66    65   ar
   116    53    52    2
   117   206   205   ar
   118   132   131    1
   119   132   133    1
   120   156   155    1
   121   126   125    2
   122    55    54    1
   123   183   181    1
   124   165   164    1
   125   177   178    1
   126   155   154    1
   127    52    51    1
   128    51    54    1
   129    51    50    1
   130   133   134    2
   131    49    48    2
   132   154   151    1
   133   178   181    1
   134   178   179    1
   135   164   163    1
   136   181   182    1
   137    50    48   am
   138    48    47    1
   139    90    88   ar
   140    90    89   ar
   141    88    86   ar
   142   151   150    1
   143   151   152    1
   144   182   184    1
   145   143   144    1
   146   143   140    1
   147   150   141   am
   148    47    46    1
   149   145   144   ar
   150   145   147   ar
   151   144   146   ar
   152   179   180    2
   153    89    87   ar
   154   163   162    1
   155   147   149   ar
   156   146   148   ar
   157    86    85   ar
   158    45    44    2
   159   162   159    1
   160   141   140    1
   161   141   142    2
   162    46    44   am
   163   149   148   ar
   164   152   153    2
   165    44    43    1
   166   140   139    1
   167   161   160    2
   168    87    85   ar
   169    85    84    1
   170    43    42    1
   171    40    38    1
   172    42    36   am
   173   159   160    1
   174   159   158    1
   175    34    35    1
   176    84    81    1
   177    78    77    1
   178    36    35    1
   179    36    37    2
   180    38    35    1
   181    38    39    1
   182    75    74    2
   183    71    68    1
   184    76    77    1
   185    76    73    1
   186    81    80    1
   187    81    82    1
   188    77    79    1
   189    74    80   am
   190    74    73    1
   191    68    69    1
   192    68    67    1
   193    70    69    2
   194    39    41    1
   195    83    82    2
   196    73    72    1
