@<TRIPOS>MOLECULE
tmp/3qjgA01.pdb
 81 81 0 0 0
SMALL
GASTEIGER

@<TRIPOS>ATOM
      1  N         36.7690  104.7390   59.7370 N.3    62  PRO62      -0.2102
      2  CA        35.3810  104.3380   59.9680 C.3    62  PRO62       0.1504
      3  C         35.2490  103.3120   61.0940 C.2    62  PRO62       0.2576
      4  O         34.1380  102.9910   61.4570 O.2    62  PRO62      -0.2718
      5  CB        34.9720  103.7020   58.6250 C.3    62  PRO62       0.0282
      6  CG        35.9300  104.1980   57.6670 C.3    62  PRO62       0.0208
      7  CD        37.2410  104.2340   58.4420 C.3    62  PRO62       0.0893
      8  N         36.3700  102.8000   61.5880 N.am   63  PHE63      -0.1963
      9  CA        36.3550  101.8290   62.6650 C.3    63  PHE63       0.1771
     10  C         36.6000  102.3710   64.0900 C.2    63  PHE63       0.2619
     11  O         36.7950  101.5970   65.0410 O.2    63  PHE63      -0.2715
     12  CB        37.2750  100.6570   62.3270 C.3    63  PHE63       0.0574
     13  CG        36.5990   99.5950   61.4780 C.ar   63  PHE63      -0.0200
     14  CD1       36.1520   98.4080   62.0480 C.ar   63  PHE63      -0.0042
     15  CD2       36.3620   99.8070   60.1280 C.ar   63  PHE63      -0.0042
     16  CE1       35.5070   97.4020   61.2680 C.ar   63  PHE63      -0.0003
     17  CE2       35.7190   98.8350   59.3350 C.ar   63  PHE63      -0.0003
     18  CZ        35.2880   97.6250   59.9060 C.ar   63  PHE63      -0.0000
     19  N         36.5630  103.6930   64.2400 N.am   64  LEU64      -0.1963
     20  CA        36.5850  104.3040   65.5490 C.3    64  LEU64       0.1728
     21  C         35.5120  103.7250   66.4250 C.2    64  LEU64       0.2616
     22  O         34.3640  103.5650   66.0150 O.2    64  LEU64      -0.2715
     23  CB        36.3590  105.7960   65.4270 C.3    64  LEU64       0.0311
     24  CG        37.4740  106.5900   64.7850 C.3    64  LEU64       0.0022
     25  CD1       36.8540  108.0090   64.4070 C.3    64  LEU64       0.0001
     26  CD2       38.6850  106.6150   65.7100 C.3    64  LEU64       0.0001
     27  N         35.8980  103.4110   67.6470 N.am   65  ASN65      -0.1958
     28  CA        35.0260  102.7580   68.5980 C.3    65  ASN65       0.1819
     29  C         34.4060  103.7070   69.6130 C.2    65  ASN65       0.2621
     30  O         35.0970  104.3940   70.3690 O.2    65  ASN65      -0.2715
     31  CB        35.8060  101.6660   69.3020 C.3    65  ASN65       0.1195
     32  CG        34.9300  100.7760   70.1050 C.2    65  ASN65       0.2630
     33  OD1       34.4350  101.1620   71.1730 O.2    65  ASN65      -0.2716
     34  ND2       34.7260   99.5700   69.6060 N.am   65  ASN65      -0.0877
     35  N         33.0750  103.7540   69.5580 N.am   66  HIS66      -0.1973
     36  CA        32.2460  104.5560   70.3810 C.3    66  HIS66       0.1656
     37  C         32.4060  104.2520   71.8840 C.2    66  HIS66       0.2291
     38  O         32.2660  105.1420   72.7030 O.2    66  HIS66      -0.2864
     39  CB        30.7360  104.3110   69.9590 C.3    66  HIS66       0.0771
     40  CG        30.3170  102.8750   70.0440 C.ar   66  HIS66       0.0820
     41  ND1       30.6910  101.9230   69.1120 N.ar   66  HIS66      -0.2267
     42  CD2       29.5860  102.2140   70.9720 C.ar   66  HIS66       0.1154
     43  CE1       30.2140  100.7450   69.4750 C.ar   66  HIS66       0.1986
     44  NE2       29.5540  100.8880   70.6060 N.ar   66  HIS66      -0.2212
     45  N         21.2070  105.7030   66.6130 N.3    94  CYS94      -0.1221
     46  CA        22.6270  106.0250   66.5270 C.3    94  CYS94       0.1808
     47  C         23.1570  105.5560   65.1930 C.2    94  CYS94       0.2601
     48  O         23.8370  104.5380   65.1310 O.2    94  CYS94      -0.2717
     49  CB        23.3890  105.4010   67.6960 C.3    94  CYS94       0.0970
     50  SG        22.8450  103.8430   68.3440 S.3    94  CYS94      -0.0800
     51  N         22.8950  106.3360   64.1290 N.am   95  ASP95      -0.1959
     52  CA        23.3490  105.9600   62.7760 C.3    95  ASP95       0.1840
     53  C         24.6500  106.6370   62.3140 C.2    95  ASP95       0.2622
     54  O         25.0470  106.4320   61.1480 O.2    95  ASP95      -0.2715
     55  CB        22.2300  105.9540   61.6910 C.3    95  ASP95       0.1450
     56  CG        21.3880  107.2070   61.6540 C.2    95  ASP95       0.3671
     57  OD1       21.8890  108.2120   62.1780 O.co2  95  ASP95      -0.2456
     58  OD2       20.1920  107.1760   61.1050 O.co2  95  ASP95      -0.2456
     59  N         25.3000  107.3790   63.2360 N.am   96  ASN96      -0.1958
     60  CA        26.6850  107.8430   63.0630 C.3    96  ASN96       0.1819
     61  C         27.5390  107.7590   64.3160 C.2    96  ASN96       0.2621
     62  O         27.0270  107.4320   65.3540 O.2    96  ASN96      -0.2715
     63  CB        26.7040  109.2290   62.5080 C.3    96  ASN96       0.1195
     64  CG        26.0340  110.2560   63.4030 C.2    96  ASN96       0.2630
     65  OD1       26.2100  110.2720   64.6320 O.2    96  ASN96      -0.2716
     66  ND2       25.3120  111.1970   62.7640 N.am   96  ASN96      -0.0877
     67  N         28.8390  108.0770   64.2400 N.am   97  LEU97      -0.1977
     68  CA        29.6860  107.8560   65.3700 C.3    97  LEU97       0.1596
     69  C         29.2970  108.7550   66.5860 C.2    97  LEU97       0.2287
     70  O         29.2400  108.3160   67.7270 O.2    97  LEU97      -0.2864
     71  CB        31.1700  108.0780   64.9300 C.3    97  LEU97       0.0297
     72  CG        32.1120  107.8760   66.0780 C.3    97  LEU97       0.0022
     73  CD1       31.8490  106.4520   66.7340 C.3    97  LEU97       0.0001
     74  CD2       33.6420  108.1470   65.5460 C.3    97  LEU97       0.0001
     75  N         26.1530  107.3850   68.3690 N.3   100  THR100     -0.1218
     76  CA        26.5000  106.1540   69.0710 C.3   100  THR100      0.1862
     77  C         27.2990  106.3890   70.3780 C.2   100  THR100      0.2287
     78  O         27.0740  105.6950   71.3950 O.2   100  THR100     -0.2866
     79  CB        27.3420  105.2140   68.1460 C.3   100  THR100      0.1770
     80  OG1       26.6060  104.9930   66.9320 O.3   100  THR100     -0.2211
     81  CG2       27.7020  103.9110   68.8040 C.3   100  THR100      0.0375
@<TRIPOS>BOND
     1     6     7    1
     2     6     5    1
     3     7     1    1
     4     5     2    1
     5    17    18   ar
     6    17    15   ar
     7     1     2    1
     8    18    16   ar
     9     2     3    1
    10    15    13   ar
    11     3     4    2
    12     3     8   am
    13    58    56   ar
    14    54    53    2
    15    16    14   ar
    16    13    14   ar
    17    13    12    1
    18     8     9    1
    19    56    55    1
    20    56    57   ar
    21    55    52    1
    22    53    52    1
    23    53    59   am
    24    12     9    1
    25    63    60    1
    26    63    64    1
    27     9    10    1
    28    66    64   am
    29    52    51    1
    30    60    59    1
    31    60    61    1
    32    64    65    2
    33    10    19   am
    34    10    11    2
    35    51    47   am
    36    19    20    1
    37    67    61   am
    38    67    68    1
    39    61    62    2
    40    25    24    1
    41    24    23    1
    42    24    26    1
    43    71    68    1
    44    71    72    1
    45    48    47    2
    46    47    46    1
    47    68    69    1
    48    23    20    1
    49    74    72    1
    50    20    21    1
    51    22    21    2
    52    72    73    1
    53    21    27   am
    54    46    45    1
    55    46    49    1
    56    69    70    2
    57    80    79    1
    58    27    28    1
    59    49    50    1
    60    79    81    1
    61    79    76    1
    62    75    76    1
    63    28    31    1
    64    28    29    1
    65    76    77    1
    66    41    43   ar
    67    41    40   ar
    68    31    32    1
    69    43    44   ar
    70    35    29   am
    71    35    36    1
    72    34    32   am
    73    29    30    2
    74    39    40    1
    75    39    36    1
    76    40    42   ar
    77    32    33    2
    78    77    78    2
    79    36    37    1
    80    44    42   ar
    81    37    38    2
