@<TRIPOS>MOLECULE
tmp/3qjgA00.pdb
 161 152 0 0 0
SMALL
GASTEIGER

@<TRIPOS>ATOM
      1  N         26.9580  119.7120   65.8060 N.3     9  CYS9       -0.1221
      2  CA        25.9140  119.3120   64.8900 C.3     9  CYS9        0.1808
      3  C         25.7920  120.3290   63.7210 C.2     9  CYS9        0.2602
      4  O         26.5030  121.3490   63.6820 O.2     9  CYS9       -0.2717
      5  CB        24.6270  119.1780   65.6530 C.3     9  CYS9        0.0970
      6  SG        24.5700  117.8990   66.9370 S.3     9  CYS9       -0.0800
      7  N         24.8620  120.0610   62.8130 N.am   10  GLY10      -0.1942
      8  CA        24.6210  120.8630   61.6040 C.3    10  GLY10       0.2014
      9  C         23.8860  122.1940   61.7570 C.2    10  GLY10       0.2640
     10  O         22.6710  122.3430   61.4480 O.2    10  GLY10      -0.2714
     11  N         24.6460  123.1790   62.1880 N.am   11  SER11      -0.1935
     12  CA        24.1340  124.5210   62.5120 C.3    11  SER11       0.2055
     13  C         25.2650  125.4910   62.2800 C.2    11  SER11       0.2642
     14  O         26.4380  125.1290   62.4530 O.2    11  SER11      -0.2714
     15  CB        23.7210  124.5530   64.0120 C.3    11  SER11       0.2130
     16  OG        23.3250  125.8290   64.4760 O.3    11  SER11      -0.2179
     17  N         24.9320  126.7430   61.9760 N.am   12  VAL12      -0.1977
     18  CA        25.9550  127.7270   61.7260 C.3    12  VAL12       0.1596
     19  C         26.7280  128.0810   63.0130 C.2    12  VAL12       0.2287
     20  O         27.8690  128.4680   62.9360 O.2    12  VAL12      -0.2864
     21  CB        25.4270  129.0140   61.0260 C.3    12  VAL12       0.0276
     22  CG1       26.5530  130.0800   60.9740 C.3    12  VAL12       0.0022
     23  CG2       24.9840  128.6880   59.6240 C.3    12  VAL12       0.0022
     24  N         28.7110  115.6240   63.6200 N.3    36  SER36      -0.1202
     25  CA        27.7120  114.7910   63.0140 C.3    36  SER36       0.2020
     26  C         27.9980  114.7100   61.5210 C.2    36  SER36       0.2619
     27  O         28.8970  115.4120   61.0130 O.2    36  SER36      -0.2717
     28  CB        26.3020  115.4130   63.1840 C.3    36  SER36       0.2103
     29  OG        26.1930  116.6780   62.5150 O.3    36  SER36      -0.2182
     30  N         27.2050  113.9220   60.7880 N.am   37  THR37      -0.1938
     31  CA        27.5590  113.7060   59.3880 C.3    37  THR37       0.2028
     32  C         27.2710  115.0250   58.6680 C.2    37  THR37       0.2642
     33  O         28.1570  115.6060   58.0340 O.2    37  THR37      -0.2714
     34  CB        26.8920  112.4350   58.7940 C.3    37  THR37       0.1808
     35  OG1       27.4210  111.2780   59.4930 O.3    37  THR37      -0.2208
     36  CG2       27.1550  112.3320   57.2310 C.3    37  THR37       0.0379
     37  N         26.0460  115.5050   58.8250 N.am   38  ASN38      -0.1957
     38  CA        25.6510  116.7780   58.2990 C.3    38  ASN38       0.1819
     39  C         26.4110  117.9490   58.8700 C.2    38  ASN38       0.2621
     40  O         26.4300  118.9880   58.2350 O.2    38  ASN38      -0.2715
     41  CB        24.1620  117.0280   58.5280 C.3    38  ASN38       0.1195
     42  CG        23.3090  115.9490   57.9250 C.2    38  ASN38       0.2630
     43  OD1       23.6320  115.4430   56.8790 O.2    38  ASN38      -0.2716
     44  ND2       22.1970  115.5960   58.5780 N.am   38  ASN38      -0.0877
     45  N         26.9660  117.7920   60.0750 N.am   39  GLY39      -0.1954
     46  CA        27.7100  118.8110   60.7240 C.3    39  GLY39       0.1869
     47  C         29.0310  119.0970   60.0600 C.2    39  GLY39       0.2309
     48  O         29.5160  120.2460   60.1260 O.2    39  GLY39      -0.2863
     49  N         30.0110  119.6760   57.1000 N.3    41  LYS41      -0.1231
     50  CA        30.0580  120.7380   56.0770 C.3    41  LYS41       0.1693
     51  C         30.1440  122.1330   56.6690 C.2    41  LYS41       0.2592
     52  O         30.4910  123.0520   55.9380 O.2    41  LYS41      -0.2718
     53  CB        28.8280  120.6690   55.1260 C.3    41  LYS41       0.0285
     54  CG        27.5270  120.9920   55.8160 C.3    41  LYS41       0.0035
     55  CD        26.2500  120.8270   54.9060 C.3    41  LYS41       0.0206
     56  CE        25.1390  120.2590   55.7890 C.3    41  LYS41       0.1093
     57  NZ        23.8550  120.5950   55.2300 N.3    41  LYS41      -0.1314
     58  N         29.8080  122.2940   57.9490 N.am   42  PHE42      -0.1976
     59  CA        29.8800  123.5780   58.6220 C.3    42  PHE42       0.1639
     60  C         31.2740  123.9160   59.1800 C.2    42  PHE42       0.2290
     61  O         31.5230  125.0990   59.5070 O.2    42  PHE42      -0.2864
     62  CB        28.8690  123.7060   59.7530 C.3    42  PHE42       0.0560
     63  CG        27.4090  123.6510   59.3150 C.ar   42  PHE42      -0.0200
     64  CD1       26.6530  124.7840   59.2620 C.ar   42  PHE42      -0.0042
     65  CD2       26.7880  122.4500   59.0570 C.ar   42  PHE42      -0.0042
     66  CE1       25.3110  124.7310   58.8860 C.ar   42  PHE42      -0.0003
     67  CE2       25.4680  122.4000   58.6800 C.ar   42  PHE42      -0.0003
     68  CZ        24.7340  123.5480   58.6000 C.ar   42  PHE42      -0.0000
     69  N         21.3840  120.2890   67.4560 N.3    82  THR82      -0.1203
     70  CA        20.2510  120.3720   66.5870 C.3    82  THR82       0.1994
     71  C         19.0940  119.6160   67.1290 C.2    82  THR82       0.2619
     72  O         19.2610  118.6350   67.9040 O.2    82  THR82      -0.2717
     73  CB        20.5350  119.7520   65.2020 C.3    82  THR82       0.1784
     74  OG1       21.0250  118.4060   65.3460 O.3    82  THR82      -0.2211
     75  CG2       21.5440  120.5960   64.4330 C.3    82  THR82       0.0376
     76  N         17.9150  120.0350   66.6790 N.am   83  SER83      -0.1937
     77  CA        16.7310  119.2800   66.9340 C.3    83  SER83       0.2055
     78  C         16.8120  117.8010   66.4840 C.2    83  SER83       0.2643
     79  O         16.3600  116.9030   67.2280 O.2    83  SER83      -0.2714
     80  CB        15.5680  119.9550   66.2390 C.3    83  SER83       0.2130
     81  OG        14.3870  119.4380   66.7480 O.3    83  SER83      -0.2179
     82  N         17.3880  117.5260   65.2930 N.am   84  ASN84      -0.1957
     83  CA        17.5250  116.1520   64.8170 C.3    84  ASN84       0.1819
     84  C         18.2990  115.2940   65.7340 C.2    84  ASN84       0.2621
     85  O         17.8660  114.1660   65.9930 O.2    84  ASN84      -0.2715
     86  CB        18.1910  116.1350   63.4130 C.3    84  ASN84       0.1195
     87  CG        18.6390  114.7870   62.9690 C.2    84  ASN84       0.2630
     88  OD1       17.8330  113.9800   62.5960 O.2    84  ASN84      -0.2716
     89  ND2       20.0110  114.5680   62.8800 N.am   84  ASN84      -0.0877
     90  N         19.5300  115.7450   66.1120 N.am   85  THR85      -0.1951
     91  CA        20.3170  114.9950   67.0190 C.3    85  THR85       0.1897
     92  C         19.5930  114.7610   68.3830 C.2    85  THR85       0.2313
     93  O         19.5690  113.6370   68.8720 O.2    85  THR85      -0.2863
     94  CB        21.7040  115.6060   67.1690 C.3    85  THR85       0.1794
     95  OG1       22.4540  115.3970   65.9580 O.3    85  THR85      -0.2208
     96  CG2       22.4530  115.0320   68.3550 C.3    85  THR85       0.0378
     97  N         16.9050  112.1110   67.7070 N.3    88  LYS88      -0.1245
     98  CA        17.5290  110.8190   67.4480 C.3    88  LYS88       0.1561
     99  C         18.0170  110.2190   68.7960 C.2    88  LYS88       0.2260
    100  O         17.7770  109.0280   69.0790 O.2    88  LYS88      -0.2867
    101  CB        18.6790  110.9140   66.4510 C.3    88  LYS88       0.0271
    102  CG        18.3070  111.1690   64.9710 C.3    88  LYS88       0.0035
    103  CD        19.0510  110.3220   64.0310 C.3    88  LYS88       0.0206
    104  CE        19.0220  110.6360   62.5590 C.3    88  LYS88       0.1093
    105  NZ        20.3940  110.2610   61.9460 N.3    88  LYS88      -0.1314
    106  N         25.3000  107.3790   63.2360 N.3    96  ASN96      -0.1240
    107  CA        26.6850  107.8430   63.0630 C.3    96  ASN96       0.1653
    108  C         27.5390  107.7590   64.3160 C.2    96  ASN96       0.2266
    109  O         27.0270  107.4320   65.3540 O.2    96  ASN96      -0.2867
    110  CB        26.7040  109.2290   62.5080 C.3    96  ASN96       0.1155
    111  CG        26.0340  110.2560   63.4030 C.2    96  ASN96       0.2627
    112  OD1       26.2100  110.2720   64.6320 O.2    96  ASN96      -0.2716
    113  ND2       25.3120  111.1970   62.7640 N.am   96  ASN96      -0.0877
    114  N         26.4240  109.9830   67.4230 N.3    99  LEU99      -0.1245
    115  CA        25.1950  109.5800   68.0650 C.3    99  LEU99       0.1561
    116  C         25.3430  108.3020   68.8830 C.2    99  LEU99       0.2260
    117  O         24.6840  108.1350   69.9290 O.2    99  LEU99      -0.2867
    118  CB        24.0910  109.3700   67.0500 C.3    99  LEU99       0.0270
    119  CG        23.5260  110.5360   66.2470 C.3    99  LEU99       0.0019
    120  CD1       22.5350  110.0270   65.1750 C.3    99  LEU99       0.0001
    121  CD2       22.8390  111.4810   67.1810 C.3    99  LEU99       0.0001
    122  N         20.0490  124.2950   70.0920 N.3   114  ASN114     -0.1225
    123  CA        20.3260  125.4070   69.1890 C.3   114  ASN114      0.1785
    124  C         19.4930  125.2640   67.9370 C.2   114  ASN114      0.2597
    125  O         19.7410  124.3930   67.1150 O.2   114  ASN114     -0.2718
    126  CB        21.8160  125.4330   68.8710 C.3   114  ASN114      0.1169
    127  CG        22.2660  126.7670   68.2490 C.2   114  ASN114      0.2627
    128  OD1       22.8700  127.5990   68.9310 O.2   114  ASN114     -0.2716
    129  ND2       21.9870  126.9580   66.9360 N.am  114  ASN114     -0.0877
    130  N         18.4330  126.0540   67.8140 N.am  115  MET115     -0.1965
    131  CA        17.5110  125.8110   66.7360 C.3   115  MET115      0.1736
    132  C         16.4370  126.8620   66.6810 C.2   115  MET115      0.2616
    133  O         16.1750  127.5410   67.6690 O.2   115  MET115     -0.2715
    134  CB        16.8920  124.4440   66.9310 C.3   115  MET115      0.0427
    135  CG        16.0150  124.3530   68.1920 C.3   115  MET115      0.0599
    136  SD        15.4060  122.6910   68.5220 S.3   115  MET115     -0.1393
    137  CE        16.8560  121.9640   69.1840 C.3   115  MET115      0.0692
    138  N         15.8250  127.0210   65.5170 N.am  116  ASN116     -0.1972
    139  CA        14.6830  127.9190   65.3820 C.3   116  ASN116      0.1688
    140  C         13.6380  127.6000   66.4290 C.2   116  ASN116      0.2292
    141  O         13.3970  126.4400   66.7330 O.2   116  ASN116     -0.2864
    142  CB        14.0470  127.7770   64.0040 C.3   116  ASN116      0.1181
    143  CG        13.0070  128.8020   63.7570 C.2   116  ASN116      0.2629
    144  OD1       11.8190  128.5330   63.9240 O.2   116  ASN116     -0.2716
    145  ND2       13.4320  130.0050   63.3860 N.am  116  ASN116     -0.0877
    146  N         11.1310  124.7700   65.8940 N.3   119  MET119     -0.1245
    147  CA        11.5930  123.4280   66.0630 C.3   119  MET119      0.1570
    148  C         11.6750  123.1060   67.5470 C.2   119  MET119      0.2261
    149  O         11.3920  121.9890   67.9490 O.2   119  MET119     -0.2867
    150  CB        12.9290  123.2480   65.3710 C.3   119  MET119      0.0387
    151  CG        12.9550  123.6790   63.8840 C.3   119  MET119      0.0595
    152  SD        14.6720  123.8730   63.3490 S.3   119  MET119     -0.1393
    153  CE        14.9860  122.2210   62.7390 C.3   119  MET119      0.0692
    154  N         15.1430  131.9930   68.2040 N.3   158  ASN158     -0.1240
    155  CA        16.0100  130.8390   68.3140 C.3   158  ASN158      0.1653
    156  C         16.1830  130.5350   69.7730 C.2   158  ASN158      0.2266
    157  O         16.1230  131.4660   70.6030 O.2   158  ASN158     -0.2867
    158  CB        17.3980  131.2070   67.7930 C.3   158  ASN158      0.1155
    159  CG        17.4820  131.2390   66.2850 C.2   158  ASN158      0.2627
    160  OD1       17.7010  132.2960   65.7060 O.2   158  ASN158     -0.2716
    161  ND2       17.3120  130.0680   65.6350 N.am  158  ASN158     -0.0877
@<TRIPOS>BOND
     1    55    56    1
     2    55    54    1
     3    53    54    1
     4    53    50    1
     5    57    56    1
     6    52    51    2
     7    50    51    1
     8    50    49    1
     9    51    58   am
    10    43    42    2
    11    36    34    1
    12    42    41    1
    13    42    44   am
    14    58    59    1
    15    33    32    2
    16    40    39    2
    17    38    41    1
    18    38    37    1
    19    38    39    1
    20    68    67   ar
    21    68    66   ar
    22    59    60    1
    23    59    62    1
    24    32    37   am
    25    32    31    1
    26    67    65   ar
    27    34    31    1
    28    34    35    1
    29    39    45   am
    30    66    64   ar
    31    65    63   ar
    32    60    61    2
    33    64    63   ar
    34    63    62    1
    35    31    30    1
    36    23    21    1
    37    47    48    2
    38    47    46    1
    39    45    46    1
    40    30    26   am
    41    22    21    1
    42    27    26    2
    43    21    18    1
    44    10     9    2
    45    26    25    1
    46     8     9    1
    47     8     7    1
    48    18    17    1
    49    18    19    1
    50     9    11   am
    51   105   104    1
    52    17    13   am
    53    11    12    1
    54    13    14    2
    55    13    12    1
    56   110   107    1
    57   110   111    1
    58    12    15    1
    59    29    28    1
    60   104   103    1
    61    88    87    2
    62   153   152    1
    63   113   111   am
    64     7     3   am
    65    89    87   am
    66    20    19    2
    67    87    86    1
    68    25    28    1
    69    25    24    1
    70   107   106    1
    71   107   108    1
    72   152   151    1
    73   145   143   am
    74   111   112    2
    75    86    83    1
    76     4     3    2
    77     3     2    1
    78   143   144    2
    79   143   142    1
    80   151   150    1
    81   142   139    1
    82    15    16    1
    83   103   102    1
    84   108   109    2
    85    75    73    1
    86    83    82    1
    87    83    84    1
    88     2     5    1
    89     2     1    1
    90   102   101    1
    91   120   119    1
    92    73    74    1
    93    73    70    1
    94    82    78   am
    95   150   147    1
    96   139   138    1
    97   139   140    1
    98   138   132   am
    99   161   159   am
   100     5     6    1
   101   160   159    2
   102    84    85    2
   103    84    90   am
   104   146   147    1
   105    95    94    1
   106   147   148    1
   107    90    91    1
   108    80    81    1
   109    80    77    1
   110   119   118    1
   111   119   121    1
   112   159   158    1
   113   140   141    2
   114   101    98    1
   115    78    77    1
   116    78    79    2
   117    70    71    1
   118    70    69    1
   119    76    77    1
   120    76    71   am
   121   132   131    1
   122   132   133    2
   123   131   134    1
   124   131   130    1
   125   134   135    1
   126   129   127   am
   127    91    94    1
   128    91    92    1
   129   118   115    1
   130   125   124    2
   131    71    72    2
   132    94    96    1
   133   114   115    1
   134    98    97    1
   135    98    99    1
   136   148   149    2
   137   158   155    1
   138   130   124   am
   139   124   123    1
   140   115   116    1
   141   135   136    1
   142   154   155    1
   143   127   126    1
   144   127   128    2
   145   155   156    1
   146    92    93    2
   147   136   137    1
   148    99   100    2
   149   126   123    1
   150   116   117    2
   151   123   122    1
   152   156   157    2
