@<TRIPOS>MOLECULE
tmp/3qjmB00.pdb
 127 123 0 0 0
SMALL
GASTEIGER

@<TRIPOS>ATOM
      1  N         18.7360   37.4230  -69.0260 N.3    15  LYS15      -0.1245
      2  CA        18.2960   37.8790  -70.3360 C.3    15  LYS15       0.1561
      3  C         18.4060   39.4010  -70.4980 C.2    15  LYS15       0.2260
      4  O         18.3400   40.1470  -69.5260 O.2    15  LYS15      -0.2867
      5  CB        16.8570   37.4330  -70.5890 C.3    15  LYS15       0.0271
      6  CG        15.7940   38.2970  -69.9320 C.3    15  LYS15       0.0035
      7  CD        14.4050   37.8340  -70.3340 C.3    15  LYS15       0.0206
      8  CE        13.3210   38.8450  -69.9750 C.3    15  LYS15       0.1093
      9  NZ        13.4800   40.1470  -70.6940 N.3    15  LYS15      -0.1314
     10  N         12.9790   37.6200  -74.6600 N.3    20  GLY20      -0.1210
     11  CA        12.3390   36.7140  -73.7240 C.3    20  GLY20       0.1956
     12  C         13.3760   35.7390  -73.2010 C.2    20  GLY20       0.2612
     13  O         14.4970   35.6800  -73.7160 O.2    20  GLY20      -0.2717
     14  N         13.0180   34.9820  -72.1690 N.am   21  PHE21      -0.1962
     15  CA        13.8820   33.9140  -71.6850 C.3    21  PHE21       0.1771
     16  C         13.9640   32.7930  -72.6880 C.2    21  PHE21       0.2620
     17  O         14.8470   31.9410  -72.6000 O.2    21  PHE21      -0.2715
     18  CB        13.3690   33.3600  -70.3610 C.3    21  PHE21       0.0574
     19  CG        13.5390   34.2940  -69.2210 C.ar   21  PHE21      -0.0200
     20  CD1       12.4510   34.9600  -68.6910 C.ar   21  PHE21      -0.0042
     21  CD2       14.7910   34.5150  -68.6800 C.ar   21  PHE21      -0.0042
     22  CE1       12.6010   35.8190  -67.6260 C.ar   21  PHE21      -0.0003
     23  CE2       14.9500   35.3730  -67.6100 C.ar   21  PHE21      -0.0003
     24  CZ        13.8470   36.0220  -67.0770 C.ar   21  PHE21      -0.0000
     25  N         13.0250   32.7860  -73.6280 N.am   22  GLY22      -0.1940
     26  CA        13.0530   31.8430  -74.7260 C.3    22  GLY22       0.2014
     27  C         12.4270   30.4870  -74.4550 C.2    22  GLY22       0.2639
     28  O         13.0270   29.4590  -74.7720 O.2    22  GLY22      -0.2714
     29  N         11.2300   30.4760  -73.8740 N.am   23  PHE23      -0.1959
     30  CA        10.4800   29.2320  -73.7020 C.3    23  PHE23       0.1771
     31  C          8.9800   29.4570  -73.6340 C.2    23  PHE23       0.2619
     32  O          8.5230   30.5650  -73.3250 O.2    23  PHE23      -0.2715
     33  CB        10.9630   28.4050  -72.4760 C.3    23  PHE23       0.0574
     34  CG        10.8570   29.1150  -71.1360 C.ar   23  PHE23      -0.0200
     35  CD1        9.6640   29.1390  -70.4300 C.ar   23  PHE23      -0.0042
     36  CD2       11.9810   29.6650  -70.5360 C.ar   23  PHE23      -0.0042
     37  CE1        9.5740   29.7550  -69.1700 C.ar   23  PHE23      -0.0003
     38  CE2       11.9080   30.2740  -69.2830 C.ar   23  PHE23      -0.0003
     39  CZ        10.6970   30.3290  -68.6050 C.ar   23  PHE23      -0.0000
     40  N          8.2210   28.4070  -73.9470 N.am   24  VAL24      -0.1963
     41  CA         6.7820   28.3960  -73.7020 C.3    24  VAL24       0.1727
     42  C          6.4500   27.5520  -72.4610 C.2    24  VAL24       0.2616
     43  O          6.7770   26.3620  -72.3840 O.2    24  VAL24      -0.2715
     44  CB         5.9890   27.8980  -74.9280 C.3    24  VAL24       0.0290
     45  CG1        4.4990   27.8660  -74.6170 C.3    24  VAL24       0.0023
     46  CG2        6.2510   28.8060  -76.1240 C.3    24  VAL24       0.0023
     47  N          5.8330   28.1950  -71.4740 N.am   25  LEU25      -0.1963
     48  CA         5.4060   27.5260  -70.2620 C.3    25  LEU25       0.1728
     49  C          4.0220   26.9760  -70.5530 C.2    25  LEU25       0.2616
     50  O          3.1810   27.6790  -71.1040 O.2    25  LEU25      -0.2715
     51  CB         5.2870   28.5420  -69.1180 C.3    25  LEU25       0.0311
     52  CG         5.8550   28.3160  -67.7150 C.3    25  LEU25       0.0022
     53  CD1        4.9000   28.8830  -66.6790 C.3    25  LEU25       0.0001
     54  CD2        6.1440   26.8600  -67.4270 C.3    25  LEU25       0.0001
     55  N          3.7700   25.7350  -70.1680 N.am   26  ARG26      -0.1963
     56  CA         2.4440   25.1550  -70.3150 C.3    26  ARG26       0.1729
     57  C          1.9960   24.5600  -68.9960 C.2    26  ARG26       0.2617
     58  O          2.8240   24.0210  -68.2640 O.2    26  ARG26      -0.2715
     59  CB         2.4640   24.0660  -71.3790 C.3    26  ARG26       0.0348
     60  CG         1.1330   23.3730  -71.5830 C.3    26  ARG26       0.0492
     61  CD         1.1240   22.6090  -72.8870 C.3    26  ARG26       0.2205
     62  NE        -0.2300   22.2120  -73.2630 N.pl3  26  ARG26      -0.0865
     63  CZ        -0.5510   21.6600  -74.4250 C.cat  26  ARG26       0.5346
     64  NH1        0.3950   21.4480  -75.3360 N.pl3  26  ARG26       0.1354
     65  NH2       -1.8170   21.3290  -74.6790 N.pl3  26  ARG26       0.1354
     66  N          0.6950   24.6360  -68.6980 N.am   27  GLY27      -0.1940
     67  CA         0.1670   24.0160  -67.4860 C.3    27  GLY27       0.2014
     68  C         -1.2120   24.5290  -67.1240 C.2    27  GLY27       0.2638
     69  O         -1.6430   25.5500  -67.6440 O.2    27  GLY27      -0.2714
     70  N         -1.9090   23.8240  -66.2370 N.am   28  ALA28      -0.1977
     71  CA        -3.2700   24.1980  -65.8740 C.3    28  ALA28       0.1597
     72  C         -3.2820   25.5770  -65.2430 C.2    28  ALA28       0.2287
     73  O         -2.4180   25.8800  -64.4130 O.2    28  ALA28      -0.2864
     74  CB        -3.8740   23.1630  -64.9030 C.3    28  ALA28       0.0319
     75  N          6.8060   23.6850  -72.6170 N.3    43  GLU43      -0.1245
     76  CA         6.1620   23.1400  -73.8050 C.3    43  GLU43       0.1567
     77  C          7.1050   23.2310  -75.0030 C.2    43  GLU43       0.2260
     78  O          7.1260   22.3580  -75.8810 O.2    43  GLU43      -0.2867
     79  CB         4.8660   23.9080  -74.0860 C.3    43  GLU43       0.0388
     80  CG         4.2950   23.6980  -75.4690 C.3    43  GLU43       0.1160
     81  CD         3.8880   22.2530  -75.7330 C.2    43  GLU43       0.3649
     82  OE1        3.8000   21.8810  -76.9230 O.co2  43  GLU43      -0.2457
     83  OE2        3.6590   21.4910  -74.7620 O.co2  43  GLU43      -0.2457
     84  N         13.0530   27.7490  -77.2800 N.3    46  ASP46      -0.1239
     85  CA        13.6790   28.4570  -78.4000 C.3    46  ASP46       0.1674
     86  C         15.1070   28.0370  -78.7290 C.2    46  ASP46       0.2266
     87  O         16.0120   28.1700  -77.8990 O.2    46  ASP46      -0.2867
     88  CB        13.7200   29.9480  -78.0660 C.3    46  ASP46       0.1410
     89  CG        12.8190   30.7700  -78.9440 C.2    46  ASP46       0.3668
     90  OD1       11.6470   30.9640  -78.5450 O.co2  46  ASP46      -0.2456
     91  OD2       13.2960   31.2330  -80.0120 O.co2  46  ASP46      -0.2456
     92  N         -1.2510   28.5280  -63.5460 N.3    75  HIS75      -0.1241
     93  CA        -0.4980   29.0780  -64.6690 C.3    75  HIS75       0.1621
     94  C         -0.2930   30.5820  -64.5960 C.2    75  HIS75       0.2264
     95  O          0.8260   31.0840  -64.7690 O.2    75  HIS75      -0.2867
     96  CB        -1.1670   28.7530  -66.0000 C.3    75  HIS75       0.0745
     97  CG        -0.3560   29.1840  -67.1880 C.ar   75  HIS75       0.0817
     98  ND1        0.6180   28.3890  -67.7480 N.ar   75  HIS75      -0.2268
     99  CD2       -0.3600   30.3360  -67.8960 C.ar   75  HIS75       0.1154
    100  CE1        1.1680   29.0260  -68.7690 C.ar   75  HIS75       0.1986
    101  NE2        0.5920   30.2060  -68.8800 N.ar   75  HIS75      -0.2212
    102  N          3.2620   32.4750  -64.1990 N.3    79  VAL79      -0.1245
    103  CA         3.6610   33.4380  -65.2140 C.3    79  VAL79       0.1561
    104  C          3.9820   34.7770  -64.5840 C.2    79  VAL79       0.2260
    105  O          4.9300   35.4450  -64.9900 O.2    79  VAL79      -0.2867
    106  CB         2.5510   33.6690  -66.2390 C.3    79  VAL79       0.0252
    107  CG1        2.7470   35.0050  -66.9200 C.3    79  VAL79       0.0019
    108  CG2        2.5060   32.5180  -67.2550 C.3    79  VAL79       0.0019
    109  N          7.3090   34.6390  -62.7380 N.3    82  ILE82      -0.1231
    110  CA         8.4110   34.7350  -63.6940 C.3    82  ILE82       0.1692
    111  C          8.5860   36.1700  -64.1980 C.2    82  ILE82       0.2591
    112  O          9.6980   36.6910  -64.2490 O.2    82  ILE82      -0.2718
    113  CB         8.2630   33.7260  -64.8570 C.3    82  ILE82       0.0266
    114  CG1        8.3820   32.3020  -64.2960 C.3    82  ILE82       0.0019
    115  CG2        9.3460   33.9630  -65.8920 C.3    82  ILE82       0.0020
    116  CD1        8.0370   31.2040  -65.2480 C.3    82  ILE82       0.0001
    117  N          7.4780   36.8200  -64.5180 N.am   83  ARG83      -0.1980
    118  CA         7.5270   38.2000  -64.9700 C.3    83  ARG83       0.1597
    119  C          8.0310   39.1500  -63.8890 C.2    83  ARG83       0.2287
    120  O          8.6930   40.1510  -64.1910 O.2    83  ARG83      -0.2864
    121  CB         6.1600   38.6290  -65.5000 C.3    83  ARG83       0.0334
    122  CG         5.8270   37.9290  -66.8060 C.3    83  ARG83       0.0492
    123  CD         4.4530   38.2690  -67.3170 C.3    83  ARG83       0.2205
    124  NE         4.2980   37.8770  -68.7180 N.pl3  83  ARG83      -0.0865
    125  CZ         3.1220   37.7700  -69.3290 C.cat  83  ARG83       0.5346
    126  NH1        2.0010   38.0100  -68.6530 N.pl3  83  ARG83       0.1354
    127  NH2        3.0600   37.4010  -70.6050 N.pl3  83  ARG83       0.1354
@<TRIPOS>BOND
     1    91    89   ar
     2    89    90   ar
     3    89    88    1
     4    86    85    1
     5    86    87    2
     6    85    88    1
     7    85    84    1
     8    82    81   ar
     9    46    44    1
    10    78    77    2
    11    81    80    1
    12    81    83   ar
    13    80    79    1
    14    64    63    1
    15    77    76    1
    16    44    45    1
    17    44    41    1
    18    28    27    2
    19    26    27    1
    20    26    25    1
    21    65    63    1
    22    10    11    1
    23    27    29   am
    24    63    62    2
    25    79    76    1
    26    40    41    1
    27    40    31   am
    28    29    30    1
    29    76    75    1
    30    11    12    1
    31    13    12    2
    32    30    31    1
    33    30    33    1
    34    41    42    1
    35    31    32    2
    36    25    16   am
    37    62    61    1
    38    12    14   am
    39    61    60    1
    40    16    17    2
    41    16    15    1
    42    33    34    1
    43    42    43    2
    44    42    47   am
    45    14    15    1
    46    15    18    1
    47    60    59    1
    48    47    48    1
    49    59    56    1
    50    34    36   ar
    51    34    35   ar
    52    50    49    2
    53     9     8    1
    54   127   125    1
    55     5     2    1
    56     5     6    1
    57    49    48    1
    58    49    55   am
    59    36    38   ar
    60     3     2    1
    61     3     4    2
    62    35    37   ar
    63    18    19    1
    64     2     1    1
    65     7     8    1
    66     7     6    1
    67    56    55    1
    68    56    57    1
    69    48    51    1
    70   125   124    2
    71   125   126    1
    72    38    39   ar
    73    19    20   ar
    74    19    21   ar
    75    37    39   ar
    76    51    52    1
    77    57    66   am
    78    57    58    2
    79   101   100   ar
    80   101    99   ar
    81   100    98   ar
    82   124   123    1
    83    66    67    1
    84    20    22   ar
    85    21    23   ar
    86    99    97   ar
    87    98    97   ar
    88    52    54    1
    89    52    53    1
    90    69    68    2
    91    22    24   ar
    92    23    24   ar
    93    67    68    1
    94   123   122    1
    95   108   106    1
    96    97    96    1
    97    68    70   am
    98   107   106    1
    99   122   121    1
   100   106   103    1
   101    70    71    1
   102    96    93    1
   103   115   113    1
   104    71    72    1
   105    71    74    1
   106   121   118    1
   107   116   114    1
   108    72    73    2
   109   103   104    1
   110   103   102    1
   111   105   104    2
   112   118   117    1
   113   118   119    1
   114   113   114    1
   115   113   110    1
   116    95    94    2
   117    93    94    1
   118    93    92    1
   119   117   111   am
   120   112   111    2
   121   111   110    1
   122   120   119    2
   123   110   109    1
