@<TRIPOS>MOLECULE
tmp/3qjxA00.pdb
 101 97 0 0 0
SMALL
GASTEIGER

@<TRIPOS>ATOM
      1  N        -66.9550   24.8920  -13.8160 N.3   117  GLU117     -0.1245
      2  CA       -66.4240   23.5990  -14.3450 C.3   117  GLU117      0.1567
      3  C        -67.5780   22.6850  -14.6280 C.2   117  GLU117      0.2260
      4  O        -68.5490   22.5540  -13.8490 O.2   117  GLU117     -0.2867
      5  CB       -65.5000   22.9320  -13.2850 C.3   117  GLU117      0.0388
      6  CG       -64.8180   21.7000  -13.8270 C.3   117  GLU117      0.1160
      7  CD       -63.9830   20.9350  -12.7930 C.2   117  GLU117      0.3649
      8  OE1      -64.3100   21.1080  -11.5790 O.co2 117  GLU117     -0.2457
      9  OE2      -63.1280   20.1700  -13.2150 O.co2 117  GLU117     -0.2457
     10  N        -71.7670   20.2610   -7.3420 N.3   256  MET256     -0.1301
     11  CA       -70.4200   19.5170   -7.5670 C.3   256  MET256      0.1256
     12  C        -69.7300   19.3260   -6.2730 C.3   256  MET256      0.2010
     13  O        -68.5230   18.9390   -6.3720 O.3   256  MET256     -0.2188
     14  CB       -69.5130   20.2660   -8.5860 C.3   256  MET256      0.0333
     15  CG       -70.2430   20.4250   -9.9560 C.3   256  MET256      0.0592
     16  SD       -70.7490   18.8040  -10.5690 S.3   256  MET256     -0.1393
     17  CE       -69.2810   17.6390  -10.3580 C.3   256  MET256      0.0692
     18  N        -67.8220   20.6960   -3.9930 N.3   258  ALA258     -0.1231
     19  CA       -67.0880   21.9390   -3.7390 C.3   258  ALA258      0.1694
     20  C        -66.2170   22.1570   -4.9520 C.2   258  ALA258      0.2592
     21  O        -66.0840   21.3180   -5.8480 O.2   258  ALA258     -0.2718
     22  CB       -66.2570   21.8310   -2.4170 C.3   258  ALA258      0.0304
     23  N        -65.6000   23.3610   -5.0320 N.am  259  MET259     -0.1965
     24  CA       -64.9300   23.7000   -6.2690 C.3   259  MET259      0.1736
     25  C        -63.7130   24.5800   -6.0100 C.2   259  MET259      0.2616
     26  O        -63.8070   25.6130   -5.2820 O.2   259  MET259     -0.2715
     27  CB       -65.9480   24.4640   -7.1530 C.3   259  MET259      0.0427
     28  CG       -65.2870   24.9230   -8.5120 C.3   259  MET259      0.0599
     29  SD       -64.8720   23.4540   -9.5040 S.3   259  MET259     -0.1393
     30  CE       -63.4860   24.1420  -10.4260 C.3   259  MET259      0.0692
     31  N        -62.5930   24.2520   -6.6540 N.am  260  GLU260     -0.1977
     32  CA       -61.2710   24.8550   -6.3510 C.3   260  GLU260      0.1602
     33  C        -61.0090   26.1750   -7.0950 C.2   260  GLU260      0.2287
     34  O        -59.8530   26.4610   -7.4100 O.2   260  GLU260     -0.2864
     35  CB       -60.2170   23.8220   -6.7390 C.3   260  GLU260      0.0415
     36  CG       -60.0460   23.5560   -8.2860 C.3   260  GLU260      0.1163
     37  CD       -60.8620   22.3750   -8.8150 C.2   260  GLU260      0.3649
     38  OE1      -61.8920   22.0200   -8.2130 O.co2 260  GLU260     -0.2457
     39  OE2      -60.4660   21.8620   -9.8850 O.co2 260  GLU260     -0.2457
     40  N        -59.1300   18.5920   -0.1530 N.3   293  HIS293     -0.1226
     41  CA       -59.1560   18.3200   -1.6040 C.3   293  HIS293      0.1752
     42  C        -59.1230   19.6410   -2.4290 C.2   293  HIS293      0.2595
     43  O        -58.3080   19.7700   -3.3350 O.2   293  HIS293     -0.2718
     44  CB       -60.4680   17.5690   -1.8930 C.3   293  HIS293      0.0759
     45  CG       -60.5970   17.1270   -3.3340 C.ar  293  HIS293      0.0818
     46  ND1      -60.2390   15.8460   -3.7350 N.ar  293  HIS293     -0.2268
     47  CD2      -61.0260   17.8040   -4.4620 C.ar  293  HIS293      0.1154
     48  CE1      -60.4700   15.7510   -5.0600 C.ar  293  HIS293      0.1986
     49  NE2      -60.9350   16.8930   -5.5170 N.ar  293  HIS293     -0.2212
     50  N        -60.0330   20.5730   -2.1020 N.am  294  GLU294     -0.1979
     51  CA       -60.0650   21.8040   -2.9410 C.3   294  GLU294      0.1602
     52  C        -58.7590   22.6020   -2.7230 C.2   294  GLU294      0.2287
     53  O        -58.2650   23.1860   -3.6940 O.2   294  GLU294     -0.2864
     54  CB       -61.2870   22.6490   -2.6480 C.3   294  GLU294      0.0415
     55  CG       -62.6260   21.8760   -2.7200 C.3   294  GLU294      0.1163
     56  CD       -62.8420   21.0890   -4.0060 C.2   294  GLU294      0.3649
     57  OE1      -62.1890   21.2640   -5.0280 O.co2 294  GLU294     -0.2457
     58  OE2      -63.7800   20.1840   -3.9170 O.co2 294  GLU294     -0.2457
     59  N        -55.9780   21.1120   -4.8640 N.3   297  HIS297     -0.1241
     60  CA       -56.0840   21.4700   -6.3070 C.3   297  HIS297      0.1621
     61  C        -55.3600   22.7900   -6.6140 C.2   297  HIS297      0.2264
     62  O        -55.0540   23.0150   -7.7780 O.2   297  HIS297     -0.2867
     63  CB       -57.5210   21.7600   -6.7120 C.3   297  HIS297      0.0745
     64  CG       -58.2960   20.5320   -7.1710 C.ar  297  HIS297      0.0817
     65  ND1      -57.8030   19.7160   -8.1620 N.ar  297  HIS297     -0.2268
     66  CD2      -59.5090   20.0440   -6.7840 C.ar  297  HIS297      0.1154
     67  CE1      -58.7200   18.7600   -8.4160 C.ar  297  HIS297      0.1986
     68  NE2      -59.7780   18.9480   -7.6320 N.ar  297  HIS297     -0.2212
     69  N        -57.8740   15.0650  -11.0030 N.3   316  GLU316     -0.1301
     70  CA       -58.7630   14.4800   -9.9700 C.3   316  GLU316      0.1252
     71  C        -58.1180   13.2130   -9.3860 C.3   316  GLU316      0.2009
     72  O        -58.2780   13.0640   -8.1490 O.3   316  GLU316     -0.2188
     73  CB       -60.1340   14.1590  -10.5600 C.3   316  GLU316      0.0335
     74  CG       -60.8440   15.4450  -11.0420 C.3   316  GLU316      0.1156
     75  CD       -60.9480   16.4870   -9.9360 C.2   316  GLU316      0.3649
     76  OE1      -60.8590   16.1320   -8.7090 O.co2 316  GLU316     -0.2457
     77  OE2      -61.2140   17.6370  -10.2200 O.co2 316  GLU316     -0.2457
     78  N        -67.4900   13.0140  -14.2220 N.3   372  TYR372     -0.1241
     79  CA       -66.9320   13.3100  -12.8830 C.3   372  TYR372      0.1605
     80  C        -67.2520   12.1300  -12.0080 C.2   372  TYR372      0.2264
     81  O        -68.1830   12.1690  -11.1920 O.2   372  TYR372     -0.2867
     82  CB       -67.5550   14.6390  -12.3560 C.3   372  TYR372      0.0534
     83  CG       -66.8510   15.7870  -13.0430 C.ar  372  TYR372     -0.0201
     84  CD1      -67.1230   16.1070  -14.4130 C.ar  372  TYR372     -0.0009
     85  CD2      -65.9470   16.5640  -12.3530 C.ar  372  TYR372     -0.0009
     86  CE1      -66.3700   17.0770  -15.0710 C.ar  372  TYR372      0.0417
     87  CE2      -65.1810   17.5790  -13.0000 C.ar  372  TYR372      0.0417
     88  CZ       -65.4160   17.8350  -14.3780 C.ar  372  TYR372      0.1957
     89  OH       -64.6680   18.7440  -15.0810 O.3   372  TYR372     -0.2866
     90  N        -62.1020    9.7000  -10.5100 N.3   377  TYR377     -0.1241
     91  CA       -61.6310   10.1590   -9.1530 C.3   377  TYR377      0.1605
     92  C        -60.9680    9.0360   -8.3720 C.2   377  TYR377      0.2264
     93  O        -59.7820    9.0860   -8.1100 O.2   377  TYR377     -0.2867
     94  CB       -62.8760   10.6980   -8.3980 C.3   377  TYR377      0.0534
     95  CG       -63.2180   12.1290   -8.7360 C.ar  377  TYR377     -0.0201
     96  CD1      -63.6680   12.4780  -10.0190 C.ar  377  TYR377     -0.0009
     97  CD2      -63.1250   13.1560   -7.7830 C.ar  377  TYR377     -0.0009
     98  CE1      -64.0100   13.8170  -10.3470 C.ar  377  TYR377      0.0417
     99  CE2      -63.4370   14.4810   -8.0890 C.ar  377  TYR377      0.0417
    100  CZ       -63.8280   14.7860   -9.3640 C.ar  377  TYR377      0.1957
    101  OH       -64.1100   16.1020   -9.6870 O.3   377  TYR377     -0.2866
@<TRIPOS>BOND
     1    89    88    1
     2    86    84   ar
     3    86    88   ar
     4     3     2    1
     5     3     4    2
     6    84    83   ar
     7    88    87   ar
     8     2     1    1
     9     2     5    1
    10    78    79    1
    11     6     5    1
    12     6     7    1
    13     9     7   ar
    14    83    82    1
    15    83    85   ar
    16    87    85   ar
    17    79    82    1
    18    79    80    1
    19     7     8   ar
    20    80    81    2
    21    74    73    1
    22    74    75    1
    23    69    70    1
    24    16    17    1
    25    16    15    1
    26    73    70    1
    27    90    91    1
    28    30    29    1
    29    98    96   ar
    30    98   100   ar
    31    77    75   ar
    32    96    95   ar
    33    70    71    1
    34    15    14    1
    35    75    76   ar
    36    39    37   ar
    37   101   100    1
    38    29    28    1
    39    71    72    1
    40   100    99   ar
    41    91    94    1
    42    91    92    1
    43    37    36    1
    44    37    38   ar
    45    95    94    1
    46    95    97   ar
    47    14    11    1
    48    28    27    1
    49    67    65   ar
    50    67    68   ar
    51    92    93    2
    52    36    35    1
    53    65    64   ar
    54    99    97   ar
    55    62    61    2
    56    68    66   ar
    57    11    10    1
    58    11    12    1
    59    34    33    2
    60    64    66   ar
    61    64    63    1
    62    27    24    1
    63    33    32    1
    64    35    32    1
    65    63    60    1
    66    31    32    1
    67    31    25   am
    68    61    60    1
    69    13    12    1
    70    60    59    1
    71    24    25    1
    72    24    23    1
    73    25    26    2
    74    21    20    2
    75    49    48   ar
    76    49    47   ar
    77    48    46   ar
    78    23    20   am
    79    57    56   ar
    80    20    19    1
    81    47    45   ar
    82    56    58   ar
    83    56    55    1
    84    18    19    1
    85    19    22    1
    86    46    45   ar
    87    53    52    2
    88    43    42    2
    89    45    44    1
    90    51    52    1
    91    51    54    1
    92    51    50    1
    93    55    54    1
    94    42    50   am
    95    42    41    1
    96    44    41    1
    97    41    40    1
