@<TRIPOS>MOLECULE
tmp/3qjzA00.pdb
 186 178 0 0 0
SMALL
GASTEIGER

@<TRIPOS>ATOM
      1  N         17.8400   17.9660   12.6040 N.3   530  MET530     -0.1245
      2  CA        18.1380   18.8690   13.7200 C.3   530  MET530      0.1570
      3  C         19.0260   20.0490   13.3220 C.2   530  MET530      0.2261
      4  O         19.7880   19.9650   12.3590 O.2   530  MET530     -0.2867
      5  CB        18.7130   18.0820   14.9050 C.3   530  MET530      0.0387
      6  CG        17.7160   17.0670   15.4890 C.3   530  MET530      0.0595
      7  SD        18.4120   15.7580   16.5270 S.3   530  MET530     -0.1393
      8  CE        18.6120   16.6240   18.0850 C.3   530  MET530      0.0692
      9  N         21.5710   21.4670   14.7230 N.3   532  SER532     -0.1217
     10  CA        22.9620   21.4440   15.1830 C.3   532  SER532      0.1889
     11  C         23.9370   21.4070   13.9990 C.2   532  SER532      0.2288
     12  O         23.5380   21.0910   12.8730 O.2   532  SER532     -0.2866
     13  CB        23.2000   20.2540   16.1250 C.3   532  SER532      0.2089
     14  OG        23.0360   19.0100   15.4570 O.3   532  SER532     -0.2183
     15  N         21.8980   15.9610   12.0940 N.3   536  PRO536     -0.2116
     16  CA        21.4860   14.5960   12.3620 C.3   536  PRO536      0.1372
     17  C         20.0010   14.3910   12.1150 C.2   536  PRO536      0.2244
     18  O         19.2120   15.3260   12.2570 O.2   536  PRO536     -0.2868
     19  CB        21.7970   14.4260   13.8570 C.3   536  PRO536      0.0268
     20  CG        22.2590   15.7900   14.3580 C.3   536  PRO536      0.0207
     21  CD        21.8490   16.7690   13.3220 C.3   536  PRO536      0.0892
     22  N         16.4770   13.2480   13.1120 N.3   538  TRP538     -0.1241
     23  CA        15.5100   12.8840   14.1340 C.3   538  TRP538      0.1605
     24  C         14.5450   11.9240   13.4700 C.2   538  TRP538      0.2264
     25  O         13.8040   12.3240   12.5800 O.2   538  TRP538     -0.2867
     26  CB        14.7510   14.1270   14.6100 C.3   538  TRP538      0.0550
     27  CG        13.6710   13.8470   15.6140 C.ar  538  TRP538      0.0003
     28  CD1       12.4460   13.2930   15.3720 C.ar  538  TRP538      0.0946
     29  CD2       13.7200   14.1140   17.0180 C.ar  538  TRP538      0.0152
     30  NE1       11.7320   13.1910   16.5410 N.ar  538  TRP538     -0.2442
     31  CE2       12.4890   13.6900   17.5670 C.ar  538  TRP538      0.0810
     32  CE3       14.6870   14.6660   17.8690 C.ar  538  TRP538      0.0012
     33  CZ2       12.1990   13.7980   18.9300 C.ar  538  TRP538      0.0191
     34  CZ3       14.4000   14.7750   19.2240 C.ar  538  TRP538      0.0001
     35  CH2       13.1640   14.3430   19.7410 C.ar  538  TRP538      0.0015
     36  N         18.0110    8.9760   16.9630 N.3   557  ILE557     -0.1245
     37  CA        18.8170    9.9310   16.2220 C.3   557  ILE557      0.1561
     38  C         19.9470    9.1980   15.4910 C.2   557  ILE557      0.2260
     39  O         20.5900    8.3090   16.0610 O.2   557  ILE557     -0.2867
     40  CB        19.4040   11.0060   17.1600 C.3   557  ILE557      0.0252
     41  CG1       18.2900   11.9120   17.6790 C.3   557  ILE557      0.0019
     42  CG2       20.4880   11.8300   16.4530 C.3   557  ILE557      0.0019
     43  CD1       18.6950   12.7640   18.8500 C.3   557  ILE557      0.0001
     44  N         23.5190   10.0560   13.5270 N.3   559  LYS559     -0.1245
     45  CA        24.4670   11.1650   13.4470 C.3   559  LYS559      0.1561
     46  C         25.8110   10.7900   12.8320 C.2   559  LYS559      0.2260
     47  O         26.3620    9.7310   13.1240 O.2   559  LYS559     -0.2867
     48  CB        24.6660   11.8070   14.8280 C.3   559  LYS559      0.0271
     49  CG        25.3910   13.1460   14.7900 C.3   559  LYS559      0.0035
     50  CD        25.5460   13.7630   16.1660 C.3   559  LYS559      0.0206
     51  CE        26.6400   13.1010   17.0020 C.3   559  LYS559      0.1093
     52  NZ        27.1200   14.0080   18.0920 N.3   559  LYS559     -0.1314
     53  N         31.1880    8.3810   18.3440 N.3   564  LEU564     -0.1245
     54  CA        30.2160    7.7990   19.2740 C.3   564  LEU564      0.1561
     55  C         30.7800    6.6380   20.0880 C.2   564  LEU564      0.2260
     56  O         30.2160    6.2470   21.1110 O.2   564  LEU564     -0.2867
     57  CB        28.9300    7.4070   18.5470 C.3   564  LEU564      0.0270
     58  CG        28.1390    8.5900   17.9820 C.3   564  LEU564      0.0019
     59  CD1       26.9610    8.0930   17.1830 C.3   564  LEU564      0.0001
     60  CD2       27.6860    9.5460   19.0790 C.3   564  LEU564      0.0001
     61  N         31.3750    8.3460   23.2620 N.3   567  ASP567     -0.1239
     62  CA        30.0900    8.4100   23.9540 C.3   567  ASP567      0.1674
     63  C         29.7990    7.0880   24.6300 C.2   567  ASP567      0.2266
     64  O         29.5430    7.0450   25.8330 O.2   567  ASP567     -0.2867
     65  CB        28.9590    8.7320   22.9840 C.3   567  ASP567      0.1410
     66  CG        29.0940   10.1060   22.3670 C.2   567  ASP567      0.3668
     67  OD1       30.0670   10.3370   21.6110 O.co2 567  ASP567     -0.2456
     68  OD2       28.2120   10.9540   22.6280 O.co2 567  ASP567     -0.2456
     69  N         21.4140    7.3830   28.4650 N.3   593  TYR593     -0.1241
     70  CA        20.6750    7.0170   27.2530 C.3   593  TYR593      0.1605
     71  C         21.4170    6.0310   26.3550 C.2   593  TYR593      0.2264
     72  O         22.6450    6.0920   26.2400 O.2   593  TYR593     -0.2867
     73  CB        20.3730    8.2870   26.4590 C.3   593  TYR593      0.0534
     74  CG        21.6160    9.0440   26.0320 C.ar  593  TYR593     -0.0201
     75  CD1       22.1880    8.8250   24.7830 C.ar  593  TYR593     -0.0009
     76  CD2       22.2250    9.9700   26.8800 C.ar  593  TYR593     -0.0009
     77  CE1       23.3280    9.5090   24.3910 C.ar  593  TYR593      0.0417
     78  CE2       23.3660   10.6620   26.4940 C.ar  593  TYR593      0.0417
     79  CZ        23.9090   10.4260   25.2480 C.ar  593  TYR593      0.1957
     80  OH        25.0390   11.0980   24.8390 O.3   593  TYR593     -0.2866
     81  N         21.3820    6.7670   18.4430 N.3   605  ILE605     -0.1231
     82  CA        21.1420    7.3900   19.7480 C.3   605  ILE605      0.1692
     83  C         19.7010    7.1800   20.2420 C.2   605  ILE605      0.2592
     84  O         18.7520    7.2120   19.4640 O.2   605  ILE605     -0.2718
     85  CB        21.4950    8.9080   19.6960 C.3   605  ILE605      0.0266
     86  CG1       22.9930    9.1070   19.9290 C.3   605  ILE605      0.0019
     87  CG2       20.6930    9.7150   20.7110 C.3   605  ILE605      0.0020
     88  CD1       23.5910   10.2500   19.1550 C.3   605  ILE605      0.0001
     89  N         19.5510    6.9590   21.5440 N.am  606  GLU606     -0.1966
     90  CA        18.2380    6.8610   22.1750 C.3   606  GLU606      0.1733
     91  C         17.6990    8.2510   22.4600 C.2   606  GLU606      0.2616
     92  O         18.3410    9.0320   23.1600 O.2   606  GLU606     -0.2715
     93  CB        18.3470    6.0720   23.4770 C.3   606  GLU606      0.0429
     94  CG        17.0480    5.8550   24.2320 C.3   606  GLU606      0.1163
     95  CD        17.2410    4.9140   25.4120 C.2   606  GLU606      0.3649
     96  OE1       16.5990    3.8430   25.4260 O.co2 606  GLU606     -0.2457
     97  OE2       18.0550    5.2300   26.3130 O.co2 606  GLU606     -0.2457
     98  N         16.5290    8.5580   21.8990 N.am  607  ILE607     -0.1963
     99  CA        15.8240    9.7980   22.2060 C.3   607  ILE607      0.1727
    100  C         15.1070    9.6220   23.5380 C.2   607  ILE607      0.2616
    101  O         14.2090    8.7870   23.6660 O.2   607  ILE607     -0.2715
    102  CB        14.8030   10.1810   21.1060 C.3   607  ILE607      0.0290
    103  CG1       15.5250   10.6600   19.8470 C.3   607  ILE607      0.0022
    104  CG2       13.8480   11.2640   21.6020 C.3   607  ILE607      0.0023
    105  CD1       14.6150   10.9180   18.6510 C.3   607  ILE607      0.0001
    106  N         15.5210   10.4010   24.5300 N.am  608  VAL608     -0.1963
    107  CA        14.8560   10.4040   25.8270 C.3   608  VAL608      0.1727
    108  C         13.6220   11.3050   25.7580 C.2   608  VAL608      0.2616
    109  O         13.7370   12.5010   25.5290 O.2   608  VAL608     -0.2715
    110  CB        15.8280   10.8320   26.9500 C.3   608  VAL608      0.0290
    111  CG1       15.1050   10.9980   28.2610 C.3   608  VAL608      0.0023
    112  CG2       16.9470    9.8020   27.0940 C.3   608  VAL608      0.0023
    113  N         12.4470   10.7040   25.9420 N.am  609  LYS609     -0.1963
    114  CA        11.1460   11.3900   25.8590 C.3   609  LYS609      0.1728
    115  C         10.9720   12.4960   26.9060 C.2   609  LYS609      0.2616
    116  O         11.5280   12.4100   28.0060 O.2   609  LYS609     -0.2715
    117  CB        10.0060   10.3720   26.0240 C.3   609  LYS609      0.0311
    118  CG        10.1470    9.0980   25.1960 C.3   609  LYS609      0.0038
    119  CD         9.6440    9.2740   23.7610 C.3   609  LYS609      0.0206
    120  CE        10.2950    8.2750   22.8110 C.3   609  LYS609      0.1093
    121  NZ        10.2360    6.8610   23.2970 N.3   609  LYS609     -0.1314
    122  N         10.1890   13.5190   26.5570 N.am  610  ASP610     -0.1957
    123  CA         9.8110   14.6100   27.4830 C.3   610  ASP610      0.1840
    124  C         11.0120   15.3690   28.0830 C.2   610  ASP610      0.2622
    125  O         11.1240   15.5220   29.3080 O.2   610  ASP610     -0.2715
    126  CB         8.9030   14.0900   28.6170 C.3   610  ASP610      0.1450
    127  CG         7.5530   13.6030   28.1270 C.2   610  ASP610      0.3671
    128  OD1        7.2750   13.6490   26.9080 O.co2 610  ASP610     -0.2456
    129  OD2        6.7620   13.1690   28.9880 O.co2 610  ASP610     -0.2456
    130  N         11.8990   15.8470   27.2170 N.am  611  ALA611     -0.1963
    131  CA        13.1230   16.4960   27.6600 C.3   611  ALA611      0.1728
    132  C         13.5470   17.5710   26.6750 C.2   611  ALA611      0.2616
    133  O         13.2610   17.4700   25.4870 O.2   611  ALA611     -0.2715
    134  CB        14.2260   15.4630   27.8150 C.3   611  ALA611      0.0334
    135  N         14.2080   18.6120   27.1660 N.am  612  THR612     -0.1951
    136  CA        14.9210   19.5180   26.2690 C.3   612  THR612      0.1897
    137  C         16.2830   19.8840   26.8120 C.2   612  THR612      0.2313
    138  O         16.7070   19.3790   27.8570 O.2   612  THR612     -0.2863
    139  CB        14.1210   20.7900   25.8810 C.3   612  THR612      0.1794
    140  OG1       13.0990   21.0370   26.8450 O.3   612  THR612     -0.2208
    141  CG2       13.4770   20.6190   24.5070 C.3   612  THR612      0.0378
    142  N         20.9420   18.3130   29.4210 N.3   675  MET675     -0.1245
    143  CA        19.5150   18.1740   29.1970 C.3   675  MET675      0.1570
    144  C         18.8030   17.7690   30.4650 C.2   675  MET675      0.2261
    145  O         19.3800   17.1220   31.3430 O.2   675  MET675     -0.2867
    146  CB        19.2400   17.1270   28.1220 C.3   675  MET675      0.0387
    147  CG        19.4460   17.6250   26.7250 C.3   675  MET675      0.0595
    148  SD        18.6720   16.5330   25.5460 S.3   675  MET675     -0.1393
    149  CE        19.0710   17.3960   24.0270 C.3   675  MET675      0.0692
    150  N         20.5810   15.2480   32.6020 N.3   683  PHE683     -0.1241
    151  CA        21.5950   14.3930   31.9830 C.3   683  PHE683      0.1605
    152  C         22.3510   15.1030   30.8720 C.2   683  PHE683      0.2264
    153  O         21.7850   15.9370   30.1690 O.2   683  PHE683     -0.2867
    154  CB        20.9800   13.0850   31.4560 C.3   683  PHE683      0.0534
    155  CG        19.9640   13.2760   30.3660 C.ar  683  PHE683     -0.0203
    156  CD1       20.3230   13.1320   29.0320 C.ar  683  PHE683     -0.0042
    157  CD2       18.6420   13.5660   30.6700 C.ar  683  PHE683     -0.0042
    158  CE1       19.3780   13.2920   28.0130 C.ar  683  PHE683     -0.0003
    159  CE2       17.6900   13.7330   29.6650 C.ar  683  PHE683     -0.0003
    160  CZ        18.0550   13.5960   28.3360 C.ar  683  PHE683     -0.0000
    161  N         24.7420   15.0800   27.2750 N.3   685  ILE685     -0.1231
    162  CA        24.7250   14.4430   25.9580 C.3   685  ILE685      0.1692
    163  C         25.9840   14.8350   25.1770 C.2   685  ILE685      0.2592
    164  O         26.6810   15.7620   25.5800 O.2   685  ILE685     -0.2718
    165  CB        23.4470   14.8150   25.1540 C.3   685  ILE685      0.0266
    166  CG1       23.3740   16.3170   24.8590 C.3   685  ILE685      0.0019
    167  CG2       22.1940   14.3840   25.8890 C.3   685  ILE685      0.0020
    168  CD1       23.6720   16.6850   23.4160 C.3   685  ILE685      0.0001
    169  N         26.2740   14.1360   24.0740 N.am  686  ASP686     -0.1974
    170  CA        27.4160   14.4560   23.2000 C.3   686  ASP686      0.1709
    171  C         28.7590   14.3890   23.8960 C.2   686  ASP686      0.2293
    172  O         29.2750   15.4140   24.3260 O.2   686  ASP686     -0.2864
    173  CB        27.2710   15.8600   22.6060 C.3   686  ASP686      0.1436
    174  CG        26.9590   15.8450   21.1340 C.2   686  ASP686      0.3671
    175  OD1       26.0040   16.5540   20.7450 O.co2 686  ASP686     -0.2456
    176  OD2       27.6650   15.1380   20.3720 O.co2 686  ASP686     -0.2456
    177  N         31.7920   15.3100   21.3900 N.3   689  HIS689     -0.1241
    178  CA        32.0810   16.7400   21.4410 C.3   689  HIS689      0.1621
    179  C         32.9170   17.0910   22.6780 C.2   689  HIS689      0.2264
    180  O         34.0280   16.5810   22.8720 O.2   689  HIS689     -0.2867
    181  CB        30.7800   17.5450   21.4540 C.3   689  HIS689      0.0745
    182  CG        30.3310   17.9970   20.0970 C.ar  689  HIS689      0.0817
    183  ND1       30.9500   19.0220   19.4120 N.ar  689  HIS689     -0.2268
    184  CD2       29.3110   17.5820   19.3080 C.ar  689  HIS689      0.1154
    185  CE1       30.3370   19.2130   18.2570 C.ar  689  HIS689      0.1986
    186  NE2       29.3390   18.3500   18.1680 N.ar  689  HIS689     -0.2212
@<TRIPOS>BOND
     1    15    16    1
     2    15    21    1
     3    17    18    2
     4    17    16    1
     5     4     3    2
     6    16    19    1
     7    25    24    2
     8     1     2    1
     9    46    47    2
    10    46    45    1
    11    12    11    2
    12    22    23    1
    13     3     2    1
    14    21    20    1
    15    45    44    1
    16    45    48    1
    17    24    23    1
    18     2     5    1
    19    19    20    1
    20    11    10    1
    21    23    26    1
    22    26    27    1
    23     9    10    1
    24    49    48    1
    25    49    50    1
    26     5     6    1
    27    10    13    1
    28    28    27   ar
    29    28    30   ar
    30    14    13    1
    31     6     7    1
    32    38    39    2
    33    38    37    1
    34    27    29   ar
    35    50    51    1
    36    37    36    1
    37    37    40    1
    38    42    40    1
    39     7     8    1
    40    30    31   ar
    41    51    52    1
    42    29    31   ar
    43    29    32   ar
    44    40    41    1
    45    59    58    1
    46    31    33   ar
    47    41    43    1
    48    32    34   ar
    49    58    57    1
    50    58    60    1
    51   186   185   ar
    52   186   184   ar
    53   185   183   ar
    54    53    54    1
    55    81    82    1
    56    57    54    1
    57   105   103    1
    58    33    35   ar
    59    88    86    1
    60    34    35   ar
    61    54    55    1
    62   184   182   ar
    63   183   182   ar
    64    84    83    2
    65    85    82    1
    66    85    86    1
    67    85    87    1
    68    82    83    1
    69   103   102    1
    70    55    56    2
    71   182   181    1
    72    83    89   am
    73   176   174   ar
    74   175   174   ar
    75   102   104    1
    76   102    99    1
    77   174   173    1
    78   177   178    1
    79   178   181    1
    80   178   179    1
    81    89    90    1
    82    67    66   ar
    83    98    99    1
    84    98    91   am
    85    90    91    1
    86    90    93    1
    87    99   100    1
    88    66    68   ar
    89    66    65    1
    90    91    92    2
    91   173   170    1
    92   179   180    2
    93   120   121    1
    94   120   119    1
    95    65    62    1
    96   170   171    1
    97   170   169    1
    98    61    62    1
    99   168   166    1
   100    93    94    1
   101   100   101    2
   102   100   106   am
   103   119   118    1
   104   171   172    2
   105    62    63    1
   106   149   148    1
   107   169   163   am
   108    94    95    1
   109    77    75   ar
   110    77    79   ar
   111   141   139    1
   112   106   107    1
   113    63    64    2
   114    75    74   ar
   115    80    79    1
   116   166   165    1
   117   165   167    1
   118   165   162    1
   119   163   164    2
   120   163   162    1
   121   118   117    1
   122    79    78   ar
   123    95    96   ar
   124    95    97   ar
   125   133   132    2
   126   109   108    2
   127   148   147    1
   128   108   107    1
   129   108   113   am
   130   107   110    1
   131   114   113    1
   132   114   117    1
   133   114   115    1
   134   139   136    1
   135   139   140    1
   136   162   161    1
   137    74    73    1
   138    74    76   ar
   139    72    71    2
   140   136   137    1
   141   136   135    1
   142    71    70    1
   143    73    70    1
   144    78    76   ar
   145   122   115   am
   146   122   123    1
   147   132   135   am
   148   132   131    1
   149   147   146    1
   150   137   138    2
   151   115   116    2
   152   128   127   ar
   153   110   112    1
   154   110   111    1
   155   130   131    1
   156   130   124   am
   157    70    69    1
   158   123   124    1
   159   123   126    1
   160   131   134    1
   161   158   160   ar
   162   158   156   ar
   163   124   125    2
   164   146   143    1
   165   127   126    1
   166   127   129   ar
   167   160   159   ar
   168   156   155   ar
   169   143   142    1
   170   143   144    1
   171   159   157   ar
   172   153   152    2
   173   155   157   ar
   174   155   154    1
   175   144   145    2
   176   152   151    1
   177   154   151    1
   178   151   150    1
