@<TRIPOS>MOLECULE
tmp/3qk0A00.pdb
 204 192 0 0 0
SMALL
GASTEIGER

@<TRIPOS>ATOM
      1  N         19.5550   16.9100   12.8440 N.3   544  MET544     -0.1245
      2  CA        19.8700   17.8720   13.9130 C.3   544  MET544      0.1570
      3  C         20.7510   19.0340   13.4260 C.2   544  MET544      0.2261
      4  O         21.5940   18.8550   12.5400 O.2   544  MET544     -0.2867
      5  CB        20.5060   17.1690   15.1200 C.3   544  MET544      0.0387
      6  CG        19.5460   16.2630   15.8930 C.3   544  MET544      0.0595
      7  SD        20.2980   15.3250   17.2530 S.3   544  MET544     -0.1393
      8  CE        20.2650   16.5210   18.5920 C.3   544  MET544      0.0692
      9  N         23.2830   20.3810   14.5070 N.3   546  SER546     -0.1217
     10  CA        24.7190   20.0890   14.6140 C.3   546  SER546      0.1889
     11  C         25.3990   20.0690   13.2470 C.2   546  SER546      0.2288
     12  O         24.8330   19.5650   12.2800 O.2   546  SER546     -0.2866
     13  CB        24.9270   18.7420   15.3200 C.3   546  SER546      0.2089
     14  OG        26.2480   18.2420   15.1470 O.3   546  SER546     -0.2183
     15  N         23.6700   14.7960   12.3340 N.3   550  PRO550     -0.2116
     16  CA        23.2510   13.4450   12.6770 C.3   550  PRO550      0.1372
     17  C         21.7530   13.1990   12.4710 C.2   550  PRO550      0.2244
     18  O         20.9670   14.1430   12.4630 O.2   550  PRO550     -0.2868
     19  CB        23.6000   13.3450   14.1670 C.3   550  PRO550      0.0268
     20  CG        23.8260   14.7760   14.6450 C.3   550  PRO550      0.0207
     21  CD        23.6090   15.6920   13.5020 C.3   550  PRO550      0.0892
     22  N         18.2900   12.1860   13.7320 N.3   552  TRP552     -0.1241
     23  CA        17.3270   11.9740   14.8090 C.3   552  TRP552      0.1605
     24  C         16.2190   11.0870   14.2430 C.2   552  TRP552      0.2264
     25  O         15.4370   11.5290   13.4030 O.2   552  TRP552     -0.2867
     26  CB        16.7860   13.3230   15.3070 C.3   552  TRP552      0.0550
     27  CG        15.5990   13.2550   16.2410 C.ar  552  TRP552      0.0003
     28  CD1       14.3350   12.8180   15.9390 C.ar  552  TRP552      0.0946
     29  CD2       15.5560   13.6750   17.6130 C.ar  552  TRP552      0.0152
     30  NE1       13.5220   12.9160   17.0400 N.ar  552  TRP552     -0.2442
     31  CE2       14.2400   13.4430   18.0810 C.ar  552  TRP552      0.0810
     32  CE3       16.5020   14.2150   18.4950 C.ar  552  TRP552      0.0012
     33  CZ2       13.8450   13.7360   19.3910 C.ar  552  TRP552      0.0191
     34  CZ3       16.1070   14.5020   19.8020 C.ar  552  TRP552      0.0001
     35  CH2       14.7880   14.2640   20.2340 C.ar  552  TRP552      0.0015
     36  N         19.6540    8.3730   17.8470 N.3   571  ILE571     -0.1245
     37  CA        20.4750    9.2780   17.0440 C.3   571  ILE571      0.1561
     38  C         21.4120    8.4460   16.1760 C.2   571  ILE571      0.2260
     39  O         22.0010    7.4780   16.6530 O.2   571  ILE571     -0.2867
     40  CB        21.2890   10.2530   17.9390 C.3   571  ILE571      0.0252
     41  CG1       20.3950   11.4050   18.4160 C.3   571  ILE571      0.0019
     42  CG2       22.5320   10.7830   17.2070 C.3   571  ILE571      0.0019
     43  CD1       20.9410   12.1690   19.6020 C.3   571  ILE571      0.0001
     44  N         24.8070    9.0900   14.2110 N.3   573  LYS573     -0.1245
     45  CA        25.8510   10.0750   13.9990 C.3   573  LYS573      0.1561
     46  C         26.9960    9.5340   13.1670 C.2   573  LYS573      0.2260
     47  O         27.4180    8.3910   13.3470 O.2   573  LYS573     -0.2867
     48  CB        26.3770   10.6220   15.3280 C.3   573  LYS573      0.0271
     49  CG        27.1370   11.9320   15.1580 C.3   573  LYS573      0.0035
     50  CD        27.9250   12.3170   16.3930 C.3   573  LYS573      0.0206
     51  CE        28.8170   13.5130   16.0900 C.3   573  LYS573      0.1093
     52  NZ        29.3360   14.1720   17.3200 N.3   573  LYS573     -0.1314
     53  N         32.3790   11.3690   14.0690 N.3   576  ASP576     -0.1239
     54  CA        33.1140   11.2450   15.3320 C.3   576  ASP576      0.1674
     55  C         33.5200    9.8090   15.6800 C.2   576  ASP576      0.2266
     56  O         32.9520    8.8350   15.1560 O.2   576  ASP576     -0.2867
     57  CB        32.3340   11.9020   16.4830 C.3   576  ASP576      0.1410
     58  CG        32.5290   13.4200   16.5330 C.2   576  ASP576      0.3668
     59  OD1       33.3800   13.9470   15.7730 O.co2 576  ASP576     -0.2456
     60  OD2       31.8400   14.0910   17.3370 O.co2 576  ASP576     -0.2456
     61  N         33.1210    7.2770   18.2230 N.3   578  LEU578     -0.1245
     62  CA        32.2110    6.9950   19.3250 C.3   578  LEU578      0.1561
     63  C         32.7890    5.9710   20.2910 C.2   578  LEU578      0.2260
     64  O         32.2340    5.7310   21.3580 O.2   578  LEU578     -0.2867
     65  CB        30.8430    6.5660   18.7930 C.3   578  LEU578      0.0270
     66  CG        30.0320    7.7180   18.1820 C.3   578  LEU578      0.0019
     67  CD1       28.8500    7.1870   17.4070 C.3   578  LEU578      0.0001
     68  CD2       29.5750    8.7210   19.2340 C.3   578  LEU578      0.0001
     69  N         33.4930    7.5840   23.5150 N.3   581  ASP581     -0.1239
     70  CA        32.2970    7.8690   24.2790 C.3   581  ASP581      0.1674
     71  C         31.8240    6.6630   25.0370 C.2   581  ASP581      0.2266
     72  O         31.4110    6.7910   26.1870 O.2   581  ASP581     -0.2867
     73  CB        31.1920    8.3970   23.3750 C.3   581  ASP581      0.1410
     74  CG        31.5730    9.6980   22.7100 C.2   581  ASP581      0.3668
     75  OD1       32.6560    9.7290   22.0810 O.co2 581  ASP581     -0.2456
     76  OD2       30.8050   10.6760   22.8230 O.co2 581  ASP581     -0.2456
     77  N         23.4480    7.1720   29.1500 N.3   607  TYR607     -0.1241
     78  CA        22.6690    6.7340   27.9750 C.3   607  TYR607      0.1605
     79  C         23.4260    5.7440   27.0660 C.2   607  TYR607      0.2264
     80  O         24.6590    5.7170   27.0370 O.2   607  TYR607     -0.2867
     81  CB        22.2470    7.9670   27.1570 C.3   607  TYR607      0.0534
     82  CG        23.4370    8.8400   26.8050 C.ar  607  TYR607     -0.0201
     83  CD1       24.1790    8.6190   25.6330 C.ar  607  TYR607     -0.0009
     84  CD2       23.8540    9.8550   27.6620 C.ar  607  TYR607     -0.0009
     85  CE1       25.2920    9.4000   25.3240 C.ar  607  TYR607      0.0417
     86  CE2       24.9620   10.6420   27.3600 C.ar  607  TYR607      0.0417
     87  CZ        25.6730   10.4070   26.1960 C.ar  607  TYR607      0.1957
     88  OH        26.7660   11.1830   25.9160 O.3   607  TYR607     -0.2866
     89  N         23.1450    6.3090   19.1560 N.3   619  ILE619     -0.1231
     90  CA        23.0040    6.8490   20.5080 C.3   619  ILE619      0.1692
     91  C         21.5430    6.8770   20.9540 C.2   619  ILE619      0.2592
     92  O         20.6560    7.1960   20.1700 O.2   619  ILE619     -0.2718
     93  CB        23.6080    8.2730   20.6020 C.3   619  ILE619      0.0266
     94  CG1       25.0860    8.2610   20.1950 C.3   619  ILE619      0.0019
     95  CG2       23.4760    8.8160   22.0040 C.3   619  ILE619      0.0020
     96  CD1       25.5560    9.5360   19.5820 C.3   619  ILE619      0.0001
     97  N         21.3080    6.5320   22.2160 N.am  620  GLU620     -0.1966
     98  CA        19.9940    6.6470   22.8330 C.3   620  GLU620      0.1733
     99  C         19.5870    8.1080   22.9670 C.2   620  GLU620      0.2616
    100  O         20.3860    8.9410   23.4040 O.2   620  GLU620     -0.2715
    101  CB        20.0270    6.0050   24.2170 C.3   620  GLU620      0.0429
    102  CG        18.6950    5.9470   24.9460 C.3   620  GLU620      0.1163
    103  CD        18.8400    5.4960   26.3900 C.2   620  GLU620      0.3649
    104  OE1       17.8730    5.6490   27.1600 O.co2 620  GLU620     -0.2457
    105  OE2       19.9160    4.9910   26.7730 O.co2 620  GLU620     -0.2457
    106  N         18.3500    8.4160   22.5840 N.am  621  ILE621     -0.1963
    107  CA        17.7610    9.7330   22.8520 C.3   621  ILE621      0.1727
    108  C         17.0290    9.7090   24.1910 C.2   621  ILE621      0.2616
    109  O         16.0120    9.0300   24.3330 O.2   621  ILE621     -0.2715
    110  CB        16.7660   10.1700   21.7440 C.3   621  ILE621      0.0290
    111  CG1       17.5040   10.4600   20.4330 C.3   621  ILE621      0.0022
    112  CG2       15.9580   11.3830   22.1980 C.3   621  ILE621      0.0023
    113  CD1       16.5890   10.6390   19.2320 C.3   621  ILE621      0.0001
    114  N         17.5500   10.4420   25.1690 N.am  622  VAL622     -0.1963
    115  CA        16.8780   10.5700   26.4610 C.3   622  VAL622      0.1727
    116  C         15.5970   11.3750   26.2730 C.2   622  VAL622      0.2616
    117  O         15.6300   12.4700   25.7270 O.2   622  VAL622     -0.2715
    118  CB        17.7770   11.2360   27.5300 C.3   622  VAL622      0.0290
    119  CG1       17.0150   11.4020   28.8480 C.3   622  VAL622      0.0023
    120  CG2       19.0560   10.4210   27.7480 C.3   622  VAL622      0.0023
    121  N         14.4750   10.8190   26.7090 N.am  623  LYS623     -0.1963
    122  CA        13.1780   11.4660   26.5300 C.3   623  LYS623      0.1728
    123  C         12.9810   12.6950   27.4390 C.2   623  LYS623      0.2616
    124  O         13.5520   12.7700   28.5320 O.2   623  LYS623     -0.2715
    125  CB        12.0440   10.4430   26.7100 C.3   623  LYS623      0.0311
    126  CG        12.0190    9.3280   25.6470 C.3   623  LYS623      0.0038
    127  CD        11.4090    9.8170   24.3260 C.3   623  LYS623      0.0206
    128  CE        11.5730    8.7940   23.1950 C.3   623  LYS623      0.1093
    129  NZ        11.0890    9.3260   21.8700 N.3   623  LYS623     -0.1314
    130  N         12.1840   13.6510   26.9540 N.am  624  ASP624     -0.1957
    131  CA        11.8520   14.8990   27.6690 C.3   624  ASP624      0.1840
    132  C         13.0700   15.6280   28.2430 C.2   624  ASP624      0.2621
    133  O         13.0780   16.0060   29.4150 O.2   624  ASP624     -0.2715
    134  CB        10.8240   14.6500   28.7890 C.3   624  ASP624      0.1450
    135  CG         9.6850   13.7480   28.3570 C.2   624  ASP624      0.3671
    136  OD1        8.9130   14.1300   27.4500 O.co2 624  ASP624     -0.2456
    137  OD2        9.5620   12.6530   28.9400 O.co2 624  ASP624     -0.2456
    138  N         14.0930   15.8220   27.4180 N.am  625  ALA625     -0.1977
    139  CA        15.3320   16.4550   27.8640 C.3   625  ALA625      0.1597
    140  C         15.8200   17.5370   26.9050 C.2   625  ALA625      0.2287
    141  O         15.5630   17.4810   25.7020 O.2   625  ALA625     -0.2864
    142  CB        16.4160   15.4060   28.0720 C.3   625  ALA625      0.0319
    143  N         19.1910   20.7890   26.3460 N.3   627  THR627     -0.1218
    144  CA        20.5050   21.3060   26.7310 C.3   627  THR627      0.1862
    145  C         20.3750   22.5630   27.5710 C.2   627  THR627      0.2287
    146  O         19.4160   23.3190   27.4100 O.2   627  THR627     -0.2866
    147  CB        21.3980   21.6240   25.5050 C.3   627  THR627      0.1770
    148  OG1       20.9870   22.8580   24.9080 O.3   627  THR627     -0.2211
    149  CG2       21.3500   20.4920   24.4650 C.3   627  THR627      0.0375
    150  N         26.5000   23.8680   26.1650 N.3   690  ASP690     -0.1225
    151  CA        25.6100   23.1530   25.2460 C.3   690  ASP690      0.1805
    152  C         25.8450   21.6470   25.2450 C.2   690  ASP690      0.2597
    153  O         25.0780   20.8890   24.6420 O.2   690  ASP690     -0.2718
    154  CB        25.7510   23.7110   23.8170 C.3   690  ASP690      0.1424
    155  CG        27.1860   24.1640   23.4800 C.2   690  ASP690      0.3668
    156  OD1       28.0720   24.1570   24.3690 O.co2 690  ASP690     -0.2456
    157  OD2       27.4270   24.5440   22.3110 O.co2 690  ASP690     -0.2456
    158  N         26.9140   21.2270   25.9170 N.am  691  ASN691     -0.1974
    159  CA        27.2620   19.8130   26.0630 C.3   691  ASN691      0.1688
    160  C         26.7070   19.1950   27.3500 C.2   691  ASN691      0.2292
    161  O         27.0320   18.0520   27.6800 O.2   691  ASN691     -0.2864
    162  CB        28.7860   19.6300   26.0050 C.3   691  ASN691      0.1181
    163  CG        29.3460   19.7680   24.6000 C.2   691  ASN691      0.2629
    164  OD1       30.4990   20.1670   24.4210 O.2   691  ASN691     -0.2716
    165  ND2       28.5400   19.4270   23.5940 N.am  691  ASN691     -0.0877
    166  N         23.0320   18.5310   29.6610 N.3   693  MET693     -0.1245
    167  CA        21.5880   18.4270   29.4810 C.3   693  MET693      0.1570
    168  C         20.8230   18.2080   30.7800 C.2   693  MET693      0.2261
    169  O         21.4050   17.7820   31.7830 O.2   693  MET693     -0.2867
    170  CB        21.2500   17.3280   28.4790 C.3   693  MET693      0.0387
    171  CG        21.5230   17.7290   27.0430 C.3   693  MET693      0.0595
    172  SD        20.9120   16.5790   25.8000 S.3   693  MET693     -0.1393
    173  CE        19.1840   16.9950   25.7220 C.3   693  MET693      0.0692
    174  N         22.7070   15.7830   33.0580 N.3   701  PHE701     -0.1241
    175  CA        23.6630   14.8200   32.4750 C.3   701  PHE701      0.1605
    176  C         24.4960   15.3940   31.3450 C.2   701  PHE701      0.2264
    177  O         23.9890   16.1490   30.5220 O.2   701  PHE701     -0.2867
    178  CB        22.9780   13.5320   32.0050 C.3   701  PHE701      0.0534
    179  CG        22.0230   13.7220   30.8600 C.ar  701  PHE701     -0.0203
    180  CD1       22.4250   13.4680   29.5580 C.ar  701  PHE701     -0.0042
    181  CD2       20.7100   14.1220   31.0880 C.ar  701  PHE701     -0.0042
    182  CE1       21.5380   13.6260   28.4940 C.ar  701  PHE701     -0.0003
    183  CE2       19.8180   14.2880   30.0310 C.ar  701  PHE701     -0.0003
    184  CZ        20.2350   14.0340   28.7300 C.ar  701  PHE701     -0.0000
    185  N         26.8530   15.2180   27.8580 N.3   703  ILE703     -0.1231
    186  CA        26.8550   14.4870   26.5900 C.3   703  ILE703      0.1692
    187  C         28.1600   14.7050   25.8330 C.2   703  ILE703      0.2592
    188  O         29.0450   15.3860   26.3250 O.2   703  ILE703     -0.2718
    189  CB        25.6350   14.8300   25.6780 C.3   703  ILE703      0.0266
    190  CG1       25.5680   16.3280   25.3500 C.3   703  ILE703      0.0019
    191  CG2       24.3310   14.3290   26.2910 C.3   703  ILE703      0.0020
    192  CD1       24.7110   16.6480   24.1420 C.3   703  ILE703      0.0001
    193  N         28.2720   14.1050   24.6500 N.am  704  ASP704     -0.1974
    194  CA        29.4020   14.3020   23.7280 C.3   704  ASP704      0.1709
    195  C         30.7870   14.2690   24.3830 C.2   704  ASP704      0.2293
    196  O         31.5490   15.2230   24.2900 O.2   704  ASP704     -0.2864
    197  CB        29.2140   15.5850   22.8960 C.3   704  ASP704      0.1436
    198  CG        30.0640   15.5990   21.6130 C.2   704  ASP704      0.3671
    199  OD1       31.0610   14.8400   21.5320 O.co2 704  ASP704     -0.2456
    200  OD2       29.7340   16.3760   20.6810 O.co2 704  ASP704     -0.2456
    201  N         33.2220   12.3910   23.4920 N.3   706  GLY706     -0.1225
    202  CA        34.2020   12.2570   22.4310 C.3   706  GLY706      0.1811
    203  C         34.6920   13.5910   21.9050 C.2   706  GLY706      0.2280
    204  O         35.6300   13.6290   21.1050 O.2   706  GLY706     -0.2866
@<TRIPOS>BOND
     1    12    11    2
     2    15    16    1
     3    15    21    1
     4    18    17    2
     5    17    16    1
     6     4     3    2
     7    16    19    1
     8     1     2    1
     9    46    47    2
    10    46    45    1
    11    11    10    1
    12    25    24    2
    13     3     2    1
    14    21    20    1
    15    22    23    1
    16     2     5    1
    17    45    44    1
    18    45    48    1
    19    53    54    1
    20    19    20    1
    21    24    23    1
    22     9    10    1
    23    10    13    1
    24    23    26    1
    25     5     6    1
    26    14    13    1
    27    56    55    2
    28    49    48    1
    29    49    50    1
    30    26    27    1
    31    54    55    1
    32    54    57    1
    33    59    58   ar
    34     6     7    1
    35    28    27   ar
    36    28    30   ar
    37    51    50    1
    38    51    52    1
    39    38    39    2
    40    38    37    1
    41    27    29   ar
    42    57    58    1
    43    58    60   ar
    44    30    31   ar
    45    37    36    1
    46    37    40    1
    47    42    40    1
    48     7     8    1
    49    67    66    1
    50    29    31   ar
    51    29    32   ar
    52    40    41    1
    53    31    33   ar
    54    66    65    1
    55    66    68    1
    56    61    62    1
    57    41    43    1
    58    32    34   ar
    59    65    62    1
    60    89    90    1
    61   113   111    1
    62    62    63    1
    63    33    35   ar
    64    96    94    1
    65    34    35   ar
    66    92    91    2
    67    94    93    1
    68    63    64    2
    69   111   110    1
    70    90    93    1
    71    90    91    1
    72    93    95    1
    73   200   198   ar
    74    91    97   am
    75   204   203    2
    76   199   198   ar
    77   198   197    1
    78   110   112    1
    79   110   107    1
    80   129   128    1
    81   203   202    1
    82    75    74   ar
    83    97    98    1
    84   157   155   ar
    85   202   201    1
    86   106   107    1
    87   106    99   am
    88    74    76   ar
    89    74    73    1
    90    98    99    1
    91    98   101    1
    92   107   108    1
    93   197   194    1
    94    99   100    2
    95   128   127    1
    96    73    70    1
    97   155   154    1
    98   155   156   ar
    99    69    70    1
   100   165   163   am
   101   194   195    1
   102   194   193    1
   103   154   151    1
   104   192   190    1
   105   108   109    2
   106   108   114   am
   107   101   102    1
   108    70    71    1
   109   196   195    2
   110   127   126    1
   111   164   163    2
   112   149   147    1
   113   163   162    1
   114   153   152    2
   115   193   187   am
   116   148   147    1
   117   102   103    1
   118    71    72    2
   119   114   115    1
   120   152   151    1
   121   152   158   am
   122   151   150    1
   123    85    83   ar
   124    85    87   ar
   125   190   189    1
   126   147   144    1
   127    83    82   ar
   128   126   125    1
   129   189   191    1
   130   189   186    1
   131   141   140    2
   132   173   172    1
   133   117   116    2
   134   172   171    1
   135   187   188    2
   136   187   186    1
   137    88    87    1
   138   158   159    1
   139   162   159    1
   140   159   160    1
   141    87    86   ar
   142   116   115    1
   143   116   121   am
   144   143   144    1
   145   103   105   ar
   146   103   104   ar
   147   115   118    1
   148   122   121    1
   149   122   125    1
   150   122   123    1
   151   186   185    1
   152   144   145    1
   153    82    81    1
   154    82    84   ar
   155   140   139    1
   156   130   123   am
   157   130   131    1
   158    80    79    2
   159   171   170    1
   160    79    78    1
   161    81    78    1
   162   160   161    2
   163    86    84   ar
   164   146   145    2
   165   138   139    1
   166   138   132   am
   167   123   124    2
   168   136   135   ar
   169   118   120    1
   170   118   119    1
   171   131   132    1
   172   131   134    1
   173   139   142    1
   174    78    77    1
   175   132   133    2
   176   135   134    1
   177   135   137   ar
   178   170   167    1
   179   182   184   ar
   180   182   180   ar
   181   184   183   ar
   182   167   166    1
   183   167   168    1
   184   180   179   ar
   185   183   181   ar
   186   177   176    2
   187   168   169    2
   188   179   181   ar
   189   179   178    1
   190   176   175    1
   191   178   175    1
   192   175   174    1
