@<TRIPOS>MOLECULE
tmp/3qk1A00.pdb
 125 125 0 0 0
SMALL
GASTEIGER

@<TRIPOS>ATOM
      1  N         22.1860   39.6710   14.5500 N.3    40  HIS40      -0.1241
      2  CA        21.1060   39.5820   15.5000 C.3    40  HIS40       0.1621
      3  C         21.0990   38.2780   16.3450 C.2    40  HIS40       0.2264
      4  O         20.3520   38.2010   17.3250 O.2    40  HIS40      -0.2867
      5  CB        19.7440   39.9470   14.8780 C.3    40  HIS40       0.0745
      6  CG        19.0300   38.8160   14.2070 C.ar   40  HIS40       0.0817
      7  ND1       19.0760   38.6200   12.8390 N.ar   40  HIS40      -0.2268
      8  CD2       18.1670   37.8870   14.6980 C.ar   40  HIS40       0.1154
      9  CE1       18.3150   37.5830   12.5230 C.ar   40  HIS40       0.1986
     10  NE2       17.7420   37.1260   13.6300 N.ar   40  HIS40      -0.2212
     11  N          9.2530   29.8110    2.7880 N.3   171  ASP171     -0.1225
     12  CA        10.1130   30.8270    3.3660 C.3   171  ASP171      0.1805
     13  C         11.0340   30.2050    4.4210 C.2   171  ASP171      0.2598
     14  O         10.8080   29.0940    4.8690 O.2   171  ASP171     -0.2718
     15  CB         9.2470   31.8800    4.0540 C.3   171  ASP171      0.1424
     16  CG         9.8590   33.2530    4.0470 C.2   171  ASP171      0.3668
     17  OD1       11.0480   33.4440    3.6820 O.co2 171  ASP171     -0.2456
     18  OD2        9.1350   34.1620    4.4620 O.co2 171  ASP171     -0.2456
     19  N         12.0490   30.9460    4.8180 N.am  172  SER172     -0.1938
     20  CA        12.6750   30.7130    6.1100 C.3   172  SER172      0.2055
     21  C         11.8500   31.3950    7.2020 C.2   172  SER172      0.2643
     22  O         10.9550   32.1880    6.9090 O.2   172  SER172     -0.2714
     23  CB        14.1190   31.2150    6.0970 C.3   172  SER172      0.2130
     24  OG        14.1640   32.5850    5.8140 O.3   172  SER172     -0.2179
     25  N         12.1650   31.1180    8.4660 N.am  173  CYS173     -0.1953
     26  CA        11.3540   31.6510    9.5500 C.3   173  CYS173      0.1843
     27  C         12.1720   31.7830   10.8480 C.2   173  CYS173      0.2625
     28  O         13.4050   31.6160   10.8570 O.2   173  CYS173     -0.2714
     29  CB        10.1150   30.7500    9.7270 C.3   173  CYS173      0.0997
     30  SG         8.6770   31.4470   10.6580 S.3   173  CYS173     -0.0797
     31  N         11.4810   32.1250   11.9310 N.am  174  GLN174     -0.1977
     32  CA        12.1260   32.2870   13.2420 C.3   174  GLN174      0.1601
     33  C         12.9180   31.0060   13.5760 C.2   174  GLN174      0.2287
     34  O         12.4190   29.9210   13.3910 O.2   174  GLN174     -0.2864
     35  CB        11.0370   32.5430   14.3040 C.3   174  GLN174      0.0394
     36  CG        11.5520   33.0950   15.6370 C.3   174  GLN174      0.0908
     37  CD        10.5450   32.9130   16.7870 C.2   174  GLN174      0.2608
     38  OE1        9.3340   32.8350   16.5620 O.2   174  GLN174     -0.2717
     39  NE2       11.0530   32.8350   18.0230 N.am  174  GLN174     -0.0878
     40  N         17.3520   31.9980   11.4160 N.3   177  SER177     -0.1217
     41  CA        18.2380   33.1480   11.4050 C.3   177  SER177      0.1889
     42  C         19.6840   32.7480   11.5710 C.2   177  SER177      0.2288
     43  O         19.9850   31.9220   12.4340 O.2   177  SER177     -0.2866
     44  CB        17.8780   34.0950   12.5640 C.3   177  SER177      0.2089
     45  OG        16.6350   34.7340   12.3040 O.3   177  SER177     -0.2183
     46  N         20.3140   34.0380    6.5900 N.3   191  VAL191     -0.1231
     47  CA        18.8920   34.3070    6.9600 C.3   191  VAL191      0.1692
     48  C         18.8630   35.5020    7.9400 C.2   191  VAL191      0.2593
     49  O         19.5130   35.4420    8.9850 O.2   191  VAL191     -0.2718
     50  CB        18.2080   33.0720    7.5980 C.3   191  VAL191      0.0266
     51  CG1       16.7650   33.3480    7.8610 C.3   191  VAL191      0.0020
     52  CG2       18.3800   31.8000    6.7040 C.3   191  VAL191      0.0020
     53  N         18.1580   36.5800    7.5810 N.am  192  SER192     -0.1938
     54  CA        18.1960   37.8280    8.3310 C.3   192  SER192      0.2055
     55  C         16.8230   38.2100    8.8570 C.2   192  SER192      0.2643
     56  O         16.6250   38.2180   10.0730 O.2   192  SER192     -0.2714
     57  CB        18.7210   38.9700    7.4730 C.3   192  SER192      0.2130
     58  OG        19.0880   40.1020    8.2780 O.3   192  SER192     -0.2179
     59  N         15.8820   38.5470    7.9620 N.am  193  TRP193     -0.1959
     60  CA        14.5840   39.0650    8.4170 C.3   193  TRP193      0.1771
     61  C         13.4940   38.9170    7.3710 C.2   193  TRP193      0.2620
     62  O         13.7500   38.4940    6.2340 O.2   193  TRP193     -0.2715
     63  CB        14.7000   40.5370    8.8850 C.3   193  TRP193      0.0590
     64  CG        15.0140   41.5930    7.7880 C.ar  193  TRP193      0.0006
     65  CD1       16.2430   41.9680    7.3460 C.ar  193  TRP193      0.0946
     66  CD2       14.0650   42.4450    7.0890 C.ar  193  TRP193      0.0152
     67  NE1       16.1310   42.9660    6.4000 N.ar  193  TRP193     -0.2442
     68  CE2       14.8060   43.2770    6.2270 C.ar  193  TRP193      0.0810
     69  CE3       12.6640   42.5810    7.1260 C.ar  193  TRP193      0.0012
     70  CZ2       14.1910   44.2500    5.3900 C.ar  193  TRP193      0.0191
     71  CZ3       12.0500   43.5310    6.2900 C.ar  193  TRP193      0.0001
     72  CH2       12.8050   44.3470    5.4420 C.ar  193  TRP193      0.0015
     73  N         12.2680   39.2410    7.7750 N.am  194  GLY194     -0.1954
     74  CA        11.1090   39.2040    6.8760 C.3   194  GLY194      0.1869
     75  C          9.8840   39.6190    7.6610 C.2   194  GLY194      0.2309
     76  O          9.9280   39.6710    8.8680 O.2   194  GLY194     -0.2863
     77  N          6.5800   38.5110    9.1450 N.3   196  GLY196     -0.1210
     78  CA         6.0820   37.1440    9.3520 C.3   196  GLY196      0.1956
     79  C          6.9100   36.1130    8.5440 C.2   196  GLY196      0.2612
     80  O          8.0570   36.3760    8.1810 O.2   196  GLY196     -0.2717
     81  N          6.3230   34.9580    8.2350 N.am  197  CYS197     -0.1970
     82  CA         7.0160   33.9390    7.4430 C.3   197  CYS197      0.1712
     83  C          6.0760   33.4110    6.3970 C.2   197  CYS197      0.2296
     84  O          4.9140   33.1540    6.6950 O.2   197  CYS197     -0.2864
     85  CB         7.4220   32.7560    8.3300 C.3   197  CYS197      0.0983
     86  SG         8.3770   33.2500    9.7450 S.3   197  CYS197     -0.0798
     87  N          5.5220   39.0580    0.7860 N.3   202  LYS202     -0.1231
     88  CA         6.5570   39.3570    1.7830 C.3   202  LYS202      0.1678
     89  C          7.6150   38.2400    1.8360 C.2   202  LYS202      0.2434
     90  O          7.4720   37.2760    2.5920 O.2   202  LYS202     -0.2733
     91  CB         5.9020   39.6420    3.1390 C.3   202  LYS202      0.0284
     92  CG         5.1520   41.0430    3.1700 C.3   202  LYS202      0.0035
     93  CD         4.4140   41.1740    4.5070 C.3   202  LYS202      0.0206
     94  CE         3.4230   42.3280    4.5040 C.3   202  LYS202      0.1093
     95  NZ         3.1120   42.7270    5.8990 N.3   202  LYS202     -0.1314
     96  N          8.6550   38.3510    0.9820 N.am  203  PRO203     -0.2718
     97  CA         9.6760   37.2960    0.8520 C.3   203  PRO203      0.1535
     98  C         10.7360   37.4200    1.9650 C.2   203  PRO203      0.2599
     99  O         10.7140   38.3820    2.7420 O.2   203  PRO203     -0.2715
    100  CB        10.2750   37.5740   -0.5340 C.3   203  PRO203      0.0310
    101  CG        10.1740   39.0790   -0.6650 C.3   203  PRO203      0.0237
    102  CD         8.9550   39.5100    0.1130 C.3   203  PRO203      0.0939
    103  N         11.6480   36.4610    2.0720 N.am  204  GLY204     -0.1941
    104  CA        12.6490   36.5590    3.1280 C.3   204  GLY204      0.2014
    105  C         13.7280   37.4990    2.6730 C.2   204  GLY204      0.2639
    106  O         13.9900   37.6220    1.4750 O.2   204  GLY204     -0.2714
    107  N         14.3670   38.1740    3.6190 N.am  205  VAL205     -0.1963
    108  CA        15.4240   39.0990    3.3010 C.3   205  VAL205      0.1727
    109  C         16.7030   38.5600    3.9250 C.2   205  VAL205      0.2616
    110  O         16.6930   37.9760    5.0410 O.2   205  VAL205     -0.2715
    111  CB        15.1060   40.5490    3.8060 C.3   205  VAL205      0.0290
    112  CG1       16.0610   41.5600    3.2040 C.3   205  VAL205      0.0023
    113  CG2       13.6710   40.9410    3.4740 C.3   205  VAL205      0.0023
    114  N         17.8050   38.7160    3.1980 N.am  206  TYR206     -0.1974
    115  CA        19.0120   37.9680    3.5090 C.3   206  TYR206      0.1639
    116  C         20.1690   38.9070    3.4530 C.2   206  TYR206      0.2290
    117  O         20.2080   39.8150    2.5810 O.2   206  TYR206     -0.2864
    118  CB        19.2190   36.8020    2.5020 C.3   206  TYR206      0.0560
    119  CG        18.1060   35.8080    2.5940 C.ar  206  TYR206     -0.0198
    120  CD1       16.9550   35.9160    1.7990 C.ar  206  TYR206     -0.0009
    121  CD2       18.1450   34.8200    3.5540 C.ar  206  TYR206     -0.0009
    122  CE1       15.9420   35.0040    1.9190 C.ar  206  TYR206      0.0417
    123  CE2       17.1460   33.9250    3.6890 C.ar  206  TYR206      0.0417
    124  CZ        16.0350   34.0110    2.8830 C.ar  206  TYR206      0.1957
    125  OH        15.0260   33.1130    3.0720 O.3   206  TYR206     -0.2866
@<TRIPOS>BOND
     1   101   100    1
     2   101   102    1
     3   100    97    1
     4   102    96    1
     5    87    88    1
     6    97    96    1
     7    97    98    1
     8    96    89   am
     9   106   105    2
    10    88    89    1
    11    88    91    1
    12   120   122   ar
    13   120   119   ar
    14    89    90    2
    15   122   124   ar
    16    98   103   am
    17    98    99    2
    18   103   104    1
    19   118   119    1
    20   118   115    1
    21   117   116    2
    22   119   121   ar
    23   105   104    1
    24   105   107   am
    25    11    12    1
    26   124   125    1
    27   124   123   ar
    28    91    92    1
    29    92    93    1
    30   114   115    1
    31   114   109   am
    32   112   111    1
    33   108   107    1
    34   108   111    1
    35   108   109    1
    36    12    15    1
    37    12    13    1
    38   116   115    1
    39   113   111    1
    40   121   123   ar
    41    17    16   ar
    42   109   110    2
    43    16    15    1
    44    16    18   ar
    45    13    19   am
    46    13    14    2
    47    94    93    1
    48    94    95    1
    49    19    20    1
    50    70    72   ar
    51    70    68   ar
    52    72    71   ar
    53    24    23    1
    54    23    20    1
    55    20    21    1
    56    68    67   ar
    57    68    66   ar
    58    62    61    2
    59    71    69   ar
    60    83    84    2
    61    83    82    1
    62    67    65   ar
    63    46    47    1
    64    52    50    1
    65    74    75    1
    66    74    73    1
    67    22    21    2
    68    47    50    1
    69    47    48    1
    70    66    69   ar
    71    66    64   ar
    72    21    25   am
    73    65    64   ar
    74    61    73   am
    75    61    60    1
    76    82    81    1
    77    82    85    1
    78    57    58    1
    79    57    54    1
    80    53    48   am
    81    53    54    1
    82    50    51    1
    83    75    76    2
    84    64    63    1
    85    48    49    2
    86    59    60    1
    87    59    55   am
    88    80    79    2
    89    81    79   am
    90    85    86    1
    91    54    55    1
    92    60    63    1
    93    25    26    1
    94    79    78    1
    95    55    56    2
    96    77    78    1
    97    26    29    1
    98    26    27    1
    99    29    30    1
   100    86    30    1
   101    27    28    2
   102    27    31   am
   103    41    40    1
   104    41    42    1
   105    41    44    1
   106    42    43    2
   107    31    32    1
   108    45    44    1
   109     9     7   ar
   110     9    10   ar
   111     7     6   ar
   112    32    33    1
   113    32    35    1
   114    34    33    2
   115    10     8   ar
   116     6     8   ar
   117     6     5    1
   118    35    36    1
   119     1     2    1
   120     5     2    1
   121     2     3    1
   122    36    37    1
   123     3     4    2
   124    38    37    2
   125    37    39   am
