@<TRIPOS>MOLECULE
tmp/3qk5A00.pdb
 206 196 0 0 0
SMALL
GASTEIGER

@<TRIPOS>ATOM
      1  N        -13.8960  -11.0740    0.4730 N.3   163  MET163     -0.1230
      2  CA       -12.5770  -10.4400    0.2570 C.3   163  MET163      0.1702
      3  C        -12.5630   -9.1760   -0.6220 C.2   163  MET163      0.2592
      4  O        -11.5010   -8.5740   -0.8210 O.2   163  MET163     -0.2718
      5  CB       -11.5370  -11.4550   -0.2480 C.3   163  MET163      0.0401
      6  CG       -11.3110  -12.6350    0.6870 C.3   163  MET163      0.0596
      7  SD        -9.8210  -13.5690    0.2940 S.3   163  MET163     -0.1393
      8  CE       -10.2150  -14.2310   -1.3280 C.3   163  MET163      0.0692
      9  N        -13.7210   -8.7610   -1.1400 N.am  164  LEU164     -0.1966
     10  CA       -13.7710   -7.5250   -1.9280 C.3   164  LEU164      0.1728
     11  C        -13.9920   -6.3090   -1.0280 C.2   164  LEU164      0.2617
     12  O        -15.0160   -5.6300   -1.1210 O.2   164  LEU164     -0.2715
     13  CB       -14.8240   -7.5710   -3.0480 C.3   164  LEU164      0.0311
     14  CG       -14.8170   -8.5710   -4.2170 C.3   164  LEU164      0.0022
     15  CD1      -15.1600   -7.8300   -5.5170 C.3   164  LEU164      0.0001
     16  CD2      -13.5360   -9.3910   -4.3920 C.3   164  LEU164      0.0001
     17  N        -13.0080   -6.0430   -0.1700 N.am  165  SER165     -0.1936
     18  CA       -13.0840   -4.9920    0.8360 C.3   165  SER165      0.2055
     19  C        -11.7090   -4.7590    1.4400 C.2   165  SER165      0.2643
     20  O        -10.9040   -5.6920    1.5220 O.2   165  SER165     -0.2714
     21  CB       -14.0410   -5.4140    1.9530 C.3   165  SER165      0.2130
     22  OG       -13.9560   -4.5310    3.0630 O.3   165  SER165     -0.2179
     23  N        -11.4390   -3.5270    1.8730 N.am  166  PHE166     -0.1973
     24  CA       -10.2560   -3.2910    2.7110 C.3   166  PHE166      0.1639
     25  C        -10.5910   -3.0040    4.1850 C.2   166  PHE166      0.2290
     26  O         -9.8230   -2.3650    4.9050 O.2   166  PHE166     -0.2864
     27  CB        -9.2370   -2.3170    2.0780 C.3   166  PHE166      0.0560
     28  CG        -9.6810   -0.8700    2.0150 C.ar  166  PHE166     -0.0200
     29  CD1       -9.1650    0.0660    2.9120 C.ar  166  PHE166     -0.0042
     30  CD2      -10.5470   -0.4300    1.0180 C.ar  166  PHE166     -0.0042
     31  CE1       -9.5380    1.4130    2.8460 C.ar  166  PHE166     -0.0003
     32  CE2      -10.9300    0.9100    0.9410 C.ar  166  PHE166     -0.0003
     33  CZ       -10.4210    1.8330    1.8580 C.ar  166  PHE166     -0.0000
     34  N         -5.1050   -8.0180   -4.6450 N.3   210  ILE210     -0.1231
     35  CA        -5.6010   -7.7200   -5.9910 C.3   210  ILE210      0.1692
     36  C         -5.9970   -6.2320   -6.1310 C.2   210  ILE210      0.2593
     37  O         -6.1300   -5.7170   -7.2470 O.2   210  ILE210     -0.2718
     38  CB        -6.7560   -8.6730   -6.3990 C.3   210  ILE210      0.0266
     39  CG1       -7.0640   -8.5660   -7.9020 C.3   210  ILE210      0.0019
     40  CG2       -8.0030   -8.4250   -5.5440 C.3   210  ILE210      0.0020
     41  CD1       -8.1190   -9.5620   -8.4110 C.3   210  ILE210      0.0001
     42  N         -6.1720   -5.5550   -4.9950 N.am  211  GLY211     -0.1942
     43  CA        -6.4730   -4.1160   -4.9460 C.3   211  GLY211      0.2014
     44  C         -5.7510   -3.3880   -3.8090 C.2   211  GLY211      0.2639
     45  O         -5.9130   -2.1710   -3.6330 O.2   211  GLY211     -0.2714
     46  N         -4.9610   -4.1350   -3.0340 N.am  212  GLY212     -0.1939
     47  CA        -4.2550   -3.5860   -1.8790 C.3   212  GLY212      0.2014
     48  C         -4.2940   -4.4410   -0.6220 C.2   212  GLY212      0.2639
     49  O         -3.7900   -4.0250    0.4230 O.2   212  GLY212     -0.2714
     50  N         -4.8590   -5.6450   -0.7360 N.am  213  SER213     -0.1949
     51  CA        -5.1810   -6.4930    0.4170 C.3   213  SER213      0.1924
     52  C         -4.0050   -7.0120    1.2580 C.2   213  SER213      0.2314
     53  O         -4.2270   -7.5640    2.3310 O.2   213  SER213     -0.2863
     54  CB        -6.0640   -7.6710   -0.0080 C.3   213  SER213      0.2116
     55  OG        -7.3760   -7.2390   -0.3430 O.3   213  SER213     -0.2180
     56  N         -2.7710   -2.6780    2.6110 N.3   216  PHE216     -0.1241
     57  CA        -3.6800   -2.0040    3.5600 C.3   216  PHE216      0.1605
     58  C         -3.5170   -2.4990    5.0090 C.2   216  PHE216      0.2264
     59  O         -3.2500   -1.6890    5.9050 O.2   216  PHE216     -0.2867
     60  CB        -5.1480   -2.1310    3.1380 C.3   216  PHE216      0.0534
     61  CG        -5.5680   -1.1910    2.0400 C.ar  216  PHE216     -0.0203
     62  CD1       -5.5910    0.1910    2.2460 C.ar  216  PHE216     -0.0042
     63  CD2       -5.9960   -1.6910    0.8130 C.ar  216  PHE216     -0.0042
     64  CE1       -6.0070    1.0580    1.2360 C.ar  216  PHE216     -0.0003
     65  CE2       -6.4120   -0.8340   -0.2080 C.ar  216  PHE216     -0.0003
     66  CZ        -6.4160    0.5460    0.0030 C.ar  216  PHE216     -0.0000
     67  N        -11.2710   -0.8010  -12.2860 N.3   349  ALA349     -0.1245
     68  CA       -12.6860   -1.0610  -12.0080 C.3   349  ALA349      0.1562
     69  C        -13.3160   -1.9040  -13.1110 C.2   349  ALA349      0.2260
     70  O        -14.0230   -2.8640  -12.8270 O.2   349  ALA349     -0.2867
     71  CB       -13.4430    0.2380  -11.8300 C.3   349  ALA349      0.0290
     72  N        -12.0090   -5.5210  -12.9950 N.3   352  LEU352     -0.1231
     73  CA       -12.5250   -6.2800  -11.8600 C.3   352  LEU352      0.1693
     74  C        -14.0210   -6.6140  -11.9790 C.2   352  LEU352      0.2592
     75  O        -14.4780   -7.6170  -11.4270 O.2   352  LEU352     -0.2718
     76  CB       -12.2260   -5.5470  -10.5460 C.3   352  LEU352      0.0284
     77  CG       -10.7340   -5.3760  -10.2050 C.3   352  LEU352      0.0019
     78  CD1      -10.5110   -4.2630   -9.1770 C.3   352  LEU352      0.0001
     79  CD2      -10.0910   -6.6760   -9.7320 C.3   352  LEU352      0.0001
     80  N        -14.7690   -5.7860  -12.7090 N.am  353  PHE353     -0.1976
     81  CA       -16.2160   -5.9670  -12.8360 C.3   353  PHE353      0.1639
     82  C        -16.6850   -6.0270  -14.2870 C.2   353  PHE353      0.2290
     83  O        -17.7710   -5.5540  -14.6210 O.2   353  PHE353     -0.2864
     84  CB       -16.9600   -4.8640  -12.0750 C.3   353  PHE353      0.0560
     85  CG       -16.6260   -4.8080  -10.6130 C.ar  353  PHE353     -0.0200
     86  CD1      -17.2550   -5.6590   -9.7090 C.ar  353  PHE353     -0.0042
     87  CD2      -15.6740   -3.9060  -10.1350 C.ar  353  PHE353     -0.0042
     88  CE1      -16.9470   -5.6120   -8.3470 C.ar  353  PHE353     -0.0003
     89  CE2      -15.3550   -3.8530   -8.7740 C.ar  353  PHE353     -0.0003
     90  CZ       -15.9910   -4.7080   -7.8810 C.ar  353  PHE353     -0.0000
     91  N        -19.0630   -4.0750    3.6750 N.3   373  LEU373     -0.1245
     92  CA       -19.0870   -3.9880    2.2180 C.3   373  LEU373      0.1561
     93  C        -19.8140   -2.7290    1.7280 C.2   373  LEU373      0.2260
     94  O        -19.7790   -2.4110    0.5380 O.2   373  LEU373     -0.2867
     95  CB       -19.7450   -5.2430    1.6340 C.3   373  LEU373      0.0270
     96  CG       -18.9130   -6.4660    1.2110 C.3   373  LEU373      0.0019
     97  CD1      -17.6040   -6.6430    1.9760 C.3   373  LEU373      0.0001
     98  CD2      -19.7710   -7.7330    1.2880 C.3   373  LEU373      0.0001
     99  N        -22.3110   -0.3290    0.1840 N.3   375  ASP375     -0.1225
    100  CA       -23.3320   -0.4120   -0.8690 C.3   375  ASP375      0.1805
    101  C        -22.8950   -1.1650   -2.1390 C.2   375  ASP375      0.2597
    102  O        -23.5920   -1.1220   -3.1560 O.2   375  ASP375     -0.2718
    103  CB       -23.8390    0.9940   -1.2280 C.3   375  ASP375      0.1424
    104  CG       -24.6890    1.6160   -0.1250 C.2   375  ASP375      0.3668
    105  OD1      -25.4440    0.8780    0.5460 O.co2 375  ASP375     -0.2456
    106  OD2      -24.6110    2.8490    0.0660 O.co2 375  ASP375     -0.2456
    107  N        -21.7630   -1.8640   -2.0730 N.am  376  LEU376     -0.1979
    108  CA       -21.2300   -2.5950   -3.2330 C.3   376  LEU376      0.1596
    109  C        -22.2140   -3.6040   -3.8360 C.2   376  LEU376      0.2287
    110  O        -22.3470   -3.6920   -5.0560 O.2   376  LEU376     -0.2864
    111  CB       -19.9030   -3.2890   -2.8940 C.3   376  LEU376      0.0297
    112  CG       -19.2440   -4.1010   -4.0250 C.3   376  LEU376      0.0022
    113  CD1      -18.9020   -3.2200   -5.2220 C.3   376  LEU376      0.0001
    114  CD2      -18.0050   -4.8520   -3.5390 C.3   376  LEU376      0.0001
    115  N        -25.2220   -1.7980   -5.4000 N.3   379  ILE379     -0.1245
    116  CA       -24.8330   -1.1460   -6.6490 C.3   379  ILE379      0.1561
    117  C        -24.6760   -2.1360   -7.8070 C.2   379  ILE379      0.2260
    118  O        -25.2000   -1.8980   -8.8970 O.2   379  ILE379     -0.2867
    119  CB       -23.5640   -0.2760   -6.4610 C.3   379  ILE379      0.0252
    120  CG1      -23.9530    1.0560   -5.8170 C.3   379  ILE379      0.0019
    121  CG2      -22.8530   -0.0180   -7.7930 C.3   379  ILE379      0.0019
    122  CD1      -22.9080    1.6160   -4.8840 C.3   379  ILE379      0.0001
    123  N        -24.7490   11.7150  -12.6060 N.3   394  LEU394     -0.1245
    124  CA       -23.6650   11.9420  -11.6450 C.3   394  LEU394      0.1561
    125  C        -22.4400   12.6340  -12.2400 C.2   394  LEU394      0.2260
    126  O        -21.6710   13.2580  -11.5070 O.2   394  LEU394     -0.2867
    127  CB       -23.2360   10.6170  -10.9980 C.3   394  LEU394      0.0270
    128  CG       -23.7630   10.1870   -9.6200 C.3   394  LEU394      0.0019
    129  CD1      -25.1910   10.6520   -9.3350 C.3   394  LEU394      0.0001
    130  CD2      -23.6520    8.6740   -9.4740 C.3   394  LEU394      0.0001
    131  N        -17.5750    9.1060   -9.0690 N.3   401  LEU401     -0.1245
    132  CA       -18.6970    8.2070   -8.8290 C.3   401  LEU401      0.1561
    133  C        -19.3010    7.7190  -10.1450 C.2   401  LEU401      0.2260
    134  O        -19.6540    6.5470  -10.2790 O.2   401  LEU401     -0.2867
    135  CB       -19.7640    8.9090   -7.9780 C.3   401  LEU401      0.0270
    136  CG       -19.7110    8.9020   -6.4420 C.3   401  LEU401      0.0019
    137  CD1      -18.3040    8.9790   -5.8430 C.3   401  LEU401      0.0001
    138  CD2      -20.5870   10.0250   -5.8900 C.3   401  LEU401      0.0001
    139  N        -16.6880    5.1670  -12.0270 N.3   404  PHE404     -0.1227
    140  CA       -16.7050    3.8650  -11.3630 C.3   404  PHE404      0.1736
    141  C        -18.0050    3.1070  -11.6520 C.2   404  PHE404      0.2595
    142  O        -17.9760    1.9140  -11.9510 O.2   404  PHE404     -0.2718
    143  CB       -16.4960    4.0130   -9.8520 C.3   404  PHE404      0.0547
    144  CG       -15.0680    3.8100   -9.4060 C.ar  404  PHE404     -0.0202
    145  CD1      -14.1500    4.8600   -9.4480 C.ar  404  PHE404     -0.0042
    146  CD2      -14.6440    2.5690   -8.9360 C.ar  404  PHE404     -0.0042
    147  CE1      -12.8270    4.6790   -9.0340 C.ar  404  PHE404     -0.0003
    148  CE2      -13.3260    2.3750   -8.5250 C.ar  404  PHE404     -0.0003
    149  CZ       -12.4160    3.4370   -8.5720 C.ar  404  PHE404     -0.0000
    150  N        -19.1360    3.8070  -11.5780 N.am  405  LEU405     -0.1980
    151  CA       -20.4400    3.1880  -11.8210 C.3   405  LEU405      0.1596
    152  C        -20.5790    2.6900  -13.2640 C.2   405  LEU405      0.2287
    153  O        -21.0590    1.5800  -13.4950 O.2   405  LEU405     -0.2864
    154  CB       -21.5800    4.1480  -11.4630 C.3   405  LEU405      0.0297
    155  CG       -23.0220    3.6210  -11.5560 C.3   405  LEU405      0.0022
    156  CD1      -23.2560    2.4220  -10.6470 C.3   405  LEU405      0.0001
    157  CD2      -24.0230    4.7280  -11.2260 C.3   405  LEU405      0.0001
    158  N        -18.6590   -0.5130  -13.9230 N.3   408  MET408     -0.1245
    159  CA       -19.1780   -1.6850  -13.2220 C.3   408  MET408      0.1570
    160  C        -20.4050   -2.2700  -13.9370 C.2   408  MET408      0.2261
    161  O        -21.1960   -3.0110  -13.3450 O.2   408  MET408     -0.2867
    162  CB       -19.4600   -1.3530  -11.7510 C.3   408  MET408      0.0387
    163  CG       -18.1800   -1.1170  -10.9310 C.3   408  MET408      0.0595
    164  SD       -18.4270   -0.1270   -9.4370 S.3   408  MET408     -0.1393
    165  CE       -18.8940   -1.3860   -8.2590 C.3   408  MET408      0.0692
    166  N        -15.5050    0.5600    3.1760 N.3   457  GLY457     -0.1225
    167  CA       -16.5270    0.2440    2.1750 C.3   457  GLY457      0.1811
    168  C        -17.2870    1.4630    1.6780 C.2   457  GLY457      0.2280
    169  O        -18.0760    1.3760    0.7280 O.2   457  GLY457     -0.2866
    170  N        -14.2310    4.2660   -1.2730 N.3   460  THR460     -0.1218
    171  CA       -13.6170    3.5130   -2.3720 C.3   460  THR460      0.1862
    172  C        -12.4730    4.2550   -3.0710 C.2   460  THR460      0.2287
    173  O        -11.4680    3.6430   -3.4320 O.2   460  THR460     -0.2866
    174  CB       -14.6910    3.0340   -3.3890 C.3   460  THR460      0.1770
    175  OG1      -15.5910    2.1450   -2.7230 O.3   460  THR460     -0.2211
    176  CG2      -14.0690    2.2770   -4.5550 C.3   460  THR460      0.0375
    177  N         -8.5460    3.6070   -2.5590 N.3   463  ILE463     -0.1245
    178  CA        -7.7630    2.4800   -3.0810 C.3   463  ILE463      0.1561
    179  C         -6.7670    2.9260   -4.1570 C.2   463  ILE463      0.2260
    180  O         -5.9890    2.1160   -4.6630 O.2   463  ILE463     -0.2867
    181  CB        -8.6550    1.3240   -3.6410 C.3   463  ILE463      0.0252
    182  CG1       -9.3480    1.7470   -4.9470 C.3   463  ILE463      0.0019
    183  CG2       -9.6380    0.8380   -2.5810 C.3   463  ILE463      0.0019
    184  CD1      -10.0110    0.6000   -5.7060 C.3   463  ILE463      0.0001
    185  N        -18.8860   12.0810   -1.7950 N.3   502  ILE502     -0.1231
    186  CA       -19.1550   11.2650   -0.6060 C.3   502  ILE502      0.1692
    187  C        -17.9290   10.4940   -0.1030 C.2   502  ILE502      0.2592
    188  O        -17.7870   10.2760    1.1000 O.2   502  ILE502     -0.2718
    189  CB       -20.3460   10.2850   -0.8260 C.3   502  ILE502      0.0266
    190  CG1      -20.1300    9.4150   -2.0770 C.3   502  ILE502      0.0019
    191  CG2      -21.6620   11.0670   -0.9080 C.3   502  ILE502      0.0020
    192  CD1      -21.1250    8.2620   -2.2330 C.3   502  ILE502      0.0001
    193  N        -17.0550   10.0870   -1.0230 N.am  503  TRP503     -0.1976
    194  CA       -15.8470    9.3460   -0.6630 C.3   503  TRP503      0.1640
    195  C        -14.8460   10.2080    0.1010 C.2   503  TRP503      0.2290
    196  O        -14.2430    9.7460    1.0750 O.2   503  TRP503     -0.2864
    197  CB       -15.1820    8.7340   -1.8990 C.3   503  TRP503      0.0576
    198  CG       -15.9770    7.6440   -2.5450 C.ar  503  TRP503      0.0006
    199  CD1      -17.0140    6.9320   -1.9910 C.ar  503  TRP503      0.0946
    200  CD2      -15.7840    7.1120   -3.8600 C.ar  503  TRP503      0.0152
    201  NE1      -17.4840    6.0050   -2.8920 N.ar  503  TRP503     -0.2442
    202  CE2      -16.7460    6.0920   -4.0450 C.ar  503  TRP503      0.0810
    203  CE3      -14.8950    7.4020   -4.9050 C.ar  503  TRP503      0.0012
    204  CZ2      -16.8440    5.3620   -5.2330 C.ar  503  TRP503      0.0191
    205  CZ3      -14.9950    6.6730   -6.0890 C.ar  503  TRP503      0.0001
    206  CH2      -15.9620    5.6630   -6.2390 C.ar  503  TRP503      0.0015
@<TRIPOS>BOND
     1    83    82    2
     2    82    81    1
     3   160   161    2
     4   160   159    1
     5   158   159    1
     6   153   152    2
     7   152   151    1
     8   159   162    1
     9    69    70    2
    10    69    68    1
    11    72    73    1
    12    81    80    1
    13    81    84    1
    14    80    74   am
    15   123   124    1
    16    67    68    1
    17   125   124    1
    18   125   126    2
    19    84    85    1
    20   139   140    1
    21    68    71    1
    22    74    73    1
    23    74    75    2
    24   142   141    2
    25    73    76    1
    26   151   150    1
    27   151   154    1
    28   162   163    1
    29   141   150   am
    30   141   140    1
    31   124   127    1
    32   155   154    1
    33   155   157    1
    34   155   156    1
    35   140   143    1
    36   127   128    1
    37   163   164    1
    38    85    87   ar
    39    85    86   ar
    40    76    77    1
    41   134   133    2
    42    77    79    1
    43    77    78    1
    44   133   132    1
    45    87    89   ar
    46   143   144    1
    47    86    88   ar
    48   128   130    1
    49   128   129    1
    50   145   144   ar
    51   145   147   ar
    52   164   165    1
    53   144   146   ar
    54   131   132    1
    55   147   149   ar
    56   146   148   ar
    57   118   117    2
    58   132   135    1
    59    89    90   ar
    60   149   148   ar
    61    41    39    1
    62    88    90   ar
    63   135   136    1
    64    39    38    1
    65   117   116    1
    66   121   119    1
    67    37    36    2
    68   116   119    1
    69   116   115    1
    70   119   120    1
    71   136   138    1
    72   136   137    1
    73    38    35    1
    74    38    40    1
    75   206   205   ar
    76   206   204   ar
    77    36    35    1
    78    36    42   am
    79   205   203   ar
    80    35    34    1
    81   120   122    1
    82   184   182    1
    83    15    14    1
    84   204   202   ar
    85   113   112    1
    86   110   109    2
    87    42    43    1
    88   182   181    1
    89    43    44    1
    90   203   200   ar
    91   180   179    2
    92   176   174    1
    93    16    14    1
    94    14    13    1
    95   179   178    1
    96   202   200   ar
    97   202   201   ar
    98   112   114    1
    99   112   111    1
   100   200   198   ar
   101   109   108    1
   102    44    45    2
   103    44    46   am
   104   181   178    1
   105   181   183    1
   106   173   172    2
   107   174   175    1
   108   174   171    1
   109   108   111    1
   110   108   107    1
   111   102   101    2
   112   178   177    1
   113   172   171    1
   114    13    10    1
   115    46    47    1
   116   201   199   ar
   117   198   199   ar
   118   198   197    1
   119   171   170    1
   120   192   190    1
   121   101   107   am
   122   101   100    1
   123   190   189    1
   124    10     9    1
   125    10    11    1
   126   197   194    1
   127    47    48    1
   128   185   186    1
   129     8     7    1
   130   103   100    1
   131   103   104    1
   132     9     3   am
   133    12    11    2
   134    11    17   am
   135   193   194    1
   136   193   187   am
   137   191   189    1
   138   100    99    1
   139   189   186    1
   140     4     3    2
   141    50    48   am
   142    50    51    1
   143   194   195    1
   144     3     2    1
   145    48    49    2
   146   186   187    1
   147    55    54    1
   148     5     2    1
   149     5     6    1
   150    65    66   ar
   151    65    63   ar
   152    17    18    1
   153   104   106   ar
   154   104   105   ar
   155   187   188    2
   156    54    51    1
   157    66    64   ar
   158   195   196    2
   159     2     1    1
   160     7     6    1
   161    51    52    1
   162    94    93    2
   163   169   168    2
   164    63    61   ar
   165    18    19    1
   166    18    21    1
   167    32    30   ar
   168    32    33   ar
   169    30    28   ar
   170    96    98    1
   171    96    95    1
   172    96    97    1
   173    64    62   ar
   174    52    53    2
   175    19    20    2
   176    19    23   am
   177    95    92    1
   178   168   167    1
   179    93    92    1
   180    33    31   ar
   181    23    24    1
   182    21    22    1
   183    28    27    1
   184    28    29   ar
   185    61    62   ar
   186    61    60    1
   187    27    24    1
   188   167   166    1
   189    92    91    1
   190    56    57    1
   191    24    25    1
   192    31    29   ar
   193    60    57    1
   194    57    58    1
   195    25    26    2
   196    58    59    2
