@<TRIPOS>MOLECULE
tmp/3qk8D00.pdb
 119 110 0 0 0
SMALL
GASTEIGER

@<TRIPOS>ATOM
      1  N         51.6310   -0.0880   35.5200 N.3    34  HIS34      -0.1241
      2  CA        51.1040    0.9020   34.5630 C.3    34  HIS34       0.1621
      3  C         50.0270    1.7940   35.1870 C.2    34  HIS34       0.2264
      4  O         50.0180    3.0280   34.9880 O.2    34  HIS34      -0.2867
      5  CB        50.5810    0.2030   33.3290 C.3    34  HIS34       0.0745
      6  CG        50.4050    1.1250   32.1590 C.ar   34  HIS34       0.0817
      7  ND1       49.1640    1.5640   31.7490 N.ar   34  HIS34      -0.2268
      8  CD2       51.3130    1.7190   31.3420 C.ar   34  HIS34       0.1154
      9  CE1       49.3190    2.3800   30.7080 C.ar   34  HIS34       0.1986
     10  NE2       50.6080    2.5110   30.4610 N.ar   34  HIS34      -0.2212
     11  N         56.6540   -2.0680   28.5640 N.3    66  GLY66      -0.1225
     12  CA        55.4520   -2.7920   28.8970 C.3    66  GLY66       0.1811
     13  C         55.7110   -4.2870   28.8750 C.2    66  GLY66       0.2280
     14  O         56.3850   -4.7780   27.9620 O.2    66  GLY66      -0.2866
     15  N         50.9470   -7.1560   29.9270 N.3    70  LEU70      -0.1231
     16  CA        50.3060   -5.8540   29.7040 C.3    70  LEU70       0.1693
     17  C         49.8930   -5.6990   28.2270 C.2    70  LEU70       0.2591
     18  O         48.7660   -5.3460   27.9450 O.2    70  LEU70      -0.2718
     19  CB        51.2260   -4.7210   30.1720 C.3    70  LEU70       0.0284
     20  CG        50.6850   -3.2950   29.9560 C.3    70  LEU70       0.0019
     21  CD1       49.3840   -3.0690   30.6950 C.3    70  LEU70       0.0001
     22  CD2       51.7300   -2.2450   30.3310 C.3    70  LEU70       0.0001
     23  N         50.7860   -6.0280   27.2920 N.am   71  ILE71      -0.1980
     24  CA        50.4580   -5.9480   25.8680 C.3    71  ILE71       0.1595
     25  C         49.3770   -6.9220   25.4590 C.2    71  ILE71       0.2287
     26  O         48.5000   -6.5840   24.6690 O.2    71  ILE71      -0.2864
     27  CB        51.7010   -6.0980   24.9450 C.3    71  ILE71       0.0276
     28  CG1       52.8220   -5.1350   25.3420 C.3    71  ILE71       0.0022
     29  CG2       51.2830   -5.9380   23.4920 C.3    71  ILE71       0.0022
     30  CD1       52.4200   -3.6920   25.4190 C.3    71  ILE71       0.0001
     31  N         46.0240   -5.5600   26.4650 N.3    74  THR74      -0.1218
     32  CA        45.7470   -4.4500   25.5720 C.3    74  THR74       0.1862
     33  C         45.2250   -4.9480   24.2210 C.2    74  THR74       0.2287
     34  O         44.2520   -4.4320   23.7000 O.2    74  THR74      -0.2866
     35  CB        47.0030   -3.5710   25.3340 C.3    74  THR74       0.1770
     36  OG1       47.6030   -3.1660   26.5690 O.3    74  THR74      -0.2211
     37  CG2       46.6440   -2.3350   24.5610 C.3    74  THR74       0.0375
     38  N         43.8250    0.8480   29.9830 N.3    84  ILE84      -0.1245
     39  CA        45.2480    1.0030   29.7560 C.3    84  ILE84       0.1561
     40  C         45.5120    2.2980   28.9720 C.2    84  ILE84       0.2260
     41  O         46.4660    3.0230   29.2420 O.2    84  ILE84      -0.2867
     42  CB        45.8060   -0.2580   29.0630 C.3    84  ILE84       0.0252
     43  CG1       45.7510   -1.4140   30.0580 C.3    84  ILE84       0.0019
     44  CG2       47.2500   -0.0520   28.5530 C.3    84  ILE84       0.0019
     45  CD1       45.9040   -2.7920   29.3960 C.3    84  ILE84       0.0001
     46  N         47.7530    5.4210   30.0810 N.3    88  ALA88      -0.1245
     47  CA        48.8420    5.9160   29.2390 C.3    88  ALA88       0.1562
     48  C         48.7080    7.4310   29.0560 C.2    88  ALA88       0.2260
     49  O         49.6950    8.1770   29.1450 O.2    88  ALA88      -0.2867
     50  CB        48.8230    5.1820   27.9170 C.3    88  ALA88       0.0290
     51  N         56.9490    2.2750   27.5610 N.3   113  ALA113     -0.1245
     52  CA        56.2180    2.7440   28.7280 C.3   113  ALA113      0.1562
     53  C         57.0620    3.2440   29.8990 C.2   113  ALA113      0.2260
     54  O         56.7090    4.1850   30.5450 O.2   113  ALA113     -0.2867
     55  CB        55.2180    1.6360   29.2030 C.3   113  ALA113      0.0290
     56  N         58.8500    6.8240   29.0480 N.3   116  VAL116     -0.1245
     57  CA        58.0090    8.0060   29.2800 C.3   116  VAL116      0.1561
     58  C         58.4940    8.7810   30.5130 C.2   116  VAL116      0.2260
     59  O         58.6720   10.0060   30.4940 O.2   116  VAL116     -0.2867
     60  CB        56.5450    7.5970   29.5330 C.3   116  VAL116      0.0252
     61  CG1       55.7130    8.8330   29.9040 C.3   116  VAL116      0.0019
     62  CG2       55.9350    6.8470   28.2910 C.3   116  VAL116      0.0019
     63  N         58.0250    1.6960   19.5970 N.3   136  HIS136     -0.1241
     64  CA        56.6670    1.4130   19.1340 C.3   136  HIS136      0.1621
     65  C         56.5640    0.9110   17.6810 C.2   136  HIS136      0.2264
     66  O         55.9020   -0.0830   17.4160 O.2   136  HIS136     -0.2867
     67  CB        55.7680    2.6190   19.3270 C.3   136  HIS136      0.0745
     68  CG        55.5040    2.9080   20.7750 C.ar  136  HIS136      0.0817
     69  ND1       56.2810    3.7790   21.5110 N.ar  136  HIS136     -0.2268
     70  CD2       54.5690    2.4140   21.6240 C.ar  136  HIS136      0.1154
     71  CE1       55.8520    3.7830   22.7640 C.ar  136  HIS136      0.1986
     72  NE2       54.8240    2.9510   22.8720 N.ar  136  HIS136     -0.2212
     73  N         57.5590   -2.6570   17.4110 N.3   139  LEU139     -0.1245
     74  CA        56.4670   -3.4840   17.9360 C.3   139  LEU139      0.1561
     75  C         55.2670   -3.5660   16.9740 C.2   139  LEU139      0.2260
     76  O         54.5450   -4.5690   16.9290 O.2   139  LEU139     -0.2867
     77  CB        56.0220   -2.9930   19.3020 C.3   139  LEU139      0.0270
     78  CG        54.8430   -3.6350   20.0120 C.3   139  LEU139      0.0019
     79  CD1       55.0990   -5.1380   20.1940 C.3   139  LEU139      0.0001
     80  CD2       54.5220   -2.9030   21.3510 C.3   139  LEU139      0.0001
     81  N         52.7700    7.1050   23.1710 N.3   145  ASP145     -0.1239
     82  CA        52.7540    7.1580   24.6350 C.3   145  ASP145      0.1674
     83  C         53.5280    8.2510   25.2800 C.2   145  ASP145      0.2266
     84  O         53.4980    8.3490   26.5010 O.2   145  ASP145     -0.2867
     85  CB        53.1380    5.7970   25.2490 C.3   145  ASP145      0.1410
     86  CG        54.6190    5.5050   25.2080 C.2   145  ASP145      0.3668
     87  OD1       55.4220    6.2880   24.6870 O.co2 145  ASP145     -0.2456
     88  OD2       55.0230    4.3760   25.7100 O.co2 145  ASP145     -0.2456
     89  N         47.9150    4.9850   18.2140 N.3   234  GLU234     -0.1231
     90  CA        48.5910    3.8450   18.7770 C.3   234  GLU234      0.1699
     91  C         47.5780    2.7830   19.1710 C.2   234  GLU234      0.2592
     92  O         47.7490    1.5810   18.8620 O.2   234  GLU234     -0.2718
     93  CB        49.4630    4.2550   19.9700 C.3   234  GLU234      0.0402
     94  CG        50.0660    3.0180   20.6600 C.3   234  GLU234      0.1161
     95  CD        50.9420    3.2810   21.8610 C.2   234  GLU234      0.3649
     96  OE1       51.3170    4.4310   22.1340 O.co2 234  GLU234     -0.2457
     97  OE2       51.2870    2.2880   22.5670 O.co2 234  GLU234     -0.2457
     98  N         46.5230    3.2200   19.8510 N.am  235  PHE235     -0.1976
     99  CA        45.5410    2.2890   20.3940 C.3   235  PHE235      0.1639
    100  C         44.6360    1.6840   19.3410 C.2   235  PHE235      0.2290
    101  O         44.2570    0.5090   19.4820 O.2   235  PHE235     -0.2864
    102  CB        44.8080    2.8770   21.6230 C.3   235  PHE235      0.0560
    103  CG        45.6010    2.6450   22.8960 C.ar  235  PHE235     -0.0200
    104  CD1       46.7730    3.3250   23.0930 C.ar  235  PHE235     -0.0042
    105  CD2       45.2790    1.6180   23.7780 C.ar  235  PHE235     -0.0042
    106  CE1       47.5880    3.0820   24.2240 C.ar  235  PHE235     -0.0003
    107  CE2       46.0870    1.3510   24.8850 C.ar  235  PHE235     -0.0003
    108  CZ        47.2550    2.0510   25.0940 C.ar  235  PHE235     -0.0000
    109  N         46.4310   -1.4170   18.1980 N.3   238  PHE238     -0.1241
    110  CA        46.5770   -2.5800   19.0620 C.3   238  PHE238      0.1605
    111  C         45.6350   -3.7070   18.6730 C.2   238  PHE238      0.2264
    112  O         45.8610   -4.8370   19.1000 O.2   238  PHE238     -0.2867
    113  CB        46.4680   -2.2750   20.5710 C.3   238  PHE238      0.0534
    114  CG        47.7770   -1.9350   21.2050 C.ar  238  PHE238     -0.0203
    115  CD1       48.7970   -2.8460   21.2110 C.ar  238  PHE238     -0.0042
    116  CD2       48.0090   -0.6610   21.7510 C.ar  238  PHE238     -0.0042
    117  CE1       50.0190   -2.5460   21.7860 C.ar  238  PHE238     -0.0003
    118  CE2       49.2390   -0.3690   22.3060 C.ar  238  PHE238     -0.0003
    119  CZ        50.2350   -1.2890   22.3160 C.ar  238  PHE238     -0.0000
@<TRIPOS>BOND
     1    76    75    2
     2    75    74    1
     3    73    74    1
     4    66    65    2
     5    65    64    1
     6    74    77    1
     7   109   110    1
     8    89    90    1
     9   111   110    1
    10   111   112    2
    11    90    91    1
    12    90    93    1
    13    92    91    2
    14   110   113    1
    15    64    67    1
    16    64    63    1
    17    91    98   am
    18    77    78    1
    19    67    68    1
    20   100   101    2
    21   100    99    1
    22    98    99    1
    23    93    94    1
    24    78    79    1
    25    78    80    1
    26    99   102    1
    27   113   114    1
    28    94    95    1
    29    68    69   ar
    30    68    70   ar
    31   114   115   ar
    32   114   116   ar
    33   115   117   ar
    34    69    71   ar
    35   102   103    1
    36    70    72   ar
    37   116   118   ar
    38   117   119   ar
    39    95    96   ar
    40    95    97   ar
    41   118   119   ar
    42    71    72   ar
    43   103   104   ar
    44   103   105   ar
    45   104   106   ar
    46    81    82    1
    47    29    27    1
    48    34    33    2
    49   105   107   ar
    50    33    32    1
    51   106   108   ar
    52    37    35    1
    53    82    85    1
    54    82    83    1
    55    26    25    2
    56    87    86   ar
    57   107   108   ar
    58    27    28    1
    59    27    24    1
    60    86    85    1
    61    86    88   ar
    62    83    84    2
    63    35    32    1
    64    35    36    1
    65    28    30    1
    66    25    24    1
    67    32    31    1
    68    24    23    1
    69    23    17   am
    70    51    52    1
    71    50    47    1
    72    18    17    2
    73    14    13    2
    74    17    16    1
    75    62    60    1
    76    44    42    1
    77    11    12    1
    78    52    55    1
    79    52    53    1
    80    13    12    1
    81    40    41    2
    82    40    39    1
    83    56    57    1
    84    48    49    2
    85    48    47    1
    86    42    39    1
    87    42    43    1
    88    47    46    1
    89    57    60    1
    90    57    58    1
    91    45    43    1
    92    60    61    1
    93    16    15    1
    94    16    19    1
    95    39    38    1
    96    53    54    2
    97    20    19    1
    98    20    22    1
    99    20    21    1
   100    10     9   ar
   101    10     8   ar
   102    59    58    2
   103     9     7   ar
   104     8     6   ar
   105     7     6   ar
   106     6     5    1
   107     5     2    1
   108     2     3    1
   109     2     1    1
   110     4     3    2
