@<TRIPOS>MOLECULE
tmp/3qk8E00.pdb
 119 110 0 0 0
SMALL
GASTEIGER

@<TRIPOS>ATOM
      1  N         36.6510   26.6930   49.1630 N.3    35  HIS35      -0.1241
      2  CA        37.5250   27.0050   48.0150 C.3    35  HIS35       0.1621
      3  C         38.4980   25.8570   47.7580 C.2    35  HIS35       0.2264
      4  O         38.7270   25.4550   46.5930 O.2    35  HIS35      -0.2867
      5  CB        38.2550   28.3140   48.2540 C.3    35  HIS35       0.0745
      6  CG        38.9320   28.8520   47.0330 C.ar   35  HIS35       0.0817
      7  ND1       40.2880   28.6980   46.7950 N.ar   35  HIS35      -0.2268
      8  CD2       38.4280   29.5310   45.9860 C.ar   35  HIS35       0.1154
      9  CE1       40.5840   29.2800   45.6420 C.ar   35  HIS35       0.1986
     10  NE2       39.4600   29.7370   45.0960 N.ar   35  HIS35      -0.2212
     11  N         33.4000   34.6450   46.3630 N.3    67  GLY67      -0.1225
     12  CA        34.3030   34.5300   47.4990 C.3    67  GLY67       0.1811
     13  C         33.7860   35.2810   48.6870 C.2    67  GLY67       0.2280
     14  O         33.2670   36.3810   48.5650 O.2    67  GLY67      -0.2866
     15  N         37.5930   34.7020   52.7930 N.3    71  LEU71      -0.1231
     16  CA        38.5120   34.2690   51.7300 C.3    71  LEU71       0.1693
     17  C         39.3550   35.4380   51.2910 C.2    71  LEU71       0.2591
     18  O         40.5850   35.3110   51.1950 O.2    71  LEU71      -0.2718
     19  CB        37.7300   33.6890   50.5400 C.3    71  LEU71       0.0284
     20  CG        38.5850   33.0730   49.4250 C.3    71  LEU71       0.0019
     21  CD1       39.2120   31.7820   49.9480 C.3    71  LEU71       0.0001
     22  CD2       37.7640   32.8870   48.1100 C.3    71  LEU71       0.0001
     23  N         38.7130   36.5770   51.0240 N.am   72  ILE72      -0.1980
     24  CA        39.4760   37.7390   50.5150 C.3    72  ILE72       0.1595
     25  C         40.4390   38.2680   51.6110 C.2    72  ILE72       0.2287
     26  O         41.6090   38.5870   51.3360 O.2    72  ILE72      -0.2864
     27  CB        38.5420   38.8340   49.9820 C.3    72  ILE72       0.0276
     28  CG1       37.5700   38.2820   48.9130 C.3    72  ILE72       0.0022
     29  CG2       39.4330   40.0100   49.4390 C.3    72  ILE72       0.0022
     30  CD1       38.2410   37.5070   47.7430 C.3    72  ILE72       0.0001
     31  N         43.5240   36.1750   51.6940 N.3    75  THR75      -0.1218
     32  CA        44.3510   36.3990   50.5330 C.3    75  THR75       0.1862
     33  C         45.1390   37.7090   50.6640 C.2    75  THR75       0.2287
     34  O         46.3180   37.8040   50.3030 O.2    75  THR75      -0.2866
     35  CB        43.4680   36.3960   49.3000 C.3    75  THR75       0.1770
     36  OG1       42.6780   35.2080   49.3150 O.3    75  THR75      -0.2211
     37  CG2       44.3070   36.4250   48.0560 C.3    75  THR75       0.0375
     38  N         45.6710   29.7760   48.1680 N.3    85  ILE85      -0.1245
     39  CA        44.4200   30.1290   47.5090 C.3    85  ILE85       0.1561
     40  C         44.5900   30.2540   46.0060 C.2    85  ILE85       0.2260
     41  O         43.7320   29.8440   45.2160 O.2    85  ILE85      -0.2867
     42  CB        43.8110   31.3800   48.1980 C.3    85  ILE85       0.0252
     43  CG1       43.3870   30.9500   49.6160 C.3    85  ILE85       0.0019
     44  CG2       42.6150   31.9180   47.4740 C.3    85  ILE85       0.0019
     45  CD1       43.1400   32.1910   50.5830 C.3    85  ILE85       0.0001
     46  N         42.6910   28.1970   43.1550 N.3    89  ALA89      -0.1245
     47  CA        41.9450   28.8450   42.0610 C.3    89  ALA89       0.1562
     48  C         42.3810   28.2840   40.7040 C.2    89  ALA89       0.2260
     49  O         41.5870   28.0810   39.7790 O.2    89  ALA89      -0.2867
     50  CB        42.1760   30.3750   42.1180 C.3    89  ALA89       0.0290
     51  N         34.1130   33.3790   42.3970 N.3   114  ALA114     -0.1245
     52  CA        34.6100   32.0390   42.6400 C.3   114  ALA114      0.1562
     53  C         33.6150   30.9250   42.4540 C.2   114  ALA114      0.2260
     54  O         33.9470   29.8500   42.0380 O.2   114  ALA114     -0.2867
     55  CB        35.2830   31.9610   44.0880 C.3   114  ALA114      0.0290
     56  N         32.7200   30.3530   38.4950 N.3   117  VAL117     -0.1245
     57  CA        33.6660   29.4750   37.7760 C.3   117  VAL117      0.1561
     58  C         33.0180   28.1320   37.4860 C.2   117  VAL117      0.2260
     59  O         33.0860   27.6210   36.3970 O.2   117  VAL117     -0.2867
     60  CB        34.9210   29.2240   38.6510 C.3   117  VAL117      0.0252
     61  CG1       35.8840   28.2060   37.9910 C.3   117  VAL117      0.0019
     62  CG2       35.6450   30.5700   38.9550 C.3   117  VAL117      0.0019
     63  N         35.2680   40.8190   39.5560 N.3   137  HIS137     -0.1241
     64  CA        36.6360   41.1040   39.9800 C.3   137  HIS137      0.1621
     65  C         36.9930   42.5680   39.8490 C.2   137  HIS137      0.2264
     66  O         37.5640   43.1650   40.7820 O.2   137  HIS137     -0.2867
     67  CB        37.6650   40.1970   39.2740 C.3   137  HIS137      0.0745
     68  CG        37.5110   38.7840   39.6690 C.ar  137  HIS137      0.0817
     69  ND1       36.7130   37.9220   38.9630 N.ar  137  HIS137     -0.2268
     70  CD2       37.9920   38.0920   40.7250 C.ar  137  HIS137      0.1154
     71  CE1       36.7040   36.7530   39.5650 C.ar  137  HIS137      0.1986
     72  NE2       37.4820   36.8210   40.6310 N.ar  137  HIS137     -0.2212
     73  N         35.6530   44.5860   42.6060 N.3   140  LEU140     -0.1245
     74  CA        36.3800   44.3030   43.8640 C.3   140  LEU140      0.1561
     75  C         37.7400   44.9700   43.8990 C.2   140  LEU140      0.2260
     76  O         38.2640   45.3010   44.9610 O.2   140  LEU140     -0.2867
     77  CB        36.5420   42.7970   44.0620 C.3   140  LEU140      0.0270
     78  CG        37.2660   42.3180   45.3090 C.3   140  LEU140      0.0019
     79  CD1       36.5380   42.7600   46.5540 C.3   140  LEU140      0.0001
     80  CD2       37.3740   40.7970   45.2690 C.3   140  LEU140      0.0001
     81  N         40.1700   34.3450   37.5610 N.3   146  ASP146     -0.1239
     82  CA        39.7770   33.0460   38.1660 C.3   146  ASP146      0.1674
     83  C         39.0760   32.0730   37.2620 C.2   146  ASP146      0.2266
     84  O         38.7730   30.9750   37.7080 O.2   146  ASP146     -0.2867
     85  CB        39.0230   33.2220   39.4900 C.3   146  ASP146      0.1410
     86  CG        37.5740   33.6270   39.3450 C.2   146  ASP146      0.3668
     87  OD1       37.0760   33.8400   38.2280 O.co2 146  ASP146     -0.2456
     88  OD2       36.9140   33.7400   40.4530 O.co2 146  ASP146     -0.2456
     89  N         45.6870   38.8520   38.7370 N.3   235  GLU235     -0.1231
     90  CA        44.7120   38.9540   39.8330 C.3   235  GLU235      0.1699
     91  C         45.4270   38.8940   41.1590 C.2   235  GLU235      0.2592
     92  O         45.1660   39.7050   42.0460 O.2   235  GLU235     -0.2718
     93  CB        43.6780   37.8000   39.7610 C.3   235  GLU235      0.0402
     94  CG        42.6750   37.9020   40.8840 C.3   235  GLU235      0.1161
     95  CD        41.6020   36.8680   40.9240 C.2   235  GLU235      0.3649
     96  OE1       41.3940   36.1350   39.9570 O.co2 235  GLU235     -0.2457
     97  OE2       40.9380   36.7780   42.0100 O.co2 235  GLU235     -0.2457
     98  N         46.2810   37.8890   41.3570 N.am  236  PHE236     -0.1976
     99  CA        46.8890   37.7180   42.6540 C.3   236  PHE236      0.1639
    100  C         47.9400   38.7330   43.0410 C.2   236  PHE236      0.2290
    101  O         48.0760   39.0780   44.2390 O.2   236  PHE236     -0.2864
    102  CB        47.2860   36.2390   42.8630 C.3   236  PHE236      0.0560
    103  CG        46.1240   35.3910   43.3180 C.ar  236  PHE236     -0.0200
    104  CD1       45.1150   35.0550   42.4580 C.ar  236  PHE236     -0.0042
    105  CD2       46.0180   34.9740   44.6630 C.ar  236  PHE236     -0.0042
    106  CE1       44.0050   34.3090   42.8950 C.ar  236  PHE236     -0.0003
    107  CE2       44.9550   34.2540   45.0920 C.ar  236  PHE236     -0.0003
    108  CZ        43.9290   33.9210   44.2500 C.ar  236  PHE236     -0.0000
    109  N         46.2010   41.4730   44.9720 N.3   239  PHE239     -0.1241
    110  CA        45.7240   41.3460   46.3450 C.3   239  PHE239      0.1605
    111  C         46.5930   42.0680   47.3650 C.2   239  PHE239      0.2264
    112  O         46.1350   42.2890   48.4740 O.2   239  PHE239     -0.2867
    113  CB        45.4690   39.8800   46.7550 C.3   239  PHE239      0.0534
    114  CG        44.1700   39.3120   46.2120 C.ar  239  PHE239     -0.0203
    115  CD1       42.9450   39.8330   46.5490 C.ar  239  PHE239     -0.0042
    116  CD2       44.1780   38.2470   45.3130 C.ar  239  PHE239     -0.0042
    117  CE1       41.7610   39.3280   46.0070 C.ar  239  PHE239     -0.0003
    118  CE2       43.0140   37.7650   44.8080 C.ar  239  PHE239     -0.0003
    119  CZ        41.8280   38.2770   45.1390 C.ar  239  PHE239     -0.0000
@<TRIPOS>BOND
     1    59    58    2
     2    83    84    2
     3    83    82    1
     4    58    57    1
     5    81    82    1
     6    57    56    1
     7    57    60    1
     8    61    60    1
     9    82    85    1
    10    87    86   ar
    11    60    62    1
    12    89    90    1
    13    69    71   ar
    14    69    68   ar
    15    67    68    1
    16    67    64    1
    17    86    85    1
    18    86    88   ar
    19    63    64    1
    20    71    72   ar
    21    68    70   ar
    22    93    90    1
    23    93    94    1
    24    49    48    2
    25    90    91    1
    26    65    64    1
    27    65    66    2
    28    96    95   ar
    29    72    70   ar
    30    48    47    1
    31    94    95    1
    32    95    97   ar
    33    91    98   am
    34    91    92    2
    35    98    99    1
    36    54    53    2
    37    47    50    1
    38    47    46    1
    39    51    52    1
    40    53    52    1
    41   104   106   ar
    42   104   103   ar
    43    73    74    1
    44    52    55    1
    45    99   102    1
    46    99   100    1
    47   102   103    1
    48   106   108   ar
    49   100   101    2
    50   103   105   ar
    51    74    75    1
    52    74    77    1
    53    75    76    2
    54    77    78    1
    55   108   107   ar
    56   105   107   ar
    57   118   119   ar
    58   118   116   ar
    59   109   110    1
    60    10     9   ar
    61    10     8   ar
    62   119   117   ar
    63    41    40    2
    64    80    78    1
    65    78    79    1
    66   116   114   ar
    67     9     7   ar
    68     8     6   ar
    69    40    39    1
    70   117   115   ar
    71   114   115   ar
    72   114   113    1
    73   110   113    1
    74   110   111    1
    75    11    12    1
    76     4     3    2
    77     7     6   ar
    78     6     5    1
    79   111   112    2
    80    44    42    1
    81    12    13    1
    82    39    38    1
    83    39    42    1
    84    30    28    1
    85     3     2    1
    86     2     5    1
    87     2     1    1
    88    37    35    1
    89    22    20    1
    90    42    43    1
    91    14    13    2
    92    28    27    1
    93    35    36    1
    94    35    32    1
    95    20    21    1
    96    20    19    1
    97    29    27    1
    98    43    45    1
    99    27    24    1
   100    34    33    2
   101    24    23    1
   102    24    25    1
   103    32    33    1
   104    32    31    1
   105    19    16    1
   106    23    17   am
   107    18    17    2
   108    17    16    1
   109    26    25    2
   110    16    15    1
