@<TRIPOS>MOLECULE
tmp/3qkdA00.pdb
 210 205 0 0 0
SMALL
GASTEIGER

@<TRIPOS>ATOM
      1  N         -1.6770  -11.5680    6.2250 N.3    36  ALA36      -0.1245
      2  CA        -2.9140  -11.8420    6.9900 C.3    36  ALA36       0.1562
      3  C         -3.0380  -13.3220    7.3690 C.2    36  ALA36       0.2260
      4  O         -3.5090  -13.6460    8.4680 O.2    36  ALA36      -0.2867
      5  CB        -4.1470  -11.3810    6.2180 C.3    36  ALA36       0.0290
      6  N         -0.6340  -14.1650   10.2520 N.3    39  GLU39      -0.1231
      7  CA        -1.2230  -13.6100   11.4780 C.3    39  GLU39       0.1699
      8  C         -2.4460  -14.4000   11.9600 C.2    39  GLU39       0.2592
      9  O         -2.5230  -14.7550   13.1500 O.2    39  GLU39      -0.2718
     10  CB        -1.5430  -12.1200   11.2910 C.3    39  GLU39       0.0402
     11  CG        -1.9040  -11.3360   12.5790 C.3    39  GLU39       0.1161
     12  CD        -0.7840  -11.2740   13.6280 C.2    39  GLU39       0.3649
     13  OE1        0.4070  -11.4310   13.2690 O.co2  39  GLU39      -0.2457
     14  OE2       -1.1120  -11.0390   14.8170 O.co2  39  GLU39      -0.2457
     15  N         -3.3680  -14.7010   11.0370 N.am   40  PHE40      -0.1976
     16  CA        -4.5250  -15.5600   11.3170 C.3    40  PHE40       0.1639
     17  C         -4.1140  -16.9050   11.9200 C.2    40  PHE40       0.2290
     18  O         -4.6930  -17.3370   12.9060 O.2    40  PHE40      -0.2864
     19  CB        -5.3840  -15.8030   10.0500 C.3    40  PHE40       0.0560
     20  CG        -6.3990  -16.9120   10.2150 C.ar   40  PHE40      -0.0200
     21  CD1       -6.1330  -18.1990    9.7460 C.ar   40  PHE40      -0.0042
     22  CD2       -7.6040  -16.6770   10.8660 C.ar   40  PHE40      -0.0042
     23  CE1       -7.0630  -19.2320    9.9160 C.ar   40  PHE40      -0.0003
     24  CE2       -8.5270  -17.7030   11.0450 C.ar   40  PHE40      -0.0003
     25  CZ        -8.2550  -18.9810   10.5690 C.ar   40  PHE40      -0.0000
     26  N         -2.9330  -16.2610   15.5810 N.3    43  ARG43      -0.1231
     27  CA        -4.0500  -15.8990   16.4530 C.3    43  ARG43       0.1694
     28  C         -5.0720  -17.0180   16.6710 C.2    43  ARG43       0.2592
     29  O         -5.6520  -17.1370   17.7560 O.2    43  ARG43      -0.2718
     30  CB        -4.7470  -14.6630   15.9220 C.3    43  ARG43       0.0321
     31  CG        -3.9280  -13.4090   16.0850 C.3    43  ARG43       0.0489
     32  CD        -4.6280  -12.3130   15.4120 C.3    43  ARG43       0.2205
     33  NE        -3.8120  -11.1160   15.3270 N.pl3  43  ARG43      -0.0865
     34  CZ        -4.0720   -9.9870   15.9690 C.cat  43  ARG43       0.5346
     35  NH1       -5.1200   -9.9010   16.7780 N.pl3  43  ARG43       0.1354
     36  NH2       -3.2840   -8.9410   15.7870 N.pl3  43  ARG43       0.1354
     37  N         -5.2830  -17.8430   15.6470 N.am   44  TYR44      -0.1976
     38  CA        -6.2550  -18.9360   15.7260 C.3    44  TYR44       0.1639
     39  C         -5.5820  -20.2920   15.5200 C.2    44  TYR44       0.2290
     40  O         -6.1380  -21.1970   14.8920 O.2    44  TYR44      -0.2864
     41  CB        -7.4200  -18.6910   14.7480 C.3    44  TYR44       0.0560
     42  CG        -8.1980  -17.4290   15.0660 C.ar   44  TYR44      -0.0198
     43  CD1       -9.2560  -17.4500   15.9770 C.ar   44  TYR44      -0.0009
     44  CD2       -7.8730  -16.2170   14.4660 C.ar   44  TYR44      -0.0009
     45  CE1       -9.9680  -16.2950   16.2840 C.ar   44  TYR44       0.0417
     46  CE2       -8.5750  -15.0540   14.7670 C.ar   44  TYR44       0.0417
     47  CZ        -9.6190  -15.1050   15.6790 C.ar   44  TYR44       0.1957
     48  OH       -10.3190  -13.9600   15.9760 O.3    44  TYR44      -0.2866
     49  N         -7.7750  -23.3680   16.5130 N.3    47  ALA47      -0.1231
     50  CA        -8.6790  -23.7290   15.4270 C.3    47  ALA47       0.1694
     51  C         -7.9010  -24.4080   14.2980 C.2    47  ALA47       0.2592
     52  O         -8.3810  -25.3740   13.7090 O.2    47  ALA47      -0.2718
     53  CB        -9.4060  -22.4930   14.9030 C.3    47  ALA47       0.0304
     54  N         -6.6920  -23.9090   14.0290 N.am   48  PHE48      -0.1976
     55  CA        -5.8120  -24.4960   13.0250 C.3    48  PHE48       0.1639
     56  C         -5.4520  -25.9410   13.3750 C.2    48  PHE48       0.2290
     57  O         -5.6340  -26.8330   12.5530 O.2    48  PHE48      -0.2864
     58  CB        -4.5530  -23.6390   12.8340 C.3    48  PHE48       0.0560
     59  CG        -3.7580  -23.9840   11.6060 C.ar   48  PHE48      -0.0200
     60  CD1       -3.7810  -23.1460   10.4930 C.ar   48  PHE48      -0.0042
     61  CD2       -2.9700  -25.1360   11.5610 C.ar   48  PHE48      -0.0042
     62  CE1       -3.0410  -23.4540    9.3520 C.ar   48  PHE48      -0.0003
     63  CE2       -2.2250  -25.4530   10.4150 C.ar   48  PHE48      -0.0003
     64  CZ        -2.2640  -24.6100    9.3150 C.ar   48  PHE48      -0.0000
     65  N         -8.4980  -28.4100   13.3250 N.3    51  LEU51      -0.1245
     66  CA        -8.7780  -28.8300   11.9600 C.3    51  LEU51       0.1561
     67  C         -7.7810  -29.8860   11.4940 C.2    51  LEU51       0.2260
     68  O         -8.1680  -30.9740   11.0540 O.2    51  LEU51      -0.2867
     69  CB        -8.7180  -27.6260   11.0130 C.3    51  LEU51       0.0270
     70  CG        -9.1230  -27.9830    9.5730 C.3    51  LEU51       0.0019
     71  CD1      -10.4040  -27.2830    9.2010 C.3    51  LEU51       0.0001
     72  CD2       -8.0010  -27.6740    8.5840 C.3    51  LEU51       0.0001
     73  N        -15.9960  -28.0240    5.2750 N.3    69  VAL69      -0.1245
     74  CA       -15.3420  -26.9830    6.0550 C.3    69  VAL69       0.1561
     75  C        -15.6530  -25.5830    5.4980 C.2    69  VAL69       0.2260
     76  O        -15.9530  -24.6770    6.2700 O.2    69  VAL69      -0.2867
     77  CB       -13.8250  -27.2230    6.1750 C.3    69  VAL69       0.0252
     78  CG1      -13.1280  -26.0180    6.8180 C.3    69  VAL69       0.0019
     79  CG2      -13.5470  -28.4920    6.9890 C.3    69  VAL69       0.0019
     80  N        -19.2700  -24.4480    6.2630 N.3    72  GLU72      -0.1231
     81  CA       -19.2730  -24.0160    7.6670 C.3    72  GLU72       0.1699
     82  C        -18.6530  -22.6260    7.8590 C.2    72  GLU72       0.2592
     83  O        -19.1970  -21.7870    8.5900 O.2    72  GLU72      -0.2718
     84  CB       -18.5420  -25.0350    8.5520 C.3    72  GLU72       0.0402
     85  CG       -18.6060  -24.6830   10.0430 C.3    72  GLU72       0.1161
     86  CD       -17.5640  -25.4140   10.8880 C.2    72  GLU72       0.3649
     87  OE1      -17.0530  -26.4720   10.4550 O.co2  72  GLU72      -0.2457
     88  OE2      -17.2630  -24.9150   11.9920 O.co2  72  GLU72      -0.2457
     89  N        -17.5210  -22.3900    7.1970 N.am   73  LEU73      -0.1980
     90  CA       -16.7960  -21.1360    7.3210 C.3    73  LEU73       0.1596
     91  C        -17.6590  -19.9250    6.9540 C.2    73  LEU73       0.2287
     92  O        -17.5900  -18.8850    7.6130 O.2    73  LEU73      -0.2864
     93  CB       -15.4910  -21.1660    6.4880 C.3    73  LEU73       0.0297
     94  CG       -14.6190  -19.8980    6.4060 C.3    73  LEU73       0.0022
     95  CD1      -14.1860  -19.3860    7.7850 C.3    73  LEU73       0.0001
     96  CD2      -13.3940  -20.1360    5.5320 C.3    73  LEU73       0.0001
     97  N        -16.8840  -12.2090    5.4810 N.3    79  ASN79      -0.1225
     98  CA       -16.1090  -10.9940    5.7170 C.3    79  ASN79       0.1785
     99  C        -14.6610  -11.2360    5.2790 C.2    79  ASN79       0.2597
    100  O        -14.3110  -12.3720    4.9290 O.2    79  ASN79      -0.2718
    101  CB       -16.2430  -10.4970    7.1750 C.3    79  ASN79       0.1169
    102  CG       -15.6870  -11.4740    8.1950 C.2    79  ASN79       0.2627
    103  OD1      -14.7660  -12.2430    7.9170 O.2    79  ASN79      -0.2716
    104  ND2      -16.2490  -11.4450    9.3930 N.am   79  ASN79      -0.0877
    105  N        -13.8370  -10.1860    5.2680 N.am   80  TRP80      -0.1962
    106  CA       -12.4360  -10.3120    4.8500 C.3    80  TRP80       0.1771
    107  C        -11.6430  -11.3470    5.6670 C.2    80  TRP80       0.2620
    108  O        -10.9090  -12.1540    5.1000 O.2    80  TRP80      -0.2715
    109  CB       -11.7300   -8.9590    4.8660 C.3    80  TRP80       0.0590
    110  CG       -12.1410   -8.0230    3.7360 C.ar   80  TRP80       0.0006
    111  CD1      -12.6940   -6.7810    3.8670 C.ar   80  TRP80       0.0946
    112  CD2      -12.0230   -8.2620    2.3270 C.ar   80  TRP80       0.0152
    113  NE1      -12.9230   -6.2300    2.6320 N.ar   80  TRP80      -0.2442
    114  CE2      -12.5260   -7.1150    1.6680 C.ar   80  TRP80       0.0810
    115  CE3      -11.5450   -9.3330    1.5570 C.ar   80  TRP80       0.0012
    116  CZ2      -12.5660   -7.0050    0.2710 C.ar   80  TRP80       0.0191
    117  CZ3      -11.5840   -9.2230    0.1660 C.ar   80  TRP80       0.0001
    118  CH2      -12.0920   -8.0640   -0.4600 C.ar   80  TRP80       0.0015
    119  N        -11.8120  -11.3300    6.9890 N.am   81  GLY81      -0.1940
    120  CA       -11.1740  -12.3120    7.8750 C.3    81  GLY81       0.2014
    121  C        -11.4920  -13.7490    7.5040 C.2    81  GLY81       0.2638
    122  O        -10.6040  -14.6040    7.5000 O.2    81  GLY81      -0.2714
    123  N        -12.7610  -14.0150    7.1920 N.am   82  ARG82      -0.1977
    124  CA       -13.1890  -15.3560    6.7870 C.3    82  ARG82       0.1597
    125  C        -12.5850  -15.7690    5.4380 C.2    82  ARG82       0.2287
    126  O        -12.2820  -16.9430    5.2220 O.2    82  ARG82      -0.2864
    127  CB       -14.7180  -15.4730    6.7670 C.3    82  ARG82       0.0334
    128  CG       -15.3570  -15.4080    8.1690 C.3    82  ARG82       0.0492
    129  CD       -16.8780  -15.5650    8.1130 C.3    82  ARG82       0.2205
    130  NE       -17.4820  -15.5300    9.4510 N.pl3  82  ARG82      -0.0865
    131  CZ       -18.4510  -14.6880    9.8300 C.cat  82  ARG82       0.5346
    132  NH1      -18.9790  -13.8100    8.9750 N.pl3  82  ARG82       0.1354
    133  NH2      -18.9160  -14.7350   11.0720 N.pl3  82  ARG82       0.1354
    134  N         -9.5770  -14.7260    4.4020 N.3    84  VAL84      -0.1231
    135  CA        -8.2100  -15.0920    4.7860 C.3    84  VAL84       0.1692
    136  C         -8.1680  -16.5300    5.3150 C.2    84  VAL84       0.2591
    137  O         -7.3070  -17.3320    4.9140 O.2    84  VAL84      -0.2718
    138  CB        -7.5940  -14.1130    5.8380 C.3    84  VAL84       0.0266
    139  CG1       -6.2400  -14.6340    6.3310 C.3    84  VAL84       0.0020
    140  CG2       -7.4600  -12.6740    5.2570 C.3    84  VAL84       0.0020
    141  N         -9.1200  -16.8580    6.1970 N.am   85  ALA85      -0.1980
    142  CA        -9.1940  -18.1750    6.7960 C.3    85  ALA85       0.1597
    143  C         -9.4140  -19.2570    5.7330 C.2    85  ALA85       0.2287
    144  O         -8.9300  -20.3700    5.8700 O.2    85  ALA85      -0.2864
    145  CB       -10.3150  -18.2070    7.8390 C.3    85  ALA85       0.0319
    146  N         -6.0500  -19.8460    4.3010 N.3    88  SER88      -0.1202
    147  CA        -5.2720  -20.6100    5.2870 C.3    88  SER88       0.2020
    148  C         -5.7370  -22.0660    5.3580 C.2    88  SER88       0.2618
    149  O         -4.9130  -22.9640    5.5150 O.2    88  SER88      -0.2717
    150  CB        -5.3280  -19.9730    6.6870 C.3    88  SER88       0.2103
    151  OG        -4.5290  -18.7980    6.7460 O.3    88  SER88      -0.2182
    152  N         -7.0460  -22.2890    5.2410 N.am   89  PHE89      -0.1975
    153  CA        -7.5790  -23.6520    5.1470 C.3    89  PHE89       0.1639
    154  C         -7.0620  -24.4110    3.9210 C.2    89  PHE89       0.2290
    155  O         -6.6490  -25.5660    4.0350 O.2    89  PHE89      -0.2864
    156  CB        -9.1180  -23.6600    5.1550 C.3    89  PHE89       0.0560
    157  CG        -9.7110  -25.0020    4.8330 C.ar   89  PHE89      -0.0200
    158  CD1       -9.3790  -26.1320    5.5990 C.ar   89  PHE89      -0.0042
    159  CD2      -10.6090  -25.1460    3.7750 C.ar   89  PHE89      -0.0042
    160  CE1       -9.9090  -27.3880    5.2920 C.ar   89  PHE89      -0.0003
    161  CE2      -11.1570  -26.4060    3.4590 C.ar   89  PHE89      -0.0003
    162  CZ       -10.8120  -27.5250    4.2160 C.ar   89  PHE89      -0.0000
    163  N         -3.4950  -25.3600    4.6270 N.3    92  ALA92      -0.1245
    164  CA        -3.4430  -26.4850    5.5680 C.3    92  ALA92       0.1562
    165  C         -3.7970  -27.8170    4.8980 C.2    92  ALA92       0.2260
    166  O         -3.1620  -28.8420    5.1700 O.2    92  ALA92      -0.2867
    167  CB        -4.3600  -26.2270    6.7550 C.3    92  ALA92       0.0290
    168  N         -9.4570   -4.5450    0.6000 N.3   134  PHE134     -0.1241
    169  CA        -8.7730   -5.4350    1.5440 C.3   134  PHE134      0.1605
    170  C         -7.3820   -4.8980    1.8870 C.2   134  PHE134      0.2264
    171  O         -7.0210   -4.8170    3.0590 O.2   134  PHE134     -0.2867
    172  CB        -8.6750   -6.8690    0.9910 C.3   134  PHE134      0.0534
    173  CG        -7.8450   -7.7970    1.8460 C.ar  134  PHE134     -0.0203
    174  CD1       -8.3700   -8.3500    3.0050 C.ar  134  PHE134     -0.0042
    175  CD2       -6.5350   -8.1150    1.4890 C.ar  134  PHE134     -0.0042
    176  CE1       -7.6040   -9.2030    3.8080 C.ar  134  PHE134     -0.0003
    177  CE2       -5.7650   -8.9690    2.2800 C.ar  134  PHE134     -0.0003
    178  CZ        -6.3040   -9.5110    3.4450 C.ar  134  PHE134     -0.0000
    179  N         -7.6730   -1.8040    4.0480 N.3   137  LEU137     -0.1231
    180  CA        -8.0850   -2.1220    5.4150 C.3   137  LEU137      0.1693
    181  C         -7.0790   -2.9530    6.2150 C.2   137  LEU137      0.2592
    182  O         -6.9180   -2.7200    7.4170 O.2   137  LEU137     -0.2718
    183  CB        -9.4440   -2.8290    5.4330 C.3   137  LEU137      0.0284
    184  CG       -10.6790   -2.0790    4.9260 C.3   137  LEU137      0.0019
    185  CD1      -11.8370   -3.0570    4.7670 C.3   137  LEU137      0.0001
    186  CD2      -11.0710   -0.8760    5.8170 C.3   137  LEU137      0.0001
    187  N         -6.4100   -3.9080    5.5600 N.am  138  TYR138     -0.1962
    188  CA        -5.5790   -4.9020    6.2720 C.3   138  TYR138      0.1771
    189  C         -4.1590   -5.1300    5.7170 C.2   138  TYR138      0.2620
    190  O         -3.4690   -6.0550    6.1370 O.2   138  TYR138     -0.2715
    191  CB        -6.3320   -6.2380    6.4160 C.3   138  TYR138      0.0574
    192  CG        -7.7180   -6.0950    7.0080 C.ar  138  TYR138     -0.0198
    193  CD1       -8.8550   -6.3470    6.2400 C.ar  138  TYR138     -0.0009
    194  CD2       -7.8950   -5.6790    8.3330 C.ar  138  TYR138     -0.0009
    195  CE1      -10.1330   -6.2030    6.7780 C.ar  138  TYR138      0.0417
    196  CE2       -9.1690   -5.5270    8.8810 C.ar  138  TYR138      0.0417
    197  CZ       -10.2810   -5.7910    8.0950 C.ar  138  TYR138      0.1957
    198  OH       -11.5320   -5.6380    8.6300 O.3   138  TYR138     -0.2866
    199  N         -3.7300   -4.2830    4.7850 N.am  139  GLY139     -0.1940
    200  CA        -2.3480   -4.2910    4.2900 C.3   139  GLY139      0.2014
    201  C         -1.4110   -3.5890    5.2590 C.2   139  GLY139      0.2638
    202  O         -1.8320   -2.6880    5.9850 O.2   139  GLY139     -0.2714
    203  N         -0.1390   -4.0020    5.2500 N.am  140  ASN140     -0.1972
    204  CA         0.8760   -3.6030    6.2590 C.3   140  ASN140      0.1688
    205  C          0.4240   -3.8130    7.7040 C.2   140  ASN140      0.2292
    206  O          0.6250   -4.8810    8.2780 O.2   140  ASN140     -0.2864
    207  CB         1.3310   -2.1530    6.0740 C.3   140  ASN140      0.1181
    208  CG         1.8190   -1.8700    4.6800 C.2   140  ASN140      0.2629
    209  OD1        2.7030   -2.5540    4.1630 O.2   140  ASN140     -0.2716
    210  ND2        1.2490   -0.8420    4.0570 N.am  140  ASN140     -0.0877
@<TRIPOS>BOND
     1   118   117   ar
     2   118   116   ar
     3   117   115   ar
     4   116   114   ar
     5   168   169    1
     6   172   169    1
     7   172   173    1
     8   175   173   ar
     9   175   177   ar
    10   169   170    1
    11   115   112   ar
    12   114   112   ar
    13   114   113   ar
    14   173   174   ar
    15   170   171    2
    16   177   178   ar
    17   112   110   ar
    18   113   111   ar
    19   174   176   ar
    20   178   176   ar
    21   161   159   ar
    22   161   162   ar
    23   110   111   ar
    24   110   109    1
    25   159   157   ar
    26   154   155    2
    27   154   153    1
    28   179   180    1
    29   210   208   am
    30   209   208    2
    31   162   160   ar
    32   200   199    1
    33   200   201    1
    34   146   147    1
    35   134   135    1
    36   163   164    1
    37   208   207    1
    38   185   184    1
    39   199   189   am
    40   135   136    1
    41   135   138    1
    42   157   156    1
    43   157   158   ar
    44   106   109    1
    45   106   105    1
    46   106   107    1
    47   165   166    2
    48   165   164    1
    49   137   136    2
    50   184   183    1
    51   184   186    1
    52   100    99    2
    53   108   107    2
    54   153   156    1
    55   153   152    1
    56   126   125    2
    57   152   148   am
    58   203   201   am
    59   203   204    1
    60   140   138    1
    61   201   202    2
    62   105    99   am
    63    73    74    1
    64    99    98    1
    65   147   148    1
    66   147   150    1
    67   160   158   ar
    68   136   141   am
    69   148   149    2
    70   180   183    1
    71   180   181    1
    72   125   124    1
    73    97    98    1
    74    75    74    1
    75    75    76    2
    76    96    94    1
    77   187   181   am
    78   187   188    1
    79   164   167    1
    80   107   119   am
    81    98   101    1
    82   189   190    2
    83   189   188    1
    84   143   144    2
    85   143   142    1
    86   138   139    1
    87    74    77    1
    88   207   204    1
    89    77    78    1
    90    77    79    1
    91   141   142    1
    92   181   182    2
    93     5     2    1
    94     1     2    1
    95   193   195   ar
    96   193   192   ar
    97   204   205    1
    98    80    81    1
    99   188   191    1
   100    94    93    1
   101    94    95    1
   102   191   192    1
   103    93    90    1
   104   150   151    1
   105   127   124    1
   106   127   128    1
   107   195   197   ar
   108   124   123    1
   109   142   145    1
   110    91    90    1
   111    91    92    2
   112   119   120    1
   113     2     3    1
   114   192   194   ar
   115   101   102    1
   116   123   121   am
   117    89    90    1
   118    89    82   am
   119     3     4    2
   120   122   121    2
   121   121   120    1
   122    81    82    1
   123    81    84    1
   124   205   206    2
   125    82    83    2
   126   103   102    2
   127   197   198    1
   128   197   196   ar
   129   129   128    1
   130   129   130    1
   131   102   104   am
   132   194   196   ar
   133    84    85    1
   134    72    70    1
   135   132   131    1
   136    71    70    1
   137    64    62   ar
   138    64    63   ar
   139    62    60   ar
   140   130   131    2
   141    70    69    1
   142    21    23   ar
   143    21    20   ar
   144   131   133    1
   145    23    25   ar
   146    85    86    1
   147    19    20    1
   148    19    16    1
   149    20    22   ar
   150     6     7    1
   151    63    61   ar
   152    87    86   ar
   153    60    59   ar
   154    25    24   ar
   155    22    24   ar
   156    86    88   ar
   157    69    66    1
   158    15    16    1
   159    15     8   am
   160    68    67    2
   161    10     7    1
   162    10    11    1
   163    16    17    1
   164     7     8    1
   165    67    66    1
   166    61    59   ar
   167    59    58    1
   168    17    18    2
   169    66    65    1
   170     8     9    2
   171    57    56    2
   172    11    12    1
   173    58    55    1
   174    55    56    1
   175    55    54    1
   176    13    12   ar
   177    12    14   ar
   178    52    51    2
   179    54    51   am
   180    51    50    1
   181    44    46   ar
   182    44    42   ar
   183    41    42    1
   184    41    38    1
   185    46    47   ar
   186    40    39    2
   187    53    50    1
   188    42    43   ar
   189    33    32    1
   190    33    34    2
   191    32    31    1
   192    50    49    1
   193    39    38    1
   194    26    27    1
   195    37    38    1
   196    37    28   am
   197    47    48    1
   198    47    45   ar
   199    36    34    1
   200    30    31    1
   201    30    27    1
   202    34    35    1
   203    43    45   ar
   204    27    28    1
   205    28    29    2
