@<TRIPOS>MOLECULE
tmp/3qkeA00.pdb
 183 174 0 0 0
SMALL
GASTEIGER

@<TRIPOS>ATOM
      1  N          1.5390   -7.9070 -111.9720 N.3    37  ASN37      -0.1240
      2  CA         1.6300   -6.7960 -112.9250 C.3    37  ASN37       0.1653
      3  C          2.4670   -7.1000 -114.1640 C.2    37  ASN37       0.2266
      4  O          3.6550   -7.4120 -114.0650 O.2    37  ASN37      -0.2867
      5  CB         2.1630   -5.5360 -112.2380 C.3    37  ASN37       0.1155
      6  CG         1.7560   -4.2580 -112.9590 C.2    37  ASN37       0.2627
      7  OD1        0.9450   -4.2850 -113.8880 O.2    37  ASN37      -0.2716
      8  ND2        2.3190   -3.1370 -112.5330 N.am   37  ASN37      -0.0877
      9  N          2.9110    5.1970  -95.6940 N.3   120  TYR120     -0.1241
     10  CA         3.6220    6.2740  -96.3620 C.3   120  TYR120      0.1605
     11  C          2.9950    6.5410  -97.7230 C.2   120  TYR120      0.2264
     12  O          2.3820    5.6520  -98.3240 O.2   120  TYR120     -0.2867
     13  CB         5.1290    5.9980  -96.4820 C.3   120  TYR120      0.0534
     14  CG         5.5570    4.8680  -97.4090 C.ar  120  TYR120     -0.0201
     15  CD1        5.9390    5.1290  -98.7270 C.ar  120  TYR120     -0.0009
     16  CD2        5.6350    3.5510  -96.9540 C.ar  120  TYR120     -0.0009
     17  CE1        6.3600    4.1010  -99.5790 C.ar  120  TYR120      0.0417
     18  CE2        6.0600    2.5200  -97.8050 C.ar  120  TYR120      0.0417
     19  CZ         6.4220    2.8050  -99.1090 C.ar  120  TYR120      0.1957
     20  OH         6.8460    1.7890  -99.9560 O.3   120  TYR120     -0.2866
     21  N          3.4730    8.3040 -101.7340 N.3   122  HIS122     -0.1241
     22  CA         4.4180    8.6450 -102.7880 C.3   122  HIS122      0.1621
     23  C          4.3610   10.1360 -103.0710 C.2   122  HIS122      0.2264
     24  O          3.3030   10.6770 -103.4060 O.2   122  HIS122     -0.2867
     25  CB         4.0940    7.8990 -104.0860 C.3   122  HIS122      0.0745
     26  CG         4.3160    6.4190 -104.0190 C.ar  122  HIS122      0.0817
     27  ND1        4.5470    5.6570 -105.1430 N.ar  122  HIS122     -0.2268
     28  CD2        4.3260    5.5600 -102.9710 C.ar  122  HIS122      0.1154
     29  CE1        4.7000    4.3930 -104.7910 C.ar  122  HIS122      0.1986
     30  NE2        4.5660    4.3070 -103.4780 N.ar  122  HIS122     -0.2212
     31  N          7.5380    8.8260  -99.3010 N.3   147  ARG147     -0.1245
     32  CA         8.6140    8.4200 -100.1870 C.3   147  ARG147      0.1563
     33  C          8.8510    9.5680 -101.1550 C.2   147  ARG147      0.2260
     34  O          7.8990   10.1230 -101.6980 O.2   147  ARG147     -0.2867
     35  CB         8.2160    7.1850 -100.9720 C.3   147  ARG147      0.0307
     36  CG         9.3240    6.6620 -101.8320 C.3   147  ARG147      0.0489
     37  CD         8.8470    5.4890 -102.6450 C.3   147  ARG147      0.2205
     38  NE         8.2600    5.9100 -103.9030 N.pl3 147  ARG147     -0.0865
     39  CZ         8.0330    5.0790 -104.9140 C.cat 147  ARG147      0.5346
     40  NH1        8.3170    3.7840 -104.7850 N.pl3 147  ARG147      0.1354
     41  NH2        7.5170    5.5370 -106.0460 N.pl3 147  ARG147      0.1354
     42  N         12.9500    6.5950 -112.2740 N.3   159  TYR159     -0.1241
     43  CA        11.8920    5.8480 -111.6090 C.3   159  TYR159      0.1605
     44  C         11.0410    6.7130 -110.6820 C.2   159  TYR159      0.2264
     45  O         11.5590    7.5250 -109.9110 O.2   159  TYR159     -0.2867
     46  CB        12.4330    4.6630 -110.8050 C.3   159  TYR159      0.0534
     47  CG        11.3450    4.1080 -109.9200 C.ar  159  TYR159     -0.0201
     48  CD1       10.3100    3.3520 -110.4560 C.ar  159  TYR159     -0.0009
     49  CD2       11.3110    4.4000 -108.5540 C.ar  159  TYR159     -0.0009
     50  CE1        9.2910    2.8720 -109.6570 C.ar  159  TYR159      0.0417
     51  CE2       10.2970    3.9230 -107.7510 C.ar  159  TYR159      0.0417
     52  CZ         9.2870    3.1630 -108.3060 C.ar  159  TYR159      0.1957
     53  OH         8.2770    2.6860 -107.5090 O.3   159  TYR159     -0.2866
     54  N          1.2370    8.7340 -112.1370 N.3   163  TYR163     -0.1241
     55  CA         2.3150    7.7940 -112.4270 C.3   163  TYR163      0.1605
     56  C          1.8610    6.3390 -112.2530 C.2   163  TYR163      0.2264
     57  O          1.7390    5.8430 -111.1280 O.2   163  TYR163     -0.2867
     58  CB         3.5500    8.0980 -111.5580 C.3   163  TYR163      0.0534
     59  CG         4.7380    7.1820 -111.8070 C.ar  163  TYR163     -0.0201
     60  CD1        5.5950    7.3940 -112.8890 C.ar  163  TYR163     -0.0009
     61  CD2        5.0030    6.1080 -110.9590 C.ar  163  TYR163     -0.0009
     62  CE1        6.6810    6.5550 -113.1240 C.ar  163  TYR163      0.0417
     63  CE2        6.0840    5.2640 -111.1830 C.ar  163  TYR163      0.0417
     64  CZ         6.9190    5.4890 -112.2650 C.ar  163  TYR163      0.1957
     65  OH         7.9920    4.6500 -112.4860 O.3   163  TYR163     -0.2866
     66  N          3.2980    2.8880 -113.5350 N.3   165  PRO165     -0.2116
     67  CA         4.4040    2.1390 -114.1490 C.3   165  PRO165      0.1372
     68  C          4.0060    1.3630 -115.4130 C.2   165  PRO165      0.2244
     69  O          4.6640    1.5130 -116.4430 O.2   165  PRO165     -0.2868
     70  CB         4.8130    1.1740 -113.0350 C.3   165  PRO165      0.0268
     71  CG         4.5710    1.9690 -111.7810 C.3   165  PRO165      0.0207
     72  CD         3.3850    2.8750 -112.0620 C.3   165  PRO165      0.0892
     73  N         13.2890    4.9980 -102.9590 N.3   205  ASP205     -0.1239
     74  CA        13.3570    3.7380 -103.6910 C.3   205  ASP205      0.1674
     75  C         14.4080    3.8580 -104.7880 C.2   205  ASP205      0.2266
     76  O         14.2380    4.6200 -105.7410 O.2   205  ASP205     -0.2867
     77  CB        11.9780    3.4200 -104.2790 C.3   205  ASP205      0.1410
     78  CG        11.8490    1.9970 -104.7700 C.2   205  ASP205      0.3668
     79  OD1       12.8680    1.3150 -105.0070 O.co2 205  ASP205     -0.2456
     80  OD2       10.6930    1.5780 -104.9650 O.co2 205  ASP205     -0.2456
     81  N         15.2370    1.4180 -106.6480 N.3   207  HIS207     -0.1241
     82  CA        14.6560    0.6530 -107.7530 C.3   207  HIS207      0.1621
     83  C         15.6740   -0.0960 -108.6260 C.2   207  HIS207      0.2264
     84  O         15.6420   -0.0220 -109.8620 O.2   207  HIS207     -0.2867
     85  CB        13.7450    1.5440 -108.6050 C.3   207  HIS207      0.0745
     86  CG        12.4550    0.8820 -108.9860 C.ar  207  HIS207      0.0817
     87  ND1       12.2610    0.2770 -110.2090 N.ar  207  HIS207     -0.2268
     88  CD2       11.3030    0.7080 -108.2960 C.ar  207  HIS207      0.1154
     89  CE1       11.0410   -0.2290 -110.2630 C.ar  207  HIS207      0.1986
     90  NE2       10.4370    0.0210 -109.1150 N.ar  207  HIS207     -0.2212
     91  N         15.5270    1.6990 -100.3750 N.3   231  GLU231     -0.1245
     92  CA        14.8550    0.4980 -100.8560 C.3   231  GLU231      0.1567
     93  C         15.4280   -0.0370 -102.1720 C.2   231  GLU231      0.2260
     94  O         15.7610    0.7270 -103.0750 O.2   231  GLU231     -0.2867
     95  CB        13.3650    0.8240 -101.0180 C.3   231  GLU231      0.0388
     96  CG        12.5530   -0.1880 -101.7680 C.3   231  GLU231      0.1160
     97  CD        11.1040    0.2510 -101.9280 C.2   231  GLU231      0.3649
     98  OE1       10.3630   -0.4230 -102.6630 O.co2 231  GLU231     -0.2457
     99  OE2       10.7030    1.2510 -101.3120 O.co2 231  GLU231     -0.2457
    100  N         10.2060   -6.5200 -102.6670 N.3   257  GLU257     -0.1245
    101  CA         8.9440   -6.5200 -103.4060 C.3   257  GLU257      0.1567
    102  C          8.9850   -7.4660 -104.6090 C.2   257  GLU257      0.2260
    103  O          7.9420   -7.9120 -105.0680 O.2   257  GLU257     -0.2867
    104  CB         8.5780   -5.1230 -103.8800 C.3   257  GLU257      0.0388
    105  CG         9.4230   -4.6290 -105.0240 C.3   257  GLU257      0.1160
    106  CD         9.0980   -3.1980 -105.3700 C.2   257  GLU257      0.3649
    107  OE1        9.1450   -2.3680 -104.4450 O.co2 257  GLU257     -0.2457
    108  OE2        8.7860   -2.9080 -106.5440 O.co2 257  GLU257     -0.2457
    109  N         10.0130   -6.4850  -97.7520 N.3   278  ARG278     -0.1245
    110  CA         8.9510   -5.8360  -98.5190 C.3   278  ARG278      0.1563
    111  C          7.9880   -6.7780  -99.2390 C.2   278  ARG278      0.2260
    112  O          6.9830   -6.3250  -99.7970 O.2   278  ARG278     -0.2867
    113  CB         9.5840   -4.9170  -99.5740 C.3   278  ARG278      0.0307
    114  CG        10.4630   -3.8150  -99.0080 C.3   278  ARG278      0.0489
    115  CD         9.6860   -2.5170  -98.8550 C.3   278  ARG278      0.2205
    116  NE         9.2470   -1.9880 -100.1340 N.pl3 278  ARG278     -0.0865
    117  CZ         8.0570   -1.4330 -100.3580 C.cat 278  ARG278      0.5346
    118  NH1        7.1560   -1.3390  -99.3960 N.pl3 278  ARG278      0.1354
    119  NH2        7.7650   -0.9740 -101.5580 N.pl3 278  ARG278      0.1354
    120  N          5.0120   -4.1750  -99.7040 N.3   307  HIS307     -0.1241
    121  CA         4.7910   -3.5340 -100.9860 C.3   307  HIS307      0.1621
    122  C          3.2930   -3.3050 -101.1000 C.2   307  HIS307      0.2264
    123  O          2.5090   -4.2260 -100.8770 O.2   307  HIS307     -0.2867
    124  CB         5.2880   -4.4790 -102.0720 C.3   307  HIS307      0.0745
    125  CG         5.2290   -3.9190 -103.4550 C.ar  307  HIS307      0.0817
    126  ND1        4.9880   -4.7100 -104.5570 N.ar  307  HIS307     -0.2268
    127  CD2        5.4160   -2.6620 -103.9250 C.ar  307  HIS307      0.1154
    128  CE1        5.0080   -3.9620 -105.6460 C.ar  307  HIS307      0.1986
    129  NE2        5.2690   -2.7160 -105.2900 N.ar  307  HIS307     -0.2212
    130  N          1.4040   -1.1860 -103.8880 N.3   309  PRO309     -0.2116
    131  CA         1.1910   -0.3330 -105.0550 C.3   309  PRO309      0.1372
    132  C         -0.2260   -0.5150 -105.5660 C.2   309  PRO309      0.2244
    133  O         -0.9570   -1.3600 -105.0530 O.2   309  PRO309     -0.2868
    134  CB         2.1520   -0.9360 -106.0690 C.3   309  PRO309      0.0268
    135  CG         2.0190   -2.4270 -105.7910 C.3   309  PRO309      0.0207
    136  CD         1.8390   -2.5360 -104.2850 C.3   309  PRO309      0.0892
    137  N         -1.0140   -1.9460 -108.1380 N.3   311  ASP311     -0.1239
    138  CA        -1.1230   -3.2370 -108.8210 C.3   311  ASP311      0.1674
    139  C         -1.2940   -4.4440 -107.8930 C.2   311  ASP311      0.2266
    140  O         -1.2520   -5.5770 -108.3570 O.2   311  ASP311     -0.2867
    141  CB         0.0130   -3.4660 -109.8310 C.3   311  ASP311      0.1410
    142  CG         1.3900   -3.3090 -109.2190 C.2   311  ASP311      0.3668
    143  OD1        1.7550   -2.1650 -108.8790 O.co2 311  ASP311     -0.2456
    144  OD2        2.1140   -4.3260 -109.1020 O.co2 311  ASP311     -0.2456
    145  N          2.9070    0.5080  -97.1950 N.3   334  GLU334     -0.1245
    146  CA         2.8980    1.3730  -98.3620 C.3   334  GLU334      0.1567
    147  C          1.4560    1.5900  -98.8150 C.2   334  GLU334      0.2260
    148  O          0.6520    0.6570  -98.7950 O.2   334  GLU334     -0.2867
    149  CB         3.6910    0.7310  -99.5020 C.3   334  GLU334      0.0388
    150  CG         3.7420    1.6000 -100.7600 C.3   334  GLU334      0.1160
    151  CD         4.5800    0.9860 -101.8730 C.2   334  GLU334      0.3649
    152  OE1        4.8840   -0.2230 -101.8110 O.co2 334  GLU334     -0.2457
    153  OE2        4.9390    1.7240 -102.8180 O.co2 334  GLU334     -0.2457
    154  N         -0.7320    3.2730 -102.0810 N.3   336  MET336     -0.1245
    155  CA        -1.0460    4.0060 -103.2990 C.3   336  MET336      0.1570
    156  C         -2.5480    3.8590 -103.5270 C.2   336  MET336      0.2261
    157  O         -3.0110    2.7770 -103.8720 O.2   336  MET336     -0.2867
    158  CB        -0.2940    3.4470 -104.5150 C.3   336  MET336      0.0387
    159  CG         1.2360    3.4970 -104.4550 C.3   336  MET336      0.0595
    160  SD         1.9580    2.9790 -106.0400 S.3   336  MET336     -0.1393
    161  CE         1.4680    4.3580 -107.0770 C.3   336  MET336      0.0692
    162  N          5.1510   -3.4770 -117.9200 N.3   384  LEU384     -0.1245
    163  CA         6.1080   -2.6330 -117.2060 C.3   384  LEU384      0.1561
    164  C          7.2230   -2.1820 -118.1520 C.2   384  LEU384      0.2260
    165  O          7.5100   -2.8470 -119.1410 O.2   384  LEU384     -0.2867
    166  CB         6.6940   -3.3910 -116.0040 C.3   384  LEU384      0.0270
    167  CG         5.7410   -3.6190 -114.8370 C.3   384  LEU384      0.0019
    168  CD1        6.3370   -4.6120 -113.8380 C.3   384  LEU384      0.0001
    169  CD2        5.4230   -2.2920 -114.1550 C.3   384  LEU384      0.0001
    170  N         15.1650   -2.0380 -114.5530 N.3   397  TRP397     -0.1241
    171  CA        14.1510   -1.0160 -114.3480 C.3   397  TRP397      0.1605
    172  C         13.7300   -0.9300 -112.8850 C.2   397  TRP397      0.2264
    173  O         13.5170   -1.9340 -112.1940 O.2   397  TRP397     -0.2867
    174  CB        12.9090   -1.2210 -115.2260 C.3   397  TRP397      0.0550
    175  CG        11.8900   -0.1820 -114.8940 C.ar  397  TRP397      0.0003
    176  CD1       11.9410    1.1520 -115.2060 C.ar  397  TRP397      0.0946
    177  CD2       10.6970   -0.3670 -114.1210 C.ar  397  TRP397      0.0152
    178  NE1       10.8450    1.8000 -114.6880 N.ar  397  TRP397     -0.2442
    179  CE2       10.0680    0.8910 -114.0140 C.ar  397  TRP397      0.0810
    180  CE3       10.0980   -1.4730 -113.5180 C.ar  397  TRP397      0.0012
    181  CZ2        8.8640    1.0710 -113.3330 C.ar  397  TRP397      0.0191
    182  CZ3        8.8980   -1.2920 -112.8330 C.ar  397  TRP397      0.0001
    183  CH2        8.2990   -0.0280 -112.7460 C.ar  397  TRP397      0.0015
@<TRIPOS>BOND
     1   165   164    2
     2   164   163    1
     3   162   163    1
     4   163   166    1
     5    69    68    2
     6   166   167    1
     7    68    67    1
     8   174   175    1
     9   174   171    1
    10   176   175   ar
    11   176   178   ar
    12   175   177   ar
    13   167   169    1
    14   167   168    1
    15   178   179   ar
    16   170   171    1
    17   171   172    1
    18     3     4    2
    19     3     2    1
    20    67    66    1
    21    67    70    1
    22   177   179   ar
    23   177   180   ar
    24   179   181   ar
    25     7     6    2
    26    66    72    1
    27   180   182   ar
    28   181   183   ar
    29    62    60   ar
    30    62    64   ar
    31    70    71    1
    32     6     8   am
    33     6     5    1
    34     2     5    1
    35     2     1    1
    36    60    59   ar
    37   172   173    2
    38   182   183   ar
    39    65    64    1
    40    55    56    1
    41    55    54    1
    42    55    58    1
    43    42    43    1
    44    64    63   ar
    45    56    57    2
    46    72    71    1
    47    59    58    1
    48    59    61   ar
    49    43    46    1
    50    43    44    1
    51    63    61   ar
    52    46    47    1
    53    44    45    2
    54    48    47   ar
    55    48    50   ar
    56    89    87   ar
    57    89    90   ar
    58    87    86   ar
    59    47    49   ar
    60    84    83    2
    61   141   142    1
    62   141   138    1
    63    50    52   ar
    64   142   144   ar
    65   142   143   ar
    66    90    88   ar
    67    86    85    1
    68    86    88   ar
    69   138   137    1
    70   138   139    1
    71    83    82    1
    72    85    82    1
    73    49    51   ar
    74   140   139    2
    75    52    51   ar
    76    52    53    1
    77    82    81    1
    78   161   160    1
    79   108   106   ar
    80   134   135    1
    81   134   131    1
    82    41    39    1
    83   160   159    1
    84   135   136    1
    85    76    75    2
    86   128   129   ar
    87   128   126   ar
    88   132   131    1
    89   132   133    2
    90   106   105    1
    91   106   107   ar
    92   129   127   ar
    93    27    29   ar
    94    27    26   ar
    95   103   102    2
    96   131   130    1
    97   105   104    1
    98    79    78   ar
    99    80    78   ar
   100    39    40    1
   101    39    38    2
   102    29    30   ar
   103    75    74    1
   104    78    77    1
   105   102   101    1
   106   126   125   ar
   107   158   159    1
   108   158   155    1
   109   136   130    1
   110    77    74    1
   111    25    26    1
   112    25    22    1
   113    26    28   ar
   114   127   125   ar
   115    38    37    1
   116   104   101    1
   117   157   156    2
   118    74    73    1
   119   156   155    1
   120    30    28   ar
   121   125   124    1
   122   101   100    1
   123    24    23    2
   124   155   154    1
   125    94    93    2
   126    23    22    1
   127   153   151   ar
   128    22    21    1
   129    98    97   ar
   130    37    36    1
   131    93    92    1
   132   124   121    1
   133    97    96    1
   134    97    99   ar
   135   151   152   ar
   136   151   150    1
   137    36    35    1
   138    96    95    1
   139    34    33    2
   140   119   117    1
   141    33    32    1
   142   122   121    1
   143   122   123    2
   144    95    92    1
   145   121   120    1
   146    35    32    1
   147    92    91    1
   148   150   149    1
   149   117   116    2
   150   117   118    1
   151    32    31    1
   152   116   115    1
   153    20    19    1
   154   112   111    2
   155    17    19   ar
   156    17    15   ar
   157   113   114    1
   158   113   110    1
   159   149   146    1
   160   111   110    1
   161    19    18   ar
   162   114   115    1
   163   147   148    2
   164   147   146    1
   165    15    14   ar
   166   110   109    1
   167   146   145    1
   168    12    11    2
   169    18    16   ar
   170    11    10    1
   171    14    16   ar
   172    14    13    1
   173    13    10    1
   174    10     9    1
