@<TRIPOS>MOLECULE
tmp/3qktB00.pdb
 104 104 0 0 0
SMALL
GASTEIGER

@<TRIPOS>ATOM
      1  N          7.5630    6.1440    6.6870 N.3   200  LYS200     -0.1231
      2  CA         8.3530    5.8740    5.4880 C.3   200  LYS200      0.1693
      3  C          9.8160    5.6080    5.8600 C.2   200  LYS200      0.2592
      4  O         10.4770    4.7570    5.2740 O.2   200  LYS200     -0.2718
      5  CB         8.2620    7.0530    4.5100 C.3   200  LYS200      0.0285
      6  CG         8.8920    6.7680    3.1610 C.3   200  LYS200      0.0035
      7  CD         8.7520    7.9430    2.2070 C.3   200  LYS200      0.0206
      8  CE         9.4540    7.6520    0.8840 C.3   200  LYS200      0.1093
      9  NZ         9.2370    8.7460   -0.1170 N.3   200  LYS200     -0.1314
     10  N         10.3240    6.3680    6.8230 N.am  201  TYR201     -0.1976
     11  CA        11.6680    6.1580    7.3370 C.3   201  TYR201      0.1639
     12  C         11.5650    5.7440    8.7950 C.2   201  TYR201      0.2290
     13  O         10.9910    6.4520    9.6200 O.2   201  TYR201     -0.2864
     14  CB        12.5190    7.4240    7.1830 C.3   201  TYR201      0.0560
     15  CG        12.6430    7.8610    5.7440 C.ar  201  TYR201     -0.0198
     16  CD1       13.6400    7.3490    4.9290 C.ar  201  TYR201     -0.0009
     17  CD2       11.7520    8.7680    5.1950 C.ar  201  TYR201     -0.0009
     18  CE1       13.7580    7.7440    3.6100 C.ar  201  TYR201      0.0417
     19  CE2       11.8580    9.1660    3.8710 C.ar  201  TYR201      0.0417
     20  CZ        12.8650    8.6520    3.0850 C.ar  201  TYR201      0.1957
     21  OH        12.9890    9.0460    1.7710 O.3   201  TYR201     -0.2866
     22  N         15.5870    3.2920    5.5450 N.3   219  TRP219     -0.1241
     23  CA        14.4950    3.0870    4.5990 C.3   219  TRP219      0.1605
     24  C         14.5350    1.6390    4.1570 C.2   219  TRP219      0.2264
     25  O         15.5890    1.1410    3.7590 O.2   219  TRP219     -0.2867
     26  CB        14.6620    4.0090    3.3910 C.3   219  TRP219      0.0550
     27  CG        13.5660    3.9220    2.3740 C.ar  219  TRP219      0.0003
     28  CD1       12.3620    4.5660    2.4100 C.ar  219  TRP219      0.0946
     29  CD2       13.5840    3.1780    1.1530 C.ar  219  TRP219      0.0152
     30  NE1       11.6260    4.2580    1.2950 N.ar  219  TRP219     -0.2442
     31  CE2       12.3520    3.4060    0.5070 C.ar  219  TRP219      0.0810
     32  CE3       14.5150    2.3270    0.5470 C.ar  219  TRP219      0.0012
     33  CZ2       12.0310    2.8220   -0.7130 C.ar  219  TRP219      0.0191
     34  CZ3       14.1930    1.7490   -0.6670 C.ar  219  TRP219      0.0001
     35  CH2       12.9630    1.9950   -1.2820 C.ar  219  TRP219      0.0015
     36  N         21.2520   12.3080    1.0610 N.3   227  THR227     -0.1203
     37  CA        20.9200   12.5850   -0.3330 C.3   227  THR227      0.1994
     38  C         19.7520   11.7470   -0.8230 C.2   227  THR227      0.2618
     39  O         19.1800   12.0310   -1.8700 O.2   227  THR227     -0.2717
     40  CB        22.1130   12.3250   -1.2850 C.3   227  THR227      0.1784
     41  OG1       22.6520   11.0230   -1.0440 O.3   227  THR227     -0.2211
     42  CG2       23.1980   13.3670   -1.0940 C.3   227  THR227      0.0376
     43  N         19.4210   10.7030   -0.0740 N.am  228  PHE228     -0.1961
     44  CA        18.3160    9.8240   -0.4210 C.3   228  PHE228      0.1771
     45  C         16.9920   10.5830   -0.2960 C.2   228  PHE228      0.2619
     46  O         16.0490   10.3280   -1.0400 O.2   228  PHE228     -0.2715
     47  CB        18.3190    8.6200    0.5250 C.3   228  PHE228      0.0574
     48  CG        17.4940    7.4470    0.0460 C.ar  228  PHE228     -0.0200
     49  CD1       18.0930    6.3850   -0.6130 C.ar  228  PHE228     -0.0042
     50  CD2       16.1270    7.3920    0.2890 C.ar  228  PHE228     -0.0042
     51  CE1       17.3450    5.2890   -1.0400 C.ar  228  PHE228     -0.0003
     52  CE2       15.3700    6.3050   -0.1350 C.ar  228  PHE228     -0.0003
     53  CZ        15.9840    5.2480   -0.8020 C.ar  228  PHE228     -0.0000
     54  N         16.9300   11.5190    0.6500 N.am  229  LEU229     -0.1963
     55  CA        15.6890   12.2460    0.9300 C.3   229  LEU229      0.1728
     56  C         15.2640   13.1630   -0.2040 C.2   229  LEU229      0.2617
     57  O         16.0930   13.6520   -0.9670 O.2   229  LEU229     -0.2715
     58  CB        15.8130   13.0650    2.2210 C.3   229  LEU229      0.0311
     59  CG        16.0990   12.2570    3.4910 C.3   229  LEU229      0.0022
     60  CD1       16.1550   13.1670    4.7140 C.3   229  LEU229      0.0001
     61  CD2       15.0470   11.1690    3.6680 C.3   229  LEU229      0.0001
     62  N         13.9620   13.3970   -0.3050 N.am  230  SER230     -0.1936
     63  CA        13.4480   14.4280   -1.1890 C.3   230  SER230      0.2055
     64  C         13.5990   15.7970   -0.5100 C.2   230  SER230      0.2644
     65  O         13.9790   15.8800    0.6650 O.2   230  SER230     -0.2714
     66  CB        11.9800   14.1700   -1.5200 C.3   230  SER230      0.2130
     67  OG        11.1380   14.5790   -0.4570 O.3   230  SER230     -0.2179
     68  N         13.2870   16.8620   -1.2480 N.am  231  GLY231     -0.1939
     69  CA        13.4150   18.2160   -0.7310 C.3   231  GLY231      0.2014
     70  C         12.5600   18.4570    0.5010 C.2   231  GLY231      0.2639
     71  O         13.0350   18.9690    1.5130 O.2   231  GLY231     -0.2714
     72  N         11.2930   18.0670    0.4180 N.am  232  GLY232     -0.1939
     73  CA        10.3880   18.1870    1.5500 C.3   232  GLY232      0.2014
     74  C         10.7670   17.2780    2.7000 C.2   232  GLY232      0.2638
     75  O         10.5980   17.6270    3.8690 O.2   232  GLY232     -0.2714
     76  N         11.2690   16.0900    2.3750 N.am  233  GLU233     -0.1977
     77  CA        11.7100   15.1790    3.4200 C.3   233  GLU233      0.1602
     78  C         12.8910   15.7270    4.1970 C.2   233  GLU233      0.2287
     79  O         13.0060   15.5220    5.4100 O.2   233  GLU233     -0.2864
     80  CB        12.0150   13.8000    2.8300 C.3   233  GLU233      0.0415
     81  CG        10.7320   13.0910    2.4360 C.3   233  GLU233      0.1163
     82  CD        10.9730   11.8310    1.6270 C.2   233  GLU233      0.3649
     83  OE1       12.1370   11.5660    1.2320 O.co2 233  GLU233     -0.2457
     84  OE2        9.9810   11.1240    1.3790 O.co2 233  GLU233     -0.2457
     85  N          8.6620   23.9330    1.5130 N.3   264  TYR264     -0.1241
     86  CA         8.7670   22.6510    0.8020 C.3   264  TYR264      0.1605
     87  C          7.8380   21.5430    1.3010 C.2   264  TYR264      0.2264
     88  O          7.7700   20.4820    0.6910 O.2   264  TYR264     -0.2867
     89  CB        10.2190   22.1450    0.7570 C.3   264  TYR264      0.0534
     90  CG        11.1640   23.1050    0.0600 C.ar  264  TYR264     -0.0201
     91  CD1       11.0790   23.3340   -1.3140 C.ar  264  TYR264     -0.0009
     92  CD2       12.1180   23.8110    0.7830 C.ar  264  TYR264     -0.0009
     93  CE1       11.9370   24.2290   -1.9450 C.ar  264  TYR264      0.0417
     94  CE2       12.9660   24.7000    0.1680 C.ar  264  TYR264      0.0417
     95  CZ        12.8790   24.9050   -1.1930 C.ar  264  TYR264      0.1957
     96  OH        13.7420   25.7980   -1.7860 O.3   264  TYR264     -0.2866
     97  N          4.4630   19.5440    1.7710 N.3   266  ASP266     -0.1239
     98  CA         3.1620   19.4360    1.1120 C.3   266  ASP266      0.1674
     99  C          2.0160   19.5730    2.1290 C.2   266  ASP266      0.2266
    100  O          2.2530   19.6730    3.3270 O.2   266  ASP266     -0.2867
    101  CB         3.0430   18.1440    0.2850 C.3   266  ASP266      0.1410
    102  CG         3.1710   16.8810    1.1240 C.2   266  ASP266      0.3668
    103  OD1        2.8780   16.9140    2.3430 O.co2 266  ASP266     -0.2456
    104  OD2        3.5520   15.8350    0.5510 O.co2 266  ASP266     -0.2456
@<TRIPOS>BOND
     1    93    91   ar
     2    93    95   ar
     3    39    38    2
     4    96    95    1
     5    66    63    1
     6    66    67    1
     7    91    90   ar
     8    40    42    1
     9    40    41    1
    10    40    37    1
    11    35    33   ar
    12    35    34   ar
    13    68    69    1
    14    68    64   am
    15    95    94   ar
    16    63    64    1
    17    63    62    1
    18    46    45    2
    19    51    53   ar
    20    51    49   ar
    21    57    56    2
    22    38    37    1
    23    38    43   am
    24    53    52   ar
    25    69    70    1
    26    33    31   ar
    27    34    32   ar
    28    49    48   ar
    29    64    65    2
    30    44    45    1
    31    44    43    1
    32    44    47    1
    33    37    36    1
    34    62    56   am
    35    45    54   am
    36    56    55    1
    37    52    50   ar
    38     9     8    1
    39    48    50   ar
    40    48    47    1
    41    90    89    1
    42    90    92   ar
    43    94    92   ar
    44   101    98    1
    45   101   102    1
    46    72    70   am
    47    72    73    1
    48    70    71    2
    49    31    29   ar
    50    31    30   ar
    51    32    29   ar
    52   104   102   ar
    53    54    55    1
    54    88    87    2
    55    89    86    1
    56    86    87    1
    57    86    85    1
    58     8     7    1
    59    55    58    1
    60    98    97    1
    61    98    99    1
    62   102   103   ar
    63    29    27   ar
    64    83    82   ar
    65    30    28   ar
    66    84    82   ar
    67    73    74    1
    68    82    81    1
    69    21    20    1
    70    99   100    2
    71     7     6    1
    72    58    59    1
    73    27    28   ar
    74    27    26    1
    75    76    74   am
    76    76    77    1
    77    81    80    1
    78    74    75    2
    79    80    77    1
    80    20    18   ar
    81    20    19   ar
    82     6     5    1
    83    26    23    1
    84    77    78    1
    85    59    61    1
    86    59    60    1
    87    18    16   ar
    88    25    24    2
    89    19    17   ar
    90    24    23    1
    91    78    79    2
    92     5     2    1
    93    23    22    1
    94    16    15   ar
    95    17    15   ar
    96     4     3    2
    97     2     3    1
    98     2     1    1
    99    15    14    1
   100     3    10   am
   101    10    11    1
   102    14    11    1
   103    11    12    1
   104    12    13    2
