@<TRIPOS>MOLECULE
tmp/3qktA00.pdb
 132 124 0 0 0
SMALL
GASTEIGER

@<TRIPOS>ATOM
      1  N         16.7380    6.5750   -8.7480 N.3    12  ARG12      -0.1231
      2  CA        16.0650    6.8850   -7.4890 C.3    12  ARG12       0.1694
      3  C         14.7260    6.1410   -7.4100 C.2    12  ARG12       0.2592
      4  O         14.7000    4.9150   -7.5040 O.2    12  ARG12      -0.2718
      5  CB        15.9250    8.4050   -7.2880 C.3    12  ARG12       0.0321
      6  CG        17.2850    9.1180   -7.1520 C.3    12  ARG12       0.0489
      7  CD        17.1870   10.6490   -7.0740 C.3    12  ARG12       0.2205
      8  NE        16.3190   11.1170   -5.9940 N.pl3  12  ARG12      -0.0865
      9  CZ        16.7130   11.3130   -4.7370 C.cat  12  ARG12       0.5346
     10  NH1       17.9680   11.0690   -4.3740 N.pl3  12  ARG12       0.1354
     11  NH2       15.8450   11.7500   -3.8330 N.pl3  12  ARG12       0.1354
     12  N         13.6190    6.8620   -7.2540 N.am   13  SER13      -0.1952
     13  CA        12.3120    6.2100   -7.1050 C.3    13  SER13       0.1924
     14  C         11.7120    5.6780   -8.4140 C.2    13  SER13       0.2314
     15  O         10.6960    4.9890   -8.3990 O.2    13  SER13      -0.2863
     16  CB        11.3200    7.1770   -6.4580 C.3    13  SER13       0.2116
     17  OG        11.2340    8.3630   -7.2250 O.3    13  SER13      -0.2180
     18  N          5.3550   15.2270   -1.3830 N.3    32  ASN32      -0.1225
     19  CA         6.7370   15.0370   -0.9650 C.3    32  ASN32       0.1785
     20  C          7.1080   13.5630   -1.1480 C.2    32  ASN32       0.2598
     21  O          6.3120   12.6820   -0.8310 O.2    32  ASN32      -0.2718
     22  CB         6.9360   15.4370    0.5010 C.3    32  ASN32       0.1169
     23  CG         6.6750   16.9220    0.7600 C.2    32  ASN32       0.2627
     24  OD1        6.2600   17.3020    1.8580 O.2    32  ASN32      -0.2716
     25  ND2        6.9250   17.7620   -0.2420 N.am   32  ASN32      -0.0877
     26  N          8.3060   13.3070   -1.6710 N.am   33  GLY33      -0.1942
     27  CA         8.8140   11.9600   -1.8460 C.3    33  GLY33       0.2014
     28  C          8.2010   11.1270   -2.9610 C.2    33  GLY33       0.2640
     29  O          8.3040    9.8910   -2.9430 O.2    33  GLY33      -0.2714
     30  N          7.5860   11.7810   -3.9410 N.am   34  SER34      -0.1935
     31  CA         6.8800   11.0620   -5.0030 C.3    34  SER34       0.2055
     32  C          7.7170   10.7410   -6.2570 C.2    34  SER34       0.2644
     33  O          7.4270    9.7620   -6.9550 O.2    34  SER34      -0.2714
     34  CB         5.5700   11.7750   -5.3860 C.3    34  SER34       0.2130
     35  OG         5.8080   13.0680   -5.9120 O.3    34  SER34      -0.2179
     36  N          8.7430   11.5460   -6.5380 N.am   35  GLY35      -0.1939
     37  CA         9.5990   11.3270   -7.7010 C.3    35  GLY35       0.2014
     38  C          9.7510   12.4870   -8.6950 C.2    35  GLY35       0.2639
     39  O         10.3370   12.3220   -9.7670 O.2    35  GLY35      -0.2714
     40  N          9.2320   13.6550   -8.3420 N.am   36  LYS36      -0.1963
     41  CA         9.2960   14.8430   -9.2080 C.3    36  LYS36       0.1728
     42  C         10.7330   15.2940   -9.5200 C.2    36  LYS36       0.2617
     43  O         11.1340   15.3480  -10.6820 O.2    36  LYS36      -0.2715
     44  CB         8.5410   15.9970   -8.5520 C.3    36  LYS36       0.0311
     45  CG         7.0460   15.7300   -8.3570 C.3    36  LYS36       0.0038
     46  CD         6.4400   16.7330   -7.4010 C.3    36  LYS36       0.0206
     47  CE         7.0140   16.5650   -5.9960 C.3    36  LYS36       0.1093
     48  NZ         6.6750   17.7020   -5.0980 N.3    36  LYS36      -0.1314
     49  N         11.4980   15.6300   -8.4890 N.am   37  SER37      -0.1936
     50  CA        12.8820   16.0630   -8.7010 C.3    37  SER37       0.2055
     51  C         13.7380   14.9310   -9.2690 C.2    37  SER37       0.2643
     52  O         14.6900   15.1840  -10.0060 O.2    37  SER37      -0.2714
     53  CB        13.5240   16.5660   -7.4030 C.3    37  SER37       0.2130
     54  OG        12.8050   17.6700   -6.8980 O.3    37  SER37      -0.2179
     55  N         13.4170   13.6910   -8.9130 N.am   38  SER38      -0.1949
     56  CA        14.1930   12.5580   -9.4220 C.3    38  SER38       0.1924
     57  C         14.1140   12.5280  -10.9390 C.2    38  SER38       0.2314
     58  O         15.0970   12.2270  -11.6240 O.2    38  SER38      -0.2863
     59  CB        13.6900   11.2340   -8.8490 C.3    38  SER38       0.2116
     60  OG        13.8670   11.1910   -7.4460 O.3    38  SER38      -0.2180
     61  N         24.7790    6.3510   -5.8080 N.3    60  GLU60      -0.1245
     62  CA        23.6080    6.6170   -4.9830 C.3    60  GLU60       0.1567
     63  C         22.3040    6.5950   -5.7750 C.2    60  GLU60       0.2260
     64  O         21.2610    6.2060   -5.2420 O.2    60  GLU60      -0.2867
     65  CB        23.7460    7.9660   -4.2630 C.3    60  GLU60       0.0388
     66  CG        24.8480    7.9970   -3.2150 C.3    60  GLU60       0.1160
     67  CD        25.0040    9.3590   -2.5730 C.2    60  GLU60       0.3649
     68  OE1       24.4610   10.3430   -3.1210 O.co2  60  GLU60      -0.2457
     69  OE2       25.6670    9.4450   -1.5190 O.co2  60  GLU60      -0.2457
     70  N         21.2660    4.8470   -8.4600 N.3    62  THR62      -0.1203
     71  CA        20.6870    3.5820   -8.9210 C.3    62  THR62       0.1994
     72  C         19.6000    3.1410   -7.9470 C.2    62  THR62       0.2618
     73  O         19.8350    3.0770   -6.7400 O.2    62  THR62      -0.2717
     74  CB        21.7550    2.4810   -9.0650 C.3    62  THR62       0.1784
     75  OG1       22.6520    2.8390  -10.1210 O.3    62  THR62      -0.2211
     76  CG2       21.1050    1.1480   -9.3970 C.3    62  THR62       0.0376
     77  N         18.4040    2.8660   -8.4580 N.am   63  LYS63      -0.1965
     78  CA        17.2950    2.4830   -7.5860 C.3    63  LYS63       0.1728
     79  C         17.6740    1.3210   -6.6680 C.2    63  LYS63       0.2616
     80  O         18.2790    0.3530   -7.1140 O.2    63  LYS63      -0.2715
     81  CB        16.0530    2.1250   -8.4030 C.3    63  LYS63       0.0311
     82  CG        14.8080    1.8920   -7.5450 C.3    63  LYS63       0.0038
     83  CD        13.5430    2.0110   -8.3810 C.3    63  LYS63       0.0206
     84  CE        12.3180    2.1900   -7.5010 C.3    63  LYS63       0.1093
     85  NZ        12.1330    1.0190   -6.6070 N.3    63  LYS63      -0.1314
     86  N         17.3270    1.4230   -5.3860 N.am   64  VAL64      -0.1977
     87  CA        17.6000    0.3370   -4.4470 C.3    64  VAL64       0.1596
     88  C         17.0600   -0.9840   -4.9920 C.2    64  VAL64       0.2287
     89  O         15.9300   -1.0450   -5.4700 O.2    64  VAL64      -0.2864
     90  CB        17.0010    0.6090   -3.0470 C.3    64  VAL64       0.0276
     91  CG1       17.0000   -0.6490   -2.2090 C.3    64  VAL64       0.0022
     92  CG2       17.7660    1.7270   -2.3360 C.3    64  VAL64       0.0022
     93  N         15.4390   22.4180   -7.4580 N.3   140  GLN140     -0.1245
     94  CA        14.7550   22.6950   -6.2070 C.3   140  GLN140      0.1566
     95  C         15.7210   23.3780   -5.2490 C.2   140  GLN140      0.2260
     96  O         16.8520   22.9270   -5.0710 O.2   140  GLN140     -0.2867
     97  CB        14.2430   21.4090   -5.5650 C.3   140  GLN140      0.0367
     98  CG        13.3860   21.6310   -4.3100 C.3   140  GLN140      0.0905
     99  CD        12.6260   20.3820   -3.9770 C.2   140  GLN140      0.2608
    100  OE1       12.7810   19.3950   -4.6710 O.2   140  GLN140     -0.2717
    101  NE2       11.8140   20.4030   -2.9160 N.am  140  GLN140     -0.0878
    102  N          9.4950   23.2810   -7.8080 N.3   280  GLU280     -0.1245
    103  CA         8.8950   23.8600   -6.5920 C.3   280  GLU280      0.1567
    104  C          9.1120   25.3580   -6.4470 C.2   280  GLU280      0.2260
    105  O         10.0280   25.7900   -5.7520 O.2   280  GLU280     -0.2867
    106  CB         9.3760   23.1630   -5.3150 C.3   280  GLU280      0.0388
    107  CG         9.3090   21.6590   -5.3670 C.3   280  GLU280      0.1160
    108  CD         7.9120   21.0970   -5.1730 C.2   280  GLU280      0.3649
    109  OE1        6.9500   21.8590   -4.8680 O.co2 280  GLU280     -0.2457
    110  OE2        7.7860   19.8650   -5.3320 O.co2 280  GLU280     -0.2457
    111  N          4.1510   20.4620   -5.4730 N.3   312  HIS312     -0.1241
    112  CA         3.2130   19.7120   -4.6450 C.3   312  HIS312      0.1621
    113  C          1.9100   20.4990   -4.4830 C.2   312  HIS312      0.2264
    114  O          0.9420   20.0010   -3.9200 O.2   312  HIS312     -0.2867
    115  CB         3.8220   19.4330   -3.2640 C.3   312  HIS312      0.0745
    116  CG         4.1770   20.6700   -2.4980 C.ar  312  HIS312      0.0817
    117  ND1        3.2330   21.4510   -1.8670 N.ar  312  HIS312     -0.2268
    118  CD2        5.3720   21.2650   -2.2660 C.ar  312  HIS312      0.1154
    119  CE1        3.8300   22.4760   -1.2840 C.ar  312  HIS312      0.1986
    120  NE2        5.1290   22.3840   -1.5080 N.ar  312  HIS312     -0.2212
    121  N          4.0160    7.7810   -5.3200 N.3   328  LEU328     -0.1245
    122  CA         4.8710    6.6830   -4.9070 C.3   328  LEU328      0.1561
    123  C          4.0180    5.4690   -4.5590 C.2   328  LEU328      0.2260
    124  O          3.1600    5.5360   -3.6780 O.2   328  LEU328     -0.2867
    125  CB         5.7110    7.1070   -3.7030 C.3   328  LEU328      0.0270
    126  CG         7.0130    6.3420   -3.4810 C.3   328  LEU328      0.0019
    127  CD1        7.9920    6.6270   -4.6080 C.3   328  LEU328      0.0001
    128  CD2        7.6060    6.7300   -2.1470 C.3   328  LEU328      0.0001
    129  N          7.0610    1.6580   -3.3930 N.3   331  GLY331     -0.1225
    130  CA         8.4310    2.1330   -3.4430 C.3   331  GLY331      0.1811
    131  C          8.9160    2.4860   -4.8390 C.2   331  GLY331      0.2280
    132  O         10.1180    2.5800   -5.0810 O.2   331  GLY331     -0.2866
@<TRIPOS>BOND
     1    58    57    2
     2    57    56    1
     3    43    42    2
     4    75    74    1
     5    52    51    2
     6    39    38    2
     7    42    41    1
     8    42    49   am
     9    56    55    1
    10    56    59    1
    11    76    74    1
    12    51    55   am
    13    51    50    1
    14    41    44    1
    15    41    40    1
    16    74    71    1
    17    71    70    1
    18    71    72    1
    19    59    60    1
    20     1     2    1
    21    50    49    1
    22    50    53    1
    23    38    40   am
    24    38    37    1
    25    44    45    1
    26    77    72   am
    27    77    78    1
    28    14    15    2
    29    14    13    1
    30    81    78    1
    31    81    82    1
    32    83    82    1
    33    83    84    1
    34    45    46    1
    35    72    73    2
    36   102   103    1
    37    37    36    1
    38    78    79    1
    39     4     3    2
    40    84    85    1
    41     2     3    1
    42     2     5    1
    43    93    94    1
    44     3    12   am
    45    53    54    1
    46    46    47    1
    47     5     6    1
    48    12    13    1
    49    17    16    1
    50     6     7    1
    51    80    79    2
    52    13    16    1
    53     7     8    1
    54    33    32    2
    55    79    86   am
    56   103   104    1
    57   103   106    1
    58    36    32   am
    59   104   105    2
    60    32    31    1
    61    94    97    1
    62    94    95    1
    63    47    48    1
    64     8     9    2
    65    35    34    1
    66    61    62    1
    67    63    64    2
    68    63    62    1
    69    97    98    1
    70   111   112    1
    71    89    88    2
    72    34    31    1
    73    86    87    1
    74   107   106    1
    75   107   108    1
    76   110   108   ar
    77   121   122    1
    78    95    96    2
    79   108   109   ar
    80   132   131    2
    81    31    30    1
    82    88    87    1
    83    62    65    1
    84   122   123    1
    85   122   125    1
    86   131   130    1
    87     9    10    1
    88     9    11    1
    89   100    99    2
    90   112   113    1
    91   112   115    1
    92   127   126    1
    93   123   124    2
    94   113   114    2
    95    87    90    1
    96    98    99    1
    97    65    66    1
    98    99   101   am
    99    30    28   am
   100   125   126    1
   101   126   128    1
   102   130   129    1
   103   115   116    1
   104    66    67    1
   105    68    67   ar
   106    90    92    1
   107    90    91    1
   108    28    29    2
   109    28    27    1
   110    67    69   ar
   111   116   118   ar
   112   116   117   ar
   113   118   120   ar
   114   117   119   ar
   115    27    26    1
   116    26    20   am
   117   120   119   ar
   118    18    19    1
   119    20    19    1
   120    20    21    2
   121    19    22    1
   122    25    23   am
   123    22    23    1
   124    23    24    2
