@<TRIPOS>MOLECULE
tmp/3qktB01.pdb
 141 133 0 0 0
SMALL
GASTEIGER

@<TRIPOS>ATOM
      1  N         14.4790   47.6970   10.8320 N.3    12  ARG12      -0.1231
      2  CA        13.8010   47.2950    9.6070 C.3    12  ARG12       0.1694
      3  C         12.3750   47.8690    9.5680 C.2    12  ARG12       0.2592
      4  O         12.1960   49.0850    9.6790 O.2    12  ARG12      -0.2718
      5  CB        13.8720   45.7590    9.4110 C.3    12  ARG12       0.0321
      6  CG        15.3080   45.2680    9.1240 C.3    12  ARG12       0.0489
      7  CD        15.4640   43.7200    9.0000 C.3    12  ARG12       0.2205
      8  NE        14.6020   43.1300    7.9700 N.pl3  12  ARG12      -0.0865
      9  CZ        14.9200   43.0220    6.6810 C.cat  12  ARG12       0.5346
     10  NH1       16.0850   43.4660    6.2280 N.pl3  12  ARG12       0.1354
     11  NH2       14.0630   42.4610    5.8330 N.pl3  12  ARG12       0.1354
     12  N         11.3630   47.0190    9.4240 N.am   13  SER13      -0.1952
     13  CA         9.9780   47.4970    9.3270 C.3    13  SER13       0.1924
     14  C          9.3830   47.9690   10.6570 C.2    13  SER13       0.2314
     15  O          8.2880   48.5240   10.6840 O.2    13  SER13      -0.2863
     16  CB         9.0880   46.3700    8.7820 C.3    13  SER13       0.2116
     17  OG         9.2660   45.2050    9.5750 O.3    13  SER13      -0.2180
     18  N          2.0910   37.8180    7.1690 N.3    31  GLN31      -0.1231
     19  CA         2.3240   37.6150    5.7400 C.3    31  GLN31       0.1698
     20  C          3.7760   37.8660    5.3530 C.2    31  GLN31       0.2592
     21  O          4.5840   38.3090    6.1780 O.2    31  GLN31      -0.2718
     22  CB         1.4200   38.5360    4.9110 C.3    31  GLN31       0.0381
     23  CG        -0.0630   38.1810    4.9750 C.3    31  GLN31       0.0905
     24  CD        -0.8820   38.9530    3.9500 C.2    31  GLN31       0.2608
     25  OE1       -1.1520   38.4570    2.8530 O.2    31  GLN31      -0.2717
     26  NE2       -1.2730   40.1750    4.3000 N.am   31  GLN31      -0.0878
     27  N          4.1000   37.6020    4.0880 N.am   32  ASN32      -0.1960
     28  CA         5.4190   37.9530    3.5690 C.3    32  ASN32       0.1819
     29  C          5.6010   39.4570    3.7360 C.2    32  ASN32       0.2622
     30  O          4.6800   40.2250    3.4670 O.2    32  ASN32      -0.2715
     31  CB         5.5610   37.5970    2.0830 C.3    32  ASN32       0.1195
     32  CG         5.4790   36.0850    1.8030 C.2    32  ASN32       0.2630
     33  OD1        4.9970   35.6770    0.7420 O.2    32  ASN32      -0.2716
     34  ND2        5.9650   35.2620    2.7310 N.am   32  ASN32      -0.0877
     35  N          6.7700   39.8790    4.2000 N.am   33  GLY33      -0.1940
     36  CA         7.0600   41.2980    4.3220 C.3    33  GLY33       0.2014
     37  C          6.4010   42.0230    5.4900 C.2    33  GLY33       0.2640
     38  O          6.3290   43.2460    5.4890 O.2    33  GLY33      -0.2714
     39  N          5.9380   41.2870    6.4970 N.am   34  SER34      -0.1935
     40  CA         5.2200   41.9200    7.6060 C.3    34  SER34       0.2055
     41  C          6.0890   42.3570    8.7950 C.2    34  SER34       0.2644
     42  O          5.7160   43.2830    9.5090 O.2    34  SER34      -0.2714
     43  CB         4.0690   41.0390    8.0940 C.3    34  SER34       0.2130
     44  OG         4.5540   39.7950    8.5800 O.3    34  SER34      -0.2179
     45  N          7.2210   41.6900    9.0130 N.am   35  GLY35      -0.1939
     46  CA         8.1240   42.0450   10.1060 C.3    35  GLY35       0.2014
     47  C          8.4890   40.9330   11.0910 C.2    35  GLY35       0.2639
     48  O          9.0580   41.1980   12.1530 O.2    35  GLY35      -0.2714
     49  N          8.1770   39.6860   10.7420 N.am   36  LYS36      -0.1963
     50  CA         8.4400   38.5420   11.6310 C.3    36  LYS36       0.1728
     51  C          9.9330   38.2850   11.8500 C.2    36  LYS36       0.2617
     52  O         10.4100   38.2610   12.9830 O.2    36  LYS36      -0.2715
     53  CB         7.8140   37.2570   11.0700 C.3    36  LYS36       0.0311
     54  CG         6.2960   37.2550   10.9580 C.3    36  LYS36       0.0038
     55  CD         5.8310   36.0990   10.0630 C.3    36  LYS36       0.0206
     56  CE         6.2660   36.3170    8.6130 C.3    36  LYS36       0.1093
     57  NZ         5.9600   35.1610    7.7350 N.3    36  LYS36      -0.1314
     58  N         10.6640   38.0430   10.7660 N.am   37  SER37      -0.1936
     59  CA        12.0990   37.7990   10.8860 C.3    37  SER37       0.2055
     60  C         12.8550   39.0100   11.4040 C.2    37  SER37       0.2643
     61  O         13.8750   38.8670   12.0770 O.2    37  SER37      -0.2714
     62  CB        12.6990   37.3560    9.5520 C.3    37  SER37       0.2130
     63  OG        12.0590   36.1800    9.1250 O.3    37  SER37      -0.2179
     64  N         12.3640   40.2010   11.0790 N.am   38  SER38      -0.1949
     65  CA        12.9880   41.4240   11.5760 C.3    38  SER38       0.1924
     66  C         12.9930   41.4140   13.0980 C.2    38  SER38       0.2314
     67  O         13.9780   41.7930   13.7350 O.2    38  SER38      -0.2863
     68  CB        12.2200   42.6590   11.0880 C.3    38  SER38       0.2116
     69  OG        12.2750   42.7740    9.6760 O.3    38  SER38      -0.2180
     70  N         22.2400   49.0590    7.3520 N.3    60  GLU60      -0.1245
     71  CA        21.0690   48.6480    6.5930 C.3    60  GLU60       0.1567
     72  C         19.8130   48.4630    7.4540 C.2    60  GLU60       0.2260
     73  O         18.7000   48.6920    6.9820 O.2    60  GLU60      -0.2867
     74  CB        21.3640   47.3540    5.8280 C.3    60  GLU60       0.0388
     75  CG        22.4400   47.5150    4.7540 C.3    60  GLU60       0.1160
     76  CD        22.6960   46.2350    3.9770 C.2    60  GLU60       0.3649
     77  OE1       22.2490   45.1550    4.4220 O.co2  60  GLU60      -0.2457
     78  OE2       23.3380   46.3130    2.9110 O.co2  60  GLU60      -0.2457
     79  N         18.7490   50.0180   10.2100 N.3    62  THR62      -0.1203
     80  CA        18.0780   51.2210   10.6920 C.3    62  THR62       0.1994
     81  C         16.8790   51.5260    9.7930 C.2    62  THR62       0.2618
     82  O         17.0100   51.6120    8.5750 O.2    62  THR62      -0.2717
     83  CB        19.0220   52.4330   10.7020 C.3    62  THR62       0.1784
     84  OG1       20.1930   52.1160   11.4580 O.3    62  THR62      -0.2211
     85  CG2       18.3290   53.6410   11.3300 C.3    62  THR62       0.0376
     86  N         15.7020   51.6630   10.3910 N.am   63  LYS63      -0.1965
     87  CA        14.5060   51.9120    9.6060 C.3    63  LYS63       0.1728
     88  C         14.6830   53.1420    8.7190 C.2    63  LYS63       0.2616
     89  O         15.1780   54.1820    9.1650 O.2    63  LYS63      -0.2715
     90  CB        13.2700   52.0550   10.5040 C.3    63  LYS63       0.0311
     91  CG        11.9540   52.1780    9.7180 C.3    63  LYS63       0.0038
     92  CD        10.7600   51.9420   10.6390 C.3    63  LYS63       0.0206
     93  CE         9.5450   51.4230    9.8790 C.3    63  LYS63       0.1093
     94  NZ         8.9010   52.4960    9.0600 N.3    63  LYS63      -0.1314
     95  N         14.2940   53.0120    7.4570 N.am   64  VAL64      -0.1977
     96  CA        14.3950   54.1190    6.5170 C.3    64  VAL64       0.1596
     97  C         13.6850   55.3580    7.0620 C.2    64  VAL64       0.2287
     98  O         12.5670   55.2760    7.5720 O.2    64  VAL64      -0.2864
     99  CB        13.8300   53.7400    5.1320 C.3    64  VAL64       0.0276
    100  CG1       13.8450   54.9460    4.2070 C.3    64  VAL64       0.0022
    101  CG2       14.6460   52.5730    4.5220 C.3    64  VAL64       0.0022
    102  N         15.5020   31.8370    9.4320 N.3   140  GLN140     -0.1245
    103  CA        14.7630   31.4510    8.2410 C.3   140  GLN140      0.1566
    104  C         15.7230   30.9010    7.1890 C.2   140  GLN140      0.2260
    105  O         16.7720   31.4770    6.9260 O.2   140  GLN140     -0.2867
    106  CB        13.9550   32.6310    7.6820 C.3   140  GLN140      0.0367
    107  CG        13.0500   32.2840    6.4990 C.3   140  GLN140      0.0905
    108  CD        12.1050   33.4360    6.1900 C.2   140  GLN140      0.2608
    109  OE1       12.1960   34.4690    6.8250 O.2   140  GLN140     -0.2717
    110  NE2       11.2100   33.2600    5.2260 N.am  140  GLN140     -0.0878
    111  N          9.7350   30.1640   10.1570 N.3   260  GLU260     -0.1245
    112  CA         9.1490   29.5550    8.9530 C.3   260  GLU260      0.1567
    113  C          9.4890   28.0830    8.7780 C.2   260  GLU260      0.2260
    114  O         10.3470   27.7360    7.9730 O.2   260  GLU260     -0.2867
    115  CB         9.5420   30.3030    7.6720 C.3   260  GLU260      0.0388
    116  CG         9.2100   31.7600    7.6630 C.3   260  GLU260      0.1160
    117  CD         7.7190   32.0550    7.7140 C.2   260  GLU260      0.3649
    118  OE1        6.8870   31.1680    7.4030 O.co2 260  GLU260     -0.2457
    119  OE2        7.3830   33.1990    8.0730 O.co2 260  GLU260     -0.2457
    120  N          3.8930   32.2860    8.1510 N.3   292  HIS292     -0.1241
    121  CA         2.7690   32.8460    7.4100 C.3   292  HIS292      0.1621
    122  C          1.5960   31.8650    7.3880 C.2   292  HIS292      0.2264
    123  O          0.5250   32.1960    6.8910 O.2   292  HIS292     -0.2867
    124  CB         3.1810   33.1730    5.9750 C.3   292  HIS292      0.0745
    125  CG         3.7260   31.9960    5.2240 C.ar  292  HIS292      0.0817
    126  ND1        2.9200   31.0150    4.6870 N.ar  292  HIS292     -0.2268
    127  CD2        4.9980   31.6360    4.9350 C.ar  292  HIS292      0.1154
    128  CE1        3.6700   30.1050    4.0930 C.ar  292  HIS292      0.1986
    129  NE2        4.9360   30.4590    4.2300 N.ar  292  HIS292     -0.2212
    130  N          1.9260   44.7020    8.1670 N.3   308  LEU308     -0.1245
    131  CA         2.6000   45.9130    7.7390 C.3   308  LEU308      0.1561
    132  C          1.5610   46.9440    7.3420 C.2   308  LEU308      0.2260
    133  O          0.8120   46.7360    6.3930 O.2   308  LEU308     -0.2867
    134  CB         3.5120   45.6100    6.5480 C.3   308  LEU308      0.0270
    135  CG         4.5240   46.7050    6.1970 C.3   308  LEU308      0.0019
    136  CD1        5.7160   46.6450    7.1400 C.3   308  LEU308      0.0001
    137  CD2        4.9910   46.5620    4.7570 C.3   308  LEU308      0.0001
    138  N          3.9670   51.1080    5.8780 N.3   311  GLY311     -0.1225
    139  CA         5.4180   51.0090    5.9280 C.3   311  GLY311      0.1811
    140  C          6.0340   50.6380    7.2660 C.2   311  GLY311      0.2280
    141  O          7.2520   50.6770    7.4160 O.2   311  GLY311     -0.2866
@<TRIPOS>BOND
     1    33    32    2
     2    32    31    1
     3    32    34   am
     4    31    28    1
     5    25    24    2
     6    78    76   ar
     7    30    29    2
     8    28    29    1
     9    28    27    1
    10    29    35   am
    11    24    26   am
    12    24    23    1
    13    76    77   ar
    14    76    75    1
    15    27    20   am
    16   128   129   ar
    17   128   126   ar
    18    35    36    1
    19   100    99    1
    20   129   127   ar
    21    36    37    1
    22   101    99    1
    23   126   125   ar
    24    75    74    1
    25   137   135    1
    26    22    23    1
    27    22    19    1
    28   127   125   ar
    29    99    96    1
    30   125   124    1
    31   110   108   am
    32    20    19    1
    33    20    21    2
    34    38    37    2
    35    37    39   am
    36    19    18    1
    37    74    71    1
    38    11     9    1
    39   138   139    1
    40   139   140    1
    41   124   121    1
    42   108   107    1
    43   108   109    2
    44   135   134    1
    45   135   136    1
    46    10     9    1
    47   133   132    2
    48    39    40    1
    49   107   106    1
    50    96    97    1
    51    96    95    1
    52   134   131    1
    53    71    70    1
    54    71    72    1
    55     9     8    2
    56   123   122    2
    57   105   104    2
    58    73    72    2
    59    97    98    2
    60   104   103    1
    61   140   141    2
    62   132   131    1
    63   122   121    1
    64   118   117   ar
    65   121   120    1
    66    95    88   am
    67    40    43    1
    68    40    41    1
    69   116   115    1
    70   116   117    1
    71   115   112    1
    72   106   103    1
    73   117   119   ar
    74    57    56    1
    75   131   130    1
    76     8     7    1
    77   114   113    2
    78    43    44    1
    79   103   102    1
    80    82    81    2
    81    56    55    1
    82    88    89    2
    83    88    87    1
    84   113   112    1
    85    16    13    1
    86    16    17    1
    87    41    45   am
    88    41    42    2
    89   112   111    1
    90     7     6    1
    91    45    46    1
    92    94    93    1
    93     6     5    1
    94    63    62    1
    95    13    12    1
    96    13    14    1
    97     5     2    1
    98    12     3   am
    99    62    59    1
   100     3     2    1
   101     3     4    2
   102    87    86    1
   103    87    90    1
   104     2     1    1
   105    69    68    1
   106    91    90    1
   107    91    92    1
   108    81    86   am
   109    81    80    1
   110    93    92    1
   111    55    54    1
   112    46    47    1
   113    79    80    1
   114    14    15    2
   115    80    83    1
   116    83    85    1
   117    83    84    1
   118    49    47   am
   119    49    50    1
   120    58    59    1
   121    58    51   am
   122    59    60    1
   123    54    53    1
   124    53    50    1
   125    64    60   am
   126    64    65    1
   127    68    65    1
   128    47    48    2
   129    60    61    2
   130    65    66    1
   131    50    51    1
   132    51    52    2
   133    66    67    2
