@<TRIPOS>MOLECULE
tmp/3qktA01.pdb
 104 104 0 0 0
SMALL
GASTEIGER

@<TRIPOS>ATOM
      1  N          4.5690   47.1110   -4.0430 N.3   220  LYS220     -0.1231
      2  CA         5.4190   47.4400   -2.8970 C.3   220  LYS220      0.1693
      3  C          6.8430   47.7790   -3.3340 C.2   220  LYS220      0.2592
      4  O          7.4590   48.7150   -2.8180 O.2   220  LYS220     -0.2718
      5  CB         5.4460   46.2940   -1.8810 C.3   220  LYS220      0.0285
      6  CG         6.3100   46.5850   -0.6630 C.3   220  LYS220      0.0035
      7  CD         6.2840   45.4000    0.3050 C.3   220  LYS220      0.0206
      8  CE         7.1080   45.6720    1.5530 C.3   220  LYS220      0.1093
      9  NZ         6.9910   44.5400    2.5290 N.3   220  LYS220     -0.1314
     10  N          7.3750   47.0050   -4.2730 N.am  221  TYR221     -0.1976
     11  CA         8.6560   47.3340   -4.8810 C.3   221  TYR221      0.1639
     12  C          8.3870   47.7380   -6.3170 C.2   221  TYR221      0.2290
     13  O          7.7990   46.9710   -7.0770 O.2   221  TYR221     -0.2864
     14  CB         9.6420   46.1670   -4.7910 C.3   221  TYR221      0.0560
     15  CG         9.9110   45.7470   -3.3580 C.ar  221  TYR221     -0.0198
     16  CD1       10.8620   46.4090   -2.5860 C.ar  221  TYR221     -0.0009
     17  CD2        9.1980   44.7120   -2.7750 C.ar  221  TYR221     -0.0009
     18  CE1       11.1060   46.0420   -1.2690 C.ar  221  TYR221      0.0417
     19  CE2        9.4370   44.3280   -1.4600 C.ar  221  TYR221      0.0417
     20  CZ        10.3910   44.9960   -0.7110 C.ar  221  TYR221      0.1957
     21  OH        10.6240   44.6190    0.5980 O.3   221  TYR221     -0.2866
     22  N         12.3200   50.7340   -3.3590 N.3   239  TRP239     -0.1241
     23  CA        11.3080   50.8390   -2.3280 C.3   239  TRP239      0.1605
     24  C         11.2250   52.2790   -1.8530 C.2   239  TRP239      0.2264
     25  O         12.2430   52.8940   -1.5270 O.2   239  TRP239     -0.2867
     26  CB        11.6650   49.9290   -1.1570 C.3   239  TRP239      0.0550
     27  CG        10.6430   49.9080   -0.0720 C.ar  239  TRP239      0.0003
     28  CD1        9.5150   49.1360   -0.0240 C.ar  239  TRP239      0.0946
     29  CD2       10.6580   50.6720    1.1440 C.ar  239  TRP239      0.0152
     30  NE1        8.8250   49.3820    1.1390 N.ar  239  TRP239     -0.2442
     31  CE2        9.5040   50.3190    1.8730 C.ar  239  TRP239      0.0810
     32  CE3       11.5300   51.6240    1.6810 C.ar  239  TRP239      0.0012
     33  CZ2        9.2030   50.8810    3.1150 C.ar  239  TRP239      0.0191
     34  CZ3       11.2220   52.1860    2.9190 C.ar  239  TRP239      0.0001
     35  CH2       10.0720   51.8070    3.6190 C.ar  239  TRP239      0.0015
     36  N         19.2330   42.5950    0.6450 N.3   247  THR247     -0.1203
     37  CA        19.0050   42.2350    2.0390 C.3   247  THR247      0.1994
     38  C         17.7710   42.9400    2.5940 C.2   247  THR247      0.2618
     39  O         17.2590   42.5740    3.6420 O.2   247  THR247     -0.2717
     40  CB        20.1900   42.6290    2.9250 C.3   247  THR247      0.1784
     41  OG1       20.5250   43.9960    2.6720 O.3   247  THR247     -0.2211
     42  CG2       21.3980   41.7390    2.6460 C.3   247  THR247      0.0376
     43  N         17.3030   43.9610    1.8870 N.am  248  PHE248     -0.1961
     44  CA        16.1190   44.6890    2.3200 C.3   248  PHE248      0.1771
     45  C         14.9240   43.7340    2.3040 C.2   248  PHE248      0.2619
     46  O         14.0450   43.8050    3.1570 O.2   248  PHE248     -0.2715
     47  CB        15.8910   45.8780    1.3820 C.3   248  PHE248      0.0574
     48  CG        14.9850   46.9350    1.9280 C.ar  248  PHE248     -0.0200
     49  CD1       13.6150   46.8470    1.7510 C.ar  248  PHE248     -0.0042
     50  CD2       15.5110   48.0540    2.5750 C.ar  248  PHE248     -0.0042
     51  CE1       12.7760   47.8380    2.2320 C.ar  248  PHE248     -0.0003
     52  CE2       14.6760   49.0610    3.0490 C.ar  248  PHE248     -0.0003
     53  CZ        13.3100   48.9500    2.8810 C.ar  248  PHE248     -0.0000
     54  N         14.9140   42.8120    1.3450 N.am  249  LEU249     -0.1963
     55  CA        13.7640   41.9320    1.1590 C.3   249  LEU249      0.1728
     56  C         13.5350   40.9530    2.3010 C.2   249  LEU249      0.2617
     57  O         14.4680   40.5590    3.0060 O.2   249  LEU249     -0.2715
     58  CB        13.8950   41.1410   -0.1430 C.3   249  LEU249      0.0311
     59  CG        13.9960   41.9400   -1.4380 C.3   249  LEU249      0.0022
     60  CD1       14.1180   40.9580   -2.5900 C.3   249  LEU249      0.0001
     61  CD2       12.7870   42.8380   -1.6190 C.3   249  LEU249      0.0001
     62  N         12.2800   40.5510    2.4670 N.am  250  SER250     -0.1936
     63  CA        11.9500   39.4480    3.3570 C.3   250  SER250      0.2055
     64  C         12.2830   38.1170    2.6750 C.2   250  SER250      0.2644
     65  O         12.6100   38.0860    1.4850 O.2   250  SER250     -0.2714
     66  CB        10.4680   39.4900    3.7310 C.3   250  SER250      0.2130
     67  OG         9.6650   39.0220    2.6640 O.3   250  SER250     -0.2179
     68  N         12.1940   37.0240    3.4250 N.am  251  GLY251     -0.1939
     69  CA        12.4770   35.6990    2.8850 C.3   251  GLY251      0.2014
     70  C         11.5490   35.3560    1.7370 C.2   251  GLY251      0.2639
     71  O         12.0010   34.9010    0.6840 O.2   251  GLY251     -0.2714
     72  N         10.2500   35.5830    1.9350 N.am  252  GLY252     -0.1939
     73  CA         9.2730   35.3640    0.8750 C.3   252  GLY252      0.2014
     74  C          9.4450   36.2960   -0.3180 C.2   252  GLY252      0.2638
     75  O          9.2660   35.9060   -1.4720 O.2   252  GLY252     -0.2714
     76  N          9.7870   37.5490   -0.0500 N.am  253  GLU253     -0.1977
     77  CA        10.0440   38.4960   -1.1420 C.3   253  GLU253      0.1602
     78  C         11.2570   38.1080   -1.9880 C.2   253  GLU253      0.2287
     79  O         11.2940   38.3460   -3.2000 O.2   253  GLU253     -0.2864
     80  CB        10.1660   39.9170   -0.5920 C.3   253  GLU253      0.0415
     81  CG         8.8040   40.4680   -0.1580 C.3   253  GLU253      0.1163
     82  CD         8.8990   41.7170    0.7240 C.2   253  GLU253      0.3649
     83  OE1       10.0150   42.0910    1.1490 O.co2 253  GLU253     -0.2457
     84  OE2        7.8420   42.3260    0.9850 O.co2 253  GLU253     -0.2457
     85  N          8.2440   29.3510    0.9440 N.3   284  TYR284     -0.1241
     86  CA         8.2580   30.6130    1.6800 C.3   284  TYR284      0.1605
     87  C          7.1690   31.5980    1.2610 C.2   284  TYR284      0.2264
     88  O          6.9910   32.6240    1.9070 O.2   284  TYR284     -0.2867
     89  CB         9.6340   31.2940    1.5890 C.3   284  TYR284      0.0534
     90  CG        10.7540   30.4750    2.2040 C.ar  284  TYR284     -0.0201
     91  CD1       10.8100   30.2630    3.5780 C.ar  284  TYR284     -0.0009
     92  CD2       11.7470   29.9100    1.4100 C.ar  284  TYR284     -0.0009
     93  CE1       11.8330   29.5230    4.1460 C.ar  284  TYR284      0.0417
     94  CE2       12.7770   29.1580    1.9740 C.ar  284  TYR284      0.0417
     95  CZ        12.8090   28.9740    3.3390 C.ar  284  TYR284      0.1957
     96  OH        13.8110   28.2280    3.9040 O.3   284  TYR284     -0.2866
     97  N          3.5570   33.1780    0.9780 N.3   286  ASP286     -0.1239
     98  CA         2.3140   33.1280    1.7300 C.3   286  ASP286      0.1674
     99  C          1.1160   32.9360    0.7890 C.2   286  ASP286      0.2266
    100  O          1.2730   32.9170   -0.4290 O.2   286  ASP286     -0.2867
    101  CB         2.1510   34.3840    2.5900 C.3   286  ASP286      0.1410
    102  CG         1.9950   35.6480    1.7610 C.2   286  ASP286      0.3668
    103  OD1        1.6390   35.5470    0.5630 O.co2 286  ASP286     -0.2456
    104  OD2        2.2180   36.7460    2.3150 O.co2 286  ASP286     -0.2456
@<TRIPOS>BOND
     1    13    12    2
     2    12    11    1
     3    11    14    1
     4    11    10    1
     5    14    15    1
     6    10     3   am
     7     1     2    1
     8    22    23    1
     9    15    17   ar
    10    15    16   ar
    11     3     2    1
    12     3     4    2
    13    79    78    2
    14     2     5    1
    15    17    19   ar
    16    60    59    1
    17    16    18   ar
    18    23    24    1
    19    23    26    1
    20    78    77    1
    21     5     6    1
    22    24    25    2
    23    61    59    1
    24    75    74    2
    25    19    20   ar
    26    59    58    1
    27    18    20   ar
    28    26    27    1
    29    77    80    1
    30    77    76    1
    31    20    21    1
    32     6     7    1
    33    80    81    1
    34   100    99    2
    35    74    76   am
    36    74    73    1
    37    81    82    1
    38    58    55    1
    39    27    28   ar
    40    27    29   ar
    41    28    30   ar
    42     7     8    1
    43   103   102   ar
    44    36    37    1
    45    71    70    2
    46    82    84   ar
    47    82    83   ar
    48    99    98    1
    49    73    72    1
    50    85    86    1
    51    97    98    1
    52    30    31   ar
    53    29    32   ar
    54    29    31   ar
    55    55    54    1
    56    55    56    1
    57    87    86    1
    58    87    88    2
    59    54    45   am
    60    47    48    1
    61    47    44    1
    62    92    94   ar
    63    92    90   ar
    64    65    64    2
    65     8     9    1
    66    89    86    1
    67    89    90    1
    68    32    34   ar
    69    98   101    1
    70    70    72   am
    71    70    69    1
    72    49    48   ar
    73    49    51   ar
    74   102   104   ar
    75   102   101    1
    76    31    33   ar
    77    43    44    1
    78    43    38   am
    79    48    50   ar
    80    94    95   ar
    81    37    38    1
    82    37    40    1
    83    90    91   ar
    84    51    53   ar
    85    56    62   am
    86    56    57    2
    87    45    44    1
    88    45    46    2
    89    62    63    1
    90    50    52   ar
    91    38    39    2
    92    42    40    1
    93    67    66    1
    94    41    40    1
    95    64    63    1
    96    64    68   am
    97    53    52   ar
    98    69    68    1
    99    34    35   ar
   100    33    35   ar
   101    95    96    1
   102    95    93   ar
   103    63    66    1
   104    91    93   ar
