@<TRIPOS>MOLECULE
tmp/3qkvA00.pdb
 168 160 0 0 0
SMALL
GASTEIGER

@<TRIPOS>ATOM
      1  N        -13.7060  -11.1390    0.3800 N.3   163  MET163     -0.1230
      2  CA       -12.3640  -10.5350    0.2960 C.3   163  MET163      0.1702
      3  C        -12.3090   -9.2260   -0.5030 C.2   163  MET163      0.2592
      4  O        -11.2300   -8.6590   -0.6960 O.2   163  MET163     -0.2718
      5  CB       -11.3230  -11.5290   -0.2460 C.3   163  MET163      0.0401
      6  CG       -11.1170  -12.7770    0.6000 C.3   163  MET163      0.0596
      7  SD        -9.5420  -13.6010    0.2700 S.3   163  MET163     -0.1393
      8  CE        -9.6900  -14.0050   -1.4720 C.3   163  MET163      0.0692
      9  N        -13.4650   -8.7430   -0.9560 N.am  164  LEU164     -0.1966
     10  CA       -13.5190   -7.5290   -1.7690 C.3   164  LEU164      0.1728
     11  C        -13.8150   -6.2830   -0.9290 C.2   164  LEU164      0.2617
     12  O        -14.8210   -5.5950   -1.1350 O.2   164  LEU164     -0.2715
     13  CB       -14.5230   -7.6810   -2.9180 C.3   164  LEU164      0.0311
     14  CG       -14.2410   -6.8390   -4.1670 C.3   164  LEU164      0.0022
     15  CD1      -13.2510   -7.5370   -5.0940 C.3   164  LEU164      0.0001
     16  CD2      -15.5320   -6.5400   -4.8990 C.3   164  LEU164      0.0001
     17  N        -12.9190   -6.0110    0.0180 N.am  165  SER165     -0.1936
     18  CA       -12.9770   -4.8300    0.8800 C.3   165  SER165      0.2055
     19  C        -11.6790   -4.7360    1.6710 C.2   165  SER165      0.2643
     20  O        -11.1240   -5.7590    2.0810 O.2   165  SER165     -0.2714
     21  CB       -14.1640   -4.9100    1.8460 C.3   165  SER165      0.2130
     22  OG       -14.2860   -3.7220    2.6080 O.3   165  SER165     -0.2179
     23  N        -11.1930   -3.5140    1.8850 N.am  166  PHE166     -0.1973
     24  CA        -9.9970   -3.3150    2.7080 C.3   166  PHE166      0.1639
     25  C        -10.3240   -3.0470    4.1850 C.2   166  PHE166      0.2290
     26  O         -9.5320   -2.4500    4.9190 O.2   166  PHE166     -0.2864
     27  CB        -9.0290   -2.2820    2.0990 C.3   166  PHE166      0.0560
     28  CG        -9.5830   -0.8870    1.9940 C.ar  166  PHE166     -0.0200
     29  CD1       -9.2060    0.0920    2.9080 C.ar  166  PHE166     -0.0042
     30  CD2      -10.4460   -0.5380    0.9590 C.ar  166  PHE166     -0.0042
     31  CE1       -9.6980    1.3910    2.8090 C.ar  166  PHE166     -0.0003
     32  CE2      -10.9450    0.7570    0.8520 C.ar  166  PHE166     -0.0003
     33  CZ       -10.5700    1.7230    1.7790 C.ar  166  PHE166     -0.0000
     34  N         -7.3920   -4.7210    5.3220 N.3   188  GLY188     -0.1210
     35  CA        -7.9750   -5.8270    4.5670 C.3   188  GLY188      0.1956
     36  C         -7.4270   -5.9450    3.1550 C.2   188  GLY188      0.2612
     37  O         -6.7990   -5.0130    2.6530 O.2   188  GLY188     -0.2717
     38  N         -7.6670   -7.0810    2.4980 N.am  189  SER189     -0.1952
     39  CA        -8.4750   -8.1740    3.0450 C.3   189  SER189      0.1924
     40  C         -7.6910   -9.1430    3.9410 C.2   189  SER189      0.2314
     41  O         -8.2600  -10.0980    4.4760 O.2   189  SER189     -0.2863
     42  CB        -9.1850   -8.9330    1.9180 C.3   189  SER189      0.2116
     43  OG        -8.2600   -9.4910    1.0030 O.3   189  SER189     -0.2180
     44  N         -3.6120  -10.3450   -2.7590 N.3   209  ASP209     -0.1225
     45  CA        -3.6460   -8.9250   -3.1070 C.3   209  ASP209      0.1805
     46  C         -4.1370   -8.7320   -4.5390 C.2   209  ASP209      0.2598
     47  O         -3.6190   -9.3480   -5.4730 O.2   209  ASP209     -0.2718
     48  CB        -2.2550   -8.3010   -2.9440 C.3   209  ASP209      0.1424
     49  CG        -2.2940   -6.7850   -2.8510 C.2   209  ASP209      0.3668
     50  OD1       -1.7560   -6.2420   -1.8620 O.co2 209  ASP209     -0.2456
     51  OD2       -2.8500   -6.1320   -3.7610 O.co2 209  ASP209     -0.2456
     52  N         -5.1400   -7.8720   -4.6960 N.am  210  ILE210     -0.1966
     53  CA        -5.6770   -7.5170   -6.0110 C.3   210  ILE210      0.1727
     54  C         -6.0820   -6.0370   -6.0400 C.2   210  ILE210      0.2617
     55  O         -6.3170   -5.4630   -7.1060 O.2   210  ILE210     -0.2715
     56  CB        -6.8530   -8.4530   -6.4260 C.3   210  ILE210      0.0290
     57  CG1       -7.0270   -8.4670   -7.9510 C.3   210  ILE210      0.0022
     58  CG2       -8.1480   -8.0870   -5.6880 C.3   210  ILE210      0.0023
     59  CD1       -7.7050   -9.7150   -8.4910 C.3   210  ILE210      0.0001
     60  N         -6.1440   -5.4320   -4.8560 N.am  211  GLY211     -0.1940
     61  CA        -6.4550   -4.0140   -4.6990 C.3   211  GLY211      0.2014
     62  C         -5.6710   -3.3740   -3.5670 C.2   211  GLY211      0.2639
     63  O         -5.8770   -2.2020   -3.2460 O.2   211  GLY211     -0.2714
     64  N         -4.7700   -4.1490   -2.9640 N.am  212  GLY212     -0.1939
     65  CA        -3.9420   -3.6810   -1.8530 C.3   212  GLY212      0.2014
     66  C         -4.1120   -4.4950   -0.5840 C.2   212  GLY212      0.2639
     67  O         -3.8490   -4.0020    0.5130 O.2   212  GLY212     -0.2714
     68  N         -4.5270   -5.7500   -0.7380 N.am  213  SER213     -0.1949
     69  CA        -4.8780   -6.6120    0.3950 C.3   213  SER213      0.1924
     70  C         -3.7060   -7.0460    1.2790 C.2   213  SER213      0.2314
     71  O         -3.9180   -7.4850    2.4080 O.2   213  SER213     -0.2863
     72  CB        -5.6640   -7.8340   -0.0840 C.3   213  SER213      0.2116
     73  OG        -6.9570   -7.4640   -0.5300 O.3   213  SER213     -0.2180
     74  N         -2.5850   -2.8060    2.6730 N.3   216  PHE216     -0.1241
     75  CA        -3.5210   -2.1040    3.5610 C.3   216  PHE216      0.1605
     76  C         -3.4000   -2.4970    5.0420 C.2   216  PHE216      0.2264
     77  O         -3.1960   -1.6220    5.8830 O.2   216  PHE216     -0.2867
     78  CB        -4.9760   -2.2250    3.0780 C.3   216  PHE216      0.0534
     79  CG        -5.3730   -1.1910    2.0570 C.ar  216  PHE216     -0.0203
     80  CD1       -5.4180    0.1600    2.3920 C.ar  216  PHE216     -0.0042
     81  CD2       -5.7260   -1.5720    0.7670 C.ar  216  PHE216     -0.0042
     82  CE1       -5.7910    1.1160    1.4510 C.ar  216  PHE216     -0.0003
     83  CE2       -6.1030   -0.6250   -0.1780 C.ar  216  PHE216     -0.0003
     84  CZ        -6.1350    0.7220    0.1630 C.ar  216  PHE216     -0.0000
     85  N        -11.4510   -0.7560  -12.1310 N.3   349  ALA349     -0.1245
     86  CA       -12.8760   -0.9630  -11.8690 C.3   349  ALA349      0.1562
     87  C        -13.5630   -1.7080  -13.0120 C.2   349  ALA349      0.2260
     88  O        -14.4950   -2.4810  -12.7870 O.2   349  ALA349     -0.2867
     89  CB       -13.5650    0.3670  -11.6080 C.3   349  ALA349      0.0290
     90  N        -12.0280   -5.5750  -12.8850 N.3   352  LEU352     -0.1231
     91  CA       -12.5670   -6.3750  -11.7830 C.3   352  LEU352      0.1693
     92  C        -14.0730   -6.6100  -11.9080 C.2   352  LEU352      0.2592
     93  O        -14.5930   -7.6080  -11.4030 O.2   352  LEU352     -0.2718
     94  CB       -12.2480   -5.7200  -10.4330 C.3   352  LEU352      0.0284
     95  CG       -10.7950   -5.7220   -9.9430 C.3   352  LEU352      0.0019
     96  CD1      -10.5950   -4.6670   -8.8660 C.3   352  LEU352      0.0001
     97  CD2      -10.3700   -7.0970   -9.4350 C.3   352  LEU352      0.0001
     98  N        -14.7650   -5.6900  -12.5770 N.am  353  PHE353     -0.1976
     99  CA       -16.2160   -5.7770  -12.7470 C.3   353  PHE353      0.1639
    100  C        -16.6210   -5.7020  -14.2210 C.2   353  PHE353      0.2290
    101  O        -17.4510   -4.8740  -14.6080 O.2   353  PHE353     -0.2864
    102  CB       -16.9240   -4.6810  -11.9390 C.3   353  PHE353      0.0560
    103  CG       -16.5310   -4.6380  -10.4880 C.ar  353  PHE353     -0.0200
    104  CD1      -17.1050   -5.5120   -9.5700 C.ar  353  PHE353     -0.0042
    105  CD2      -15.5920   -3.7160  -10.0360 C.ar  353  PHE353     -0.0042
    106  CE1      -16.7460   -5.4710   -8.2270 C.ar  353  PHE353     -0.0003
    107  CE2      -15.2260   -3.6670   -8.6950 C.ar  353  PHE353     -0.0003
    108  CZ       -15.8040   -4.5460   -7.7900 C.ar  353  PHE353     -0.0000
    109  N        -21.6890   -1.4740   -1.6550 N.3   376  LEU376     -0.1245
    110  CA       -21.0570   -2.1720   -2.7810 C.3   376  LEU376      0.1561
    111  C        -21.9510   -3.2380   -3.4210 C.2   376  LEU376      0.2260
    112  O        -22.0030   -3.3550   -4.6460 O.2   376  LEU376     -0.2867
    113  CB       -19.7210   -2.7890   -2.3400 C.3   376  LEU376      0.0270
    114  CG       -18.8250   -3.4870   -3.3720 C.3   376  LEU376      0.0019
    115  CD1      -18.1650   -2.4870   -4.3160 C.3   376  LEU376      0.0001
    116  CD2      -17.7720   -4.3290   -2.6690 C.3   376  LEU376      0.0001
    117  N        -16.6890    5.1830  -12.2050 N.3   404  PHE404     -0.1241
    118  CA       -16.6670    3.9250  -11.4560 C.3   404  PHE404      0.1605
    119  C        -17.9290    3.0910  -11.6710 C.2   404  PHE404      0.2264
    120  O        -17.8510    1.8730  -11.8310 O.2   404  PHE404     -0.2867
    121  CB       -16.4530    4.1830   -9.9600 C.3   404  PHE404      0.0534
    122  CG       -15.0520    3.9050   -9.4890 C.ar  404  PHE404     -0.0203
    123  CD1      -14.0570    4.8730   -9.6000 C.ar  404  PHE404     -0.0042
    124  CD2      -14.7270    2.6730   -8.9290 C.ar  404  PHE404     -0.0042
    125  CE1      -12.7580    4.6150   -9.1640 C.ar  404  PHE404     -0.0003
    126  CE2      -13.4320    2.4060   -8.4890 C.ar  404  PHE404     -0.0003
    127  CZ       -12.4460    3.3800   -8.6070 C.ar  404  PHE404     -0.0000
    128  N        -18.5110   -0.5640  -13.8760 N.3   408  MET408     -0.1245
    129  CA       -19.1100   -1.7050  -13.1830 C.3   408  MET408      0.1570
    130  C        -20.3430   -2.2280  -13.9300 C.2   408  MET408      0.2261
    131  O        -21.2960   -2.7200  -13.3190 O.2   408  MET408     -0.2867
    132  CB       -19.4600   -1.3260  -11.7390 C.3   408  MET408      0.0387
    133  CG       -18.2560   -1.2710  -10.8020 C.3   408  MET408      0.0595
    134  SD       -18.5140   -0.2610   -9.3260 S.3   408  MET408     -0.1393
    135  CE       -19.6650   -1.2670   -8.3900 C.3   408  MET408      0.0692
    136  N        -14.1250    1.7590    5.4410 N.3   456  PRO456     -0.2102
    137  CA       -13.3570    1.4550    4.2260 C.3   456  PRO456      0.1504
    138  C        -14.2190    1.1070    3.0100 C.2   456  PRO456      0.2576
    139  O        -13.8880    1.5000    1.8910 O.2   456  PRO456     -0.2718
    140  CB       -12.5150    0.2460    4.6420 C.3   456  PRO456      0.0282
    141  CG       -12.3410    0.4120    6.0970 C.3   456  PRO456      0.0208
    142  CD       -13.6620    0.9340    6.5740 C.3   456  PRO456      0.0893
    143  N        -15.3130    0.3800    3.2350 N.am  457  GLY457     -0.1957
    144  CA       -16.2360    0.0060    2.1640 C.3   457  GLY457      0.1869
    145  C        -17.0120    1.1800    1.5940 C.2   457  GLY457      0.2309
    146  O        -17.5640    1.0920    0.4960 O.2   457  GLY457     -0.2863
    147  N        -14.2480    4.2380   -1.2030 N.3   460  THR460     -0.1218
    148  CA       -13.7110    3.4400   -2.3080 C.3   460  THR460      0.1862
    149  C        -12.4350    4.0350   -2.9080 C.2   460  THR460      0.2287
    150  O        -11.4720    3.3100   -3.1650 O.2   460  THR460     -0.2866
    151  CB       -14.7730    3.2430   -3.4180 C.3   460  THR460      0.1770
    152  OG1      -15.9790    2.7240   -2.8440 O.3   460  THR460     -0.2211
    153  CG2      -14.2770    2.2830   -4.4930 C.3   460  THR460      0.0375
    154  N         -8.2330    3.3620   -2.4350 N.3   463  ILE463     -0.1245
    155  CA        -7.3970    2.3020   -3.0140 C.3   463  ILE463      0.1561
    156  C         -6.5060    2.7990   -4.1620 C.2   463  ILE463      0.2260
    157  O         -5.7820    2.0130   -4.7790 O.2   463  ILE463     -0.2867
    158  CB        -8.2410    1.0780   -3.4830 C.3   463  ILE463      0.0252
    159  CG1       -9.2120    1.4720   -4.6070 C.3   463  ILE463      0.0019
    160  CG2       -8.9670    0.4400   -2.2960 C.3   463  ILE463      0.0019
    161  CD1       -9.8210    0.2960   -5.3620 C.3   463  ILE463      0.0001
    162  N         -4.2040   -0.1160   -5.8170 N.3   467  VAL467     -0.1245
    163  CA        -4.7720   -0.8460   -6.9580 C.3   467  VAL467      0.1561
    164  C         -4.1220   -0.4450   -8.2900 C.2   467  VAL467      0.2260
    165  O         -4.2200   -1.1710   -9.2830 O.2   467  VAL467     -0.2867
    166  CB        -6.3270   -0.7230   -7.0130 C.3   467  VAL467      0.0252
    167  CG1       -6.7620    0.6140   -7.6010 C.3   467  VAL467      0.0019
    168  CG2       -6.9400   -1.8830   -7.7950 C.3   467  VAL467      0.0019
@<TRIPOS>BOND
     1   101   100    2
     2   100    99    1
     3   130   131    2
     4   130   129    1
     5   128   129    1
     6   129   132    1
     7    87    88    2
     8    87    86    1
     9    90    91    1
    10    99    98    1
    11    99   102    1
    12    98    92   am
    13   117   118    1
    14    85    86    1
    15   102   103    1
    16    92    91    1
    17    92    93    2
    18    86    89    1
    19   120   119    2
    20    91    94    1
    21   132   133    1
    22   119   118    1
    23   118   121    1
    24   133   134    1
    25   103   105   ar
    26   103   104   ar
    27    94    95    1
    28   105   107   ar
    29   121   122    1
    30    95    97    1
    31    95    96    1
    32   123   122   ar
    33   123   125   ar
    34   104   106   ar
    35   122   124   ar
    36   134   135    1
    37   165   164    2
    38   125   127   ar
    39   124   126   ar
    40   107   108   ar
    41   127   126   ar
    42    59    57    1
    43   164   163    1
    44   106   108   ar
    45    57    56    1
    46   168   166    1
    47   167   166    1
    48    55    54    2
    49   166   163    1
    50   163   162    1
    51    56    53    1
    52    56    58    1
    53    54    53    1
    54    54    60   am
    55    53    52    1
    56    47    46    2
    57   161   159    1
    58    15    14    1
    59    16    14    1
    60    60    61    1
    61   157   156    2
    62    61    62    1
    63    52    46   am
    64   112   111    2
    65   159   158    1
    66    46    45    1
    67   153   151    1
    68   115   114    1
    69    14    13    1
    70   156   155    1
    71    51    49   ar
    72    62    63    2
    73    62    64   am
    74   158   155    1
    75   158   160    1
    76   111   110    1
    77   151   152    1
    78   151   148    1
    79   114   116    1
    80   114   113    1
    81   150   149    2
    82    45    48    1
    83    45    44    1
    84   155   154    1
    85    64    65    1
    86    48    49    1
    87    13    10    1
    88   149   148    1
    89    49    50   ar
    90   110   113    1
    91   110   109    1
    92   148   147    1
    93    65    66    1
    94    10     9    1
    95    10    11    1
    96     8     7    1
    97    12    11    2
    98     9     3   am
    99    11    17   am
   100    68    66   am
   101    68    69    1
   102     4     3    2
   103    66    67    2
   104    73    72    1
   105     3     2    1
   106     5     2    1
   107     5     6    1
   108    83    84   ar
   109    83    81   ar
   110    72    69    1
   111    17    18    1
   112    84    82   ar
   113     7     6    1
   114     2     1    1
   115    69    70    1
   116   146   145    2
   117    81    79   ar
   118    32    30   ar
   119    32    33   ar
   120    18    19    1
   121    18    21    1
   122    30    28   ar
   123    43    42    1
   124    70    71    2
   125    82    80   ar
   126   145   144    1
   127    19    23   am
   128    19    20    2
   129    33    31   ar
   130    21    22    1
   131    23    24    1
   132   139   138    2
   133    42    39    1
   134    28    27    1
   135    28    29   ar
   136    79    80   ar
   137    79    78    1
   138    27    24    1
   139   144   143    1
   140    38    39    1
   141    38    36   am
   142    37    36    2
   143    74    75    1
   144    24    25    1
   145    31    29   ar
   146   138   143   am
   147   138   137    1
   148    39    40    1
   149    78    75    1
   150    36    35    1
   151    75    76    1
   152    40    41    2
   153    25    26    2
   154   137   140    1
   155   137   136    1
   156    35    34    1
   157   140   141    1
   158    76    77    2
   159   136   142    1
   160   141   142    1
