@<TRIPOS>MOLECULE
tmp/3ql6A04.pdb
 155 152 0 0 0
SMALL
GASTEIGER

@<TRIPOS>ATOM
      1  N        -17.4350    1.8150   19.7530 N.3   105  GLN105     -0.1245
      2  CA       -18.4560    1.9100   20.8560 C.3   105  GLN105      0.1566
      3  C        -19.8140    1.4370   20.4010 C.2   105  GLN105      0.2260
      4  O        -20.5570    0.7510   21.1070 O.2   105  GLN105     -0.2867
      5  CB       -18.5060    3.3210   21.3680 C.3   105  GLN105      0.0367
      6  CG       -19.3280    3.3220   22.7050 C.3   105  GLN105      0.0905
      7  CD       -19.3570    4.7450   23.3150 C.2   105  GLN105      0.2608
      8  OE1      -19.3370    5.7900   22.5950 O.2   105  GLN105     -0.2717
      9  NE2      -19.5760    4.8070   24.6800 N.am  105  GLN105     -0.0878
     10  N        -19.8060   -2.3630   20.0860 N.3   108  ASP108     -0.1225
     11  CA       -19.8160   -2.9460   21.4330 C.3   108  ASP108      0.1805
     12  C        -21.2220   -2.8480   22.0360 C.2   108  ASP108      0.2597
     13  O        -21.6780   -3.9110   22.4740 O.2   108  ASP108     -0.2718
     14  CB       -18.8280   -2.1340   22.2870 C.3   108  ASP108      0.1424
     15  CG       -18.7510   -2.5350   23.7270 C.2   108  ASP108      0.3668
     16  OD1      -19.7650   -2.3890   24.4530 O.co2 108  ASP108     -0.2456
     17  OD2      -17.6440   -2.9490   24.1210 O.co2 108  ASP108     -0.2456
     18  N        -21.8980   -1.7230   21.8370 N.am  109  HIS109     -0.1975
     19  CA       -23.2890   -1.5670   22.4040 C.3   109  HIS109      0.1656
     20  C        -24.3050   -2.4850   21.7190 C.2   109  HIS109      0.2291
     21  O        -25.3350   -2.8810   22.3360 O.2   109  HIS109     -0.2864
     22  CB       -23.6840   -0.1130   22.4280 C.3   109  HIS109      0.0771
     23  CG       -22.8800    0.9140   23.1600 C.ar  109  HIS109      0.0820
     24  ND1      -23.3610    2.1990   23.4020 N.ar  109  HIS109     -0.2267
     25  CD2      -21.6500    0.8470   23.6980 C.ar  109  HIS109      0.1154
     26  CE1      -22.4460    2.8610   24.0980 C.ar  109  HIS109      0.1986
     27  NE2      -21.4020    2.0600   24.2980 N.ar  109  HIS109     -0.2212
     28  N        -24.1620   -5.7830   27.0940 N.3   113  PHE113     -0.1227
     29  CA       -24.5380   -4.8160   28.1340 C.3   113  PHE113      0.1736
     30  C        -24.7340   -5.6800   29.3730 C.2   113  PHE113      0.2595
     31  O        -25.5690   -6.5280   29.4070 O.2   113  PHE113     -0.2718
     32  CB       -25.8020   -4.1030   27.7650 C.3   113  PHE113      0.0547
     33  CG       -26.1860   -3.0450   28.6950 C.ar  113  PHE113     -0.0202
     34  CD1      -25.2360   -2.3820   29.4260 C.ar  113  PHE113     -0.0042
     35  CD2      -27.5390   -2.6500   28.7450 C.ar  113  PHE113     -0.0042
     36  CE1      -25.6150   -1.3390   30.3340 C.ar  113  PHE113     -0.0003
     37  CE2      -27.9500   -1.6170   29.6480 C.ar  113  PHE113     -0.0003
     38  CZ       -26.9600   -0.9770   30.4400 C.ar  113  PHE113     -0.0000
     39  N        -23.9080   -5.4730   30.3630 N.am  114  ALA114     -0.1966
     40  CA       -24.0570   -6.1420   31.6820 C.3   114  ALA114      0.1713
     41  C        -24.4710   -5.0710   32.7310 C.2   114  ALA114      0.2458
     42  O        -23.6190   -4.5960   33.4830 O.2   114  ALA114     -0.2730
     43  CB       -22.7000   -6.9070   32.0850 C.3   114  ALA114      0.0333
     44  N        -25.7850   -4.7800   32.8500 N.am  115  PRO115     -0.2716
     45  CA       -26.1620   -3.6430   33.7350 C.3   115  PRO115      0.1536
     46  C        -25.9700   -3.9780   35.2250 C.2   115  PRO115      0.2598
     47  O        -26.1040   -5.1440   35.5840 O.2   115  PRO115     -0.2715
     48  CB       -27.6720   -3.3980   33.4120 C.3   115  PRO115      0.0310
     49  CG       -28.1900   -4.6050   32.7700 C.3   115  PRO115      0.0237
     50  CD       -26.9290   -5.2630   32.0620 C.3   115  PRO115      0.0939
     51  N        -25.5480   -2.9770   36.0210 N.am  116  GLU116     -0.1978
     52  CA       -25.5370   -3.0950   37.4860 C.3   116  GLU116      0.1602
     53  C        -26.8920   -3.5820   37.9760 C.2   116  GLU116      0.2287
     54  O        -27.8990   -3.2180   37.4030 O.2   116  GLU116     -0.2864
     55  CB       -25.2770   -1.7530   38.1480 C.3   116  GLU116      0.0415
     56  CG       -23.8750   -1.1890   37.9640 C.3   116  GLU116      0.1163
     57  CD       -23.9460    0.3350   37.7610 C.2   116  GLU116      0.3649
     58  OE1      -24.3630    1.0640   38.7300 O.co2 116  GLU116     -0.2457
     59  OE2      -23.6250    0.7830   36.6140 O.co2 116  GLU116     -0.2457
     60  N        -29.8340    1.4800   26.1210 N.3   253  PHE253     -0.1227
     61  CA       -30.0010    2.4070   27.2240 C.3   253  PHE253      0.1736
     62  C        -28.8730    3.4300   27.3540 C.2   253  PHE253      0.2595
     63  O        -29.0180    4.4680   28.0230 O.2   253  PHE253     -0.2718
     64  CB       -30.3880    1.6750   28.5450 C.3   253  PHE253      0.0547
     65  CG       -31.8230    1.2200   28.4910 C.ar  253  PHE253     -0.0202
     66  CD1      -32.8750    2.1930   28.4170 C.ar  253  PHE253     -0.0042
     67  CD2      -32.1520   -0.1420   28.2960 C.ar  253  PHE253     -0.0042
     68  CE1      -34.2640    1.8060   28.2820 C.ar  253  PHE253     -0.0003
     69  CE2      -33.4970   -0.5560   28.1780 C.ar  253  PHE253     -0.0003
     70  CZ       -34.5650    0.4210   28.1670 C.ar  253  PHE253     -0.0000
     71  N        -27.7830    3.1910   26.6490 N.am  254  ARG254     -0.1980
     72  CA       -26.6020    4.0060   26.8880 C.3   254  ARG254      0.1597
     73  C        -26.3720    5.1070   25.8460 C.2   254  ARG254      0.2287
     74  O        -25.3390    5.7740   25.9340 O.2   254  ARG254     -0.2864
     75  CB       -25.3550    3.0820   26.9390 C.3   254  ARG254      0.0334
     76  CG       -25.4080    1.9500   27.9670 C.3   254  ARG254      0.0492
     77  CD       -24.3580    0.8720   27.5370 C.3   254  ARG254      0.2205
     78  NE       -24.8110   -0.0230   26.5220 N.pl3 254  ARG254     -0.0865
     79  CZ       -24.2640   -1.2000   26.2250 C.cat 254  ARG254      0.5346
     80  NH1      -23.1510   -1.6160   26.8740 N.pl3 254  ARG254      0.1354
     81  NH2      -24.8680   -1.9380   25.2780 N.pl3 254  ARG254      0.1354
     82  N        -27.0980    8.0720   25.2150 N.3   256  SER256     -0.1202
     83  CA       -26.7260    9.4600   25.4920 C.3   256  SER256      0.2020
     84  C        -25.4050    9.6220   26.2860 C.2   256  SER256      0.2618
     85  O        -25.0620   10.7670   26.6390 O.2   256  SER256     -0.2717
     86  CB       -27.8660   10.1940   26.2480 C.3   256  SER256      0.2103
     87  OG       -28.9930   10.1280   25.3790 O.3   256  SER256     -0.2182
     88  N        -24.5920    8.5660   26.5080 N.am  257  GLU257     -0.1979
     89  CA       -23.5140    8.6640   27.4830 C.3   257  GLU257      0.1602
     90  C        -22.5040    9.7460   27.1710 C.2   257  GLU257      0.2287
     91  O        -21.9550   10.3620   28.0230 O.2   257  GLU257     -0.2864
     92  CB       -22.8090    7.2910   27.7020 C.3   257  GLU257      0.0415
     93  CG       -21.4690    7.3230   28.3770 C.3   257  GLU257      0.1163
     94  CD       -20.2600    7.2250   27.4400 C.2   257  GLU257      0.3649
     95  OE1      -20.5040    6.9810   26.2940 O.co2 257  GLU257     -0.2457
     96  OE2      -19.1350    7.3760   27.8900 O.co2 257  GLU257     -0.2457
     97  N        -13.0520   -3.2900   25.6540 N.3   347  ARG347     -0.1245
     98  CA       -12.7930   -2.0100   26.3100 C.3   347  ARG347      0.1563
     99  C        -11.4400   -1.4100   25.9090 C.2   347  ARG347      0.2260
    100  O        -10.9710   -0.4640   26.5160 O.2   347  ARG347     -0.2867
    101  CB       -13.0200   -2.0430   27.8410 C.3   347  ARG347      0.0307
    102  CG       -14.4420   -2.4650   28.1150 C.3   347  ARG347      0.0489
    103  CD       -14.6260   -2.5670   29.6670 C.3   347  ARG347      0.2205
    104  NE       -15.7800   -3.3680   30.0860 N.pl3 347  ARG347     -0.0865
    105  CZ       -16.4730   -3.2160   31.2120 C.cat 347  ARG347      0.5346
    106  NH1      -16.1650   -2.2670   32.1180 N.pl3 347  ARG347      0.1354
    107  NH2      -17.4840   -4.0060   31.4270 N.pl3 347  ARG347      0.1354
    108  N        -11.3720    2.3430   25.2780 N.3   350  HIS350     -0.1297
    109  CA       -11.1930    3.4060   26.2970 C.3   350  HIS350      0.1306
    110  C         -9.8960    4.1360   26.1460 C.3   350  HIS350      0.2013
    111  O         -9.7690    5.3780   26.4760 O.3   350  HIS350     -0.2188
    112  CB       -11.4260    2.8540   27.7060 C.3   350  HIS350      0.0691
    113  CG       -12.8250    2.3760   27.8850 C.ar  350  HIS350      0.0814
    114  ND1      -13.2140    1.5710   28.9460 N.ar  350  HIS350     -0.2268
    115  CD2      -13.9180    2.5680   27.1100 C.ar  350  HIS350      0.1154
    116  CE1      -14.5110    1.3300   28.8280 C.ar  350  HIS350      0.1986
    117  NE2      -14.9940    1.9490   27.7460 N.ar  350  HIS350     -0.2212
    118  N        -23.4850   12.6750   28.9130 N.3   380  PHE380     -0.1241
    119  CA       -24.9530   12.8570   29.0110 C.3   380  PHE380      0.1605
    120  C        -25.4370   14.1920   28.4930 C.2   380  PHE380      0.2264
    121  O        -26.4010   14.7200   28.9750 O.2   380  PHE380     -0.2867
    122  CB       -25.3980   12.5360   30.4340 C.3   380  PHE380      0.0534
    123  CG       -25.0700   11.1290   30.8010 C.ar  380  PHE380     -0.0203
    124  CD1      -25.8990   10.1080   30.3490 C.ar  380  PHE380     -0.0042
    125  CD2      -23.8210   10.8140   31.3390 C.ar  380  PHE380     -0.0042
    126  CE1      -25.6540    8.8210   30.6370 C.ar  380  PHE380     -0.0003
    127  CE2      -23.5120    9.4090   31.6290 C.ar  380  PHE380     -0.0003
    128  CZ       -24.4330    8.4700   31.2290 C.ar  380  PHE380     -0.0000
    129  N        -21.2760    9.5530   36.1750 N.3   422  GLN422     -0.1231
    130  CA       -22.1800    8.4230   36.2410 C.3   422  GLN422      0.1683
    131  C        -23.5320    8.9020   36.7430 C.2   422  GLN422      0.2434
    132  O        -23.5880    9.6110   37.7570 O.2   422  GLN422     -0.2733
    133  CB       -21.6920    7.4190   37.2760 C.3   422  GLN422      0.0380
    134  CG       -20.2680    6.8890   36.9400 C.3   422  GLN422      0.0905
    135  CD       -20.3180    5.5060   36.3410 C.2   422  GLN422      0.2608
    136  OE1      -20.0120    4.5140   37.0140 O.2   422  GLN422     -0.2717
    137  NE2      -20.7690    5.4270   35.1070 N.am  422  GLN422     -0.0878
    138  N        -24.6010    8.4450   36.1040 N.am  423  PRO423     -0.2729
    139  CA       -25.9590    8.8950   36.6250 C.3   423  PRO423      0.1401
    140  C        -26.3070    8.5060   38.0570 C.2   423  PRO423      0.2269
    141  O        -25.8630    7.4550   38.5500 O.2   423  PRO423     -0.2865
    142  CB       -26.9350    8.2650   35.6610 C.3   423  PRO423      0.0296
    143  CG       -26.1480    8.0540   34.3880 C.3   423  PRO423      0.0237
    144  CD       -24.7370    7.6570   34.8850 C.3   423  PRO423      0.0939
    145  N        -14.5080   -4.0700   37.6760 N.3   439  ARG439     -0.1245
    146  CA       -15.5200   -4.8530   37.0190 C.3   439  ARG439      0.1563
    147  C        -14.9490   -6.1710   36.5390 C.2   439  ARG439      0.2260
    148  O        -15.6230   -7.1810   36.5820 O.2   439  ARG439     -0.2867
    149  CB       -16.0730   -4.0620   35.8080 C.3   439  ARG439      0.0307
    150  CG       -17.2920   -4.7950   35.1620 C.3   439  ARG439      0.0489
    151  CD       -18.5660   -4.6510   36.0680 C.3   439  ARG439      0.2205
    152  NE       -18.9840   -3.2430   36.2290 N.pl3 439  ARG439     -0.0865
    153  CZ       -19.8780   -2.8200   37.1250 C.cat 439  ARG439      0.5346
    154  NH1      -20.4100   -3.6680   38.0370 N.pl3 439  ARG439      0.1354
    155  NH2      -20.2230   -1.5230   37.1300 N.pl3 439  ARG439      0.1354
@<TRIPOS>BOND
     1     1     2    1
     2    10    11    1
     3     3     2    1
     4     3     4    2
     5     2     5    1
     6     5     6    1
     7    11    12    1
     8    11    14    1
     9    20    21    2
    10    20    19    1
    11    18    12   am
    12    18    19    1
    13    12    13    2
    14    14    15    1
    15    19    22    1
    16    22    23    1
    17     8     7    2
    18     6     7    1
    19    23    24   ar
    20    23    25   ar
    21     7     9   am
    22    24    26   ar
    23    25    27   ar
    24    15    17   ar
    25    15    16   ar
    26    26    27   ar
    27    82    83    1
    28    81    79    1
    29   108   109    1
    30    87    86    1
    31    83    86    1
    32    83    84    1
    33    97    98    1
    34    73    74    2
    35    73    72    1
    36    99    98    1
    37    99   100    2
    38    60    61    1
    39   110   109    1
    40   110   111    1
    41    79    78    2
    42    79    80    1
    43    84    88   am
    44    84    85    2
    45    95    94   ar
    46   109   112    1
    47    98   101    1
    48    88    89    1
    49    78    77    1
    50    71    72    1
    51    71    62   am
    52    72    75    1
    53    75    76    1
    54    28    29    1
    55   115   117   ar
    56   115   113   ar
    57    90    89    1
    58    90    91    2
    59    61    62    1
    60    61    64    1
    61    62    63    2
    62    94    96   ar
    63    94    93    1
    64    89    92    1
    65    77    76    1
    66    92    93    1
    67   112   113    1
    68   117   116   ar
    69    32    29    1
    70    32    33    1
    71   101   102    1
    72   113   114   ar
    73   102   103    1
    74    29    30    1
    75    70    69   ar
    76    70    68   ar
    77    69    67   ar
    78    68    66   ar
    79    67    65   ar
    80    66    65   ar
    81    65    64    1
    82   120   121    2
    83   120   119    1
    84    33    35   ar
    85    33    34   ar
    86    35    37   ar
    87   116   114   ar
    88   118   119    1
    89   119   122    1
    90    30    31    2
    91    30    39   am
    92    34    36   ar
    93    37    38   ar
    94   103   104    1
    95   104   105    2
    96    36    38   ar
    97   124   126   ar
    98   124   123   ar
    99    39    40    1
   100   122   123    1
   101   126   128   ar
   102   123   125   ar
   103   105   107    1
   104   105   106    1
   105   128   127   ar
   106   125   127   ar
   107    40    43    1
   108    40    41    1
   109    50    49    1
   110    50    44    1
   111    41    44   am
   112    41    42    2
   113    49    48    1
   114    44    45    1
   115    48    45    1
   116    45    46    1
   117   143   144    1
   118   143   142    1
   119   144   138    1
   120   137   135   am
   121   150   149    1
   122   150   151    1
   123    46    47    2
   124    46    51   am
   125   142   139    1
   126   149   146    1
   127    51    52    1
   128   151   152    1
   129   138   139    1
   130   138   131   am
   131   129   130    1
   132   152   153    2
   133   130   131    1
   134   130   133    1
   135   135   134    1
   136   135   136    2
   137   147   148    2
   138   147   146    1
   139    59    57   ar
   140   139   140    1
   141   131   132    2
   142   134   133    1
   143   146   145    1
   144   153   155    1
   145   153   154    1
   146    54    53    2
   147    52    53    1
   148    52    55    1
   149    57    56    1
   150    57    58   ar
   151    56    55    1
   152   140   141    2
