@<TRIPOS>MOLECULE
tmp/3ql8A00.pdb
 145 138 0 0 0
SMALL
GASTEIGER

@<TRIPOS>ATOM
      1  N         94.0350   85.4220  -42.5750 N.3    10  ILE10      -0.1231
      2  CA        92.8490   84.6280  -42.8700 C.3    10  ILE10       0.1696
      3  C         92.8630   83.2820  -42.1700 C.2    10  ILE10       0.2631
      4  O         91.8140   82.6790  -41.9630 O.2    10  ILE10      -0.2714
      5  CB        92.7030   84.3350  -44.3730 C.3    10  ILE10       0.0266
      6  CG1       92.8980   85.6030  -45.1950 C.3    10  ILE10       0.0019
      7  CG2       91.3130   83.7860  -44.6480 C.3    10  ILE10       0.0020
      8  CD1       92.8520   85.3400  -46.6890 C.3    10  ILE10       0.0001
      9  N         94.0490   82.7950  -41.8260 N.am   11  GLY11      -0.1732
     10  CA        94.1210   81.5070  -41.1670 C.2    11  GLY11       0.1340
     11  C         95.5150   81.0290  -40.8240 C.2    11  GLY11       0.2521
     12  O         96.4570   81.8200  -40.7450 O.2    11  GLY11      -0.2816
     13  N         98.1170   82.2610  -43.6080 N.3    18  VAL18      -0.1245
     14  CA        97.5660   82.7580  -44.8620 C.3    18  VAL18       0.1561
     15  C         96.9640   84.1270  -44.6150 C.2    18  VAL18       0.2260
     16  O         96.2860   84.3350  -43.6150 O.2    18  VAL18      -0.2867
     17  CB        96.4690   81.8250  -45.4030 C.3    18  VAL18       0.0252
     18  CG1       95.9420   82.3530  -46.7300 C.3    18  VAL18       0.0019
     19  CG2       97.0170   80.4220  -45.5730 C.3    18  VAL18       0.0019
     20  N         95.3590   85.8790  -51.8820 N.3    31  ALA31      -0.1245
     21  CA        95.6240   85.1810  -50.6340 C.3    31  ALA31       0.1562
     22  C         97.1170   84.9220  -50.6460 C.2    31  ALA31       0.2260
     23  O         97.6600   84.3940  -51.6130 O.2    31  ALA31      -0.2867
     24  CB        94.8770   83.8770  -50.5770 C.3    31  ALA31       0.0290
     25  N        100.2140   83.0350  -48.7860 N.3    33  LYS33      -0.1245
     26  CA       100.6270   82.0230  -47.8230 C.3    33  LYS33       0.1561
     27  C        102.1460   82.1060  -47.6620 C.2    33  LYS33       0.2260
     28  O        102.8950   81.9620  -48.6300 O.2    33  LYS33      -0.2867
     29  CB       100.2380   80.6200  -48.2960 C.3    33  LYS33       0.0271
     30  CG       100.6470   79.5060  -47.3250 C.3    33  LYS33       0.0035
     31  CD       100.5430   78.1350  -47.9810 C.3    33  LYS33       0.0206
     32  CE        99.3210   77.3460  -47.5140 C.3    33  LYS33       0.1093
     33  NZ        99.5190   76.6890  -46.1810 N.3    33  LYS33      -0.1314
     34  N         92.4700   76.1580  -57.0100 N.3    60  VAL60      -0.1245
     35  CA        92.7930   77.5500  -56.7030 C.3    60  VAL60       0.1561
     36  C         94.0980   77.8780  -57.4560 C.2    60  VAL60       0.2260
     37  O         95.1150   77.2070  -57.3000 O.2    60  VAL60      -0.2867
     38  CB        92.9690   77.7530  -55.1750 C.3    60  VAL60       0.0252
     39  CG1       93.4650   79.1800  -54.8640 C.3    60  VAL60       0.0019
     40  CG2       91.6260   77.5280  -54.4730 C.3    60  VAL60       0.0019
     41  N         98.1060   83.2610  -54.1450 N.3    76  PHE76      -0.1227
     42  CA        96.9850   82.5230  -54.7080 C.3    76  PHE76       0.1736
     43  C         95.8010   83.4100  -55.0130 C.2    76  PHE76       0.2595
     44  O         95.6240   84.4440  -54.3840 O.2    76  PHE76      -0.2718
     45  CB        96.4740   81.5040  -53.6980 C.3    76  PHE76       0.0547
     46  CG        97.3990   80.3690  -53.4320 C.ar   76  PHE76      -0.0202
     47  CD1       97.4880   79.3030  -54.3260 C.ar   76  PHE76      -0.0042
     48  CD2       98.1040   80.3150  -52.2440 C.ar   76  PHE76      -0.0042
     49  CE1       98.2660   78.1920  -54.0250 C.ar   76  PHE76      -0.0003
     50  CE2       98.8830   79.2130  -51.9290 C.ar   76  PHE76      -0.0003
     51  CZ        98.9650   78.1440  -52.8200 C.ar   76  PHE76      -0.0000
     52  N         94.9750   82.9820  -55.9610 N.am   77  GLU77      -0.1965
     53  CA        93.7530   83.7240  -56.2550 C.3    77  GLU77       0.1733
     54  C         92.9760   83.5670  -54.9480 C.2    77  GLU77       0.2616
     55  O         93.0810   82.5360  -54.2570 O.2    77  GLU77      -0.2715
     56  CB        92.9530   83.0760  -57.3910 C.3    77  GLU77       0.0429
     57  CG        92.3670   81.7520  -57.0260 C.3    77  GLU77       0.1163
     58  CD        91.3950   81.2040  -58.0660 C.2    77  GLU77       0.3649
     59  OE1       90.2900   81.7710  -58.2420 O.co2  77  GLU77      -0.2457
     60  OE2       91.7400   80.1960  -58.7000 O.co2  77  GLU77      -0.2457
     61  N         92.1890   84.5740  -54.6220 N.am   78  PHE78      -0.1960
     62  CA        91.4310   84.5850  -53.3850 C.3    78  PHE78       0.1771
     63  C         89.9650   84.1680  -53.5180 C.2    78  PHE78       0.2619
     64  O         89.3010   84.5460  -54.4740 O.2    78  PHE78      -0.2715
     65  CB        91.5180   85.9890  -52.7980 C.3    78  PHE78       0.0574
     66  CG        90.7130   86.1830  -51.5590 C.ar   78  PHE78      -0.0200
     67  CD1       89.4340   86.7310  -51.6210 C.ar   78  PHE78      -0.0042
     68  CD2       91.2210   85.7890  -50.3240 C.ar   78  PHE78      -0.0042
     69  CE1       88.6720   86.8760  -50.4750 C.ar   78  PHE78      -0.0003
     70  CE2       90.4610   85.9340  -49.1700 C.ar   78  PHE78      -0.0003
     71  CZ        89.1860   86.4750  -49.2460 C.ar   78  PHE78      -0.0000
     72  N         89.4890   83.3670  -52.5670 N.am   79  LEU79      -0.1963
     73  CA        88.0840   82.9580  -52.5200 C.3    79  LEU79       0.1728
     74  C         87.6360   83.3050  -51.1120 C.2    79  LEU79       0.2616
     75  O         88.4080   83.1890  -50.1580 O.2    79  LEU79      -0.2715
     76  CB        87.8830   81.4670  -52.8480 C.3    79  LEU79       0.0311
     77  CG        87.6920   81.1650  -54.3450 C.3    79  LEU79       0.0022
     78  CD1       89.0600   81.0530  -55.0240 C.3    79  LEU79       0.0001
     79  CD2       86.9360   79.8550  -54.5510 C.3    79  LEU79       0.0001
     80  N         86.3860   83.7360  -50.9770 N.am   80  HIS80      -0.1959
     81  CA        85.8860   84.2040  -49.6970 C.3    80  HIS80       0.1787
     82  C         85.5900   83.2460  -48.5800 C.2    80  HIS80       0.2620
     83  O         85.5840   83.6530  -47.4160 O.2    80  HIS80      -0.2715
     84  CB        84.6410   85.0740  -49.9070 C.3    80  HIS80       0.0785
     85  CG        84.9320   86.3970  -50.5410 C.ar   80  HIS80       0.0821
     86  ND1       85.2220   86.5320  -51.8820 N.ar   80  HIS80      -0.2267
     87  CD2       85.0100   87.6420  -50.0090 C.ar   80  HIS80       0.1154
     88  CE1       85.4640   87.8040  -52.1500 C.ar   80  HIS80       0.1986
     89  NE2       85.3430   88.4980  -51.0320 N.ar   80  HIS80      -0.2212
     90  N         85.3540   81.9760  -48.8870 N.am   81  GLN81      -0.1963
     91  CA        85.0150   81.0830  -47.7820 C.3    81  GLN81       0.1733
     92  C         85.4860   79.6600  -47.9780 C.2    81  GLN81       0.2616
     93  O         85.5440   79.1800  -49.1030 O.2    81  GLN81      -0.2715
     94  CB        83.5070   81.0920  -47.5940 C.3    81  GLN81       0.0408
     95  CG        83.0070   80.4310  -46.3060 C.3    81  GLN81       0.0908
     96  CD        81.5900   80.8500  -46.0030 C.2    81  GLN81       0.2608
     97  OE1       81.3240   82.0250  -45.7300 O.2    81  GLN81      -0.2717
     98  NE2       80.6680   79.9080  -46.0700 N.am   81  GLN81      -0.0878
     99  N         85.8100   78.9890  -46.8740 N.am   82  ASP82      -0.1971
    100  CA        86.2570   77.6020  -46.9610 C.3    82  ASP82       0.1709
    101  C         85.0960   76.6910  -46.5700 C.2    82  ASP82       0.2293
    102  O         84.1450   77.1220  -45.9360 O.2    82  ASP82      -0.2864
    103  CB        87.5090   77.3600  -46.0970 C.3    82  ASP82       0.1436
    104  CG        87.2460   77.4790  -44.5890 C.2    82  ASP82       0.3671
    105  OD1       86.4520   76.6940  -44.0220 O.co2  82  ASP82      -0.2456
    106  OD2       87.8580   78.3620  -43.9730 O.co2  82  ASP82      -0.2456
    107  N         84.0400   76.4250  -42.7650 N.3    85  LYS85      -0.1245
    108  CA        83.1700   77.4890  -42.3000 C.3    85  LYS85       0.1561
    109  C         81.7710   77.3000  -42.8290 C.2    85  LYS85       0.2260
    110  O         80.8000   77.4290  -42.0790 O.2    85  LYS85      -0.2867
    111  CB        83.7150   78.8670  -42.7090 C.3    85  LYS85       0.0271
    112  CG        85.0270   79.1730  -42.0240 C.3    85  LYS85       0.0035
    113  CD        85.5310   80.5820  -42.2780 C.3    85  LYS85       0.0206
    114  CE        86.9910   80.6680  -41.8890 C.3    85  LYS85       0.1093
    115  NZ        87.1540   80.0520  -40.5510 N.3    85  LYS85      -0.1314
    116  N         88.9380   72.6940  -44.6310 N.3   127  GLN127     -0.1245
    117  CA        89.5910   73.9950  -44.6050 C.3   127  GLN127      0.1566
    118  C         90.3640   74.2940  -45.8750 C.2   127  GLN127      0.2260
    119  O         90.6370   75.4600  -46.1570 O.2   127  GLN127     -0.2867
    120  CB        90.5520   74.0830  -43.4210 C.3   127  GLN127      0.0367
    121  CG        89.8760   73.9950  -42.0820 C.3   127  GLN127      0.0905
    122  CD        90.8610   73.7280  -40.9700 C.2   127  GLN127      0.2608
    123  OE1       91.3350   72.5950  -40.7990 O.2   127  GLN127     -0.2717
    124  NE2       91.1970   74.7730  -40.2140 N.am  127  GLN127     -0.0878
    125  N         87.8470   75.6750  -51.0130 N.3   130  LEU130     -0.1245
    126  CA        87.2950   77.0250  -51.0510 C.3   130  LEU130      0.1561
    127  C         86.0970   77.1650  -51.9790 C.2   130  LEU130      0.2260
    128  O         86.0550   76.5720  -53.0550 O.2   130  LEU130     -0.2867
    129  CB        88.3920   77.9830  -51.4820 C.3   130  LEU130      0.0270
    130  CG        89.6460   77.8050  -50.6330 C.3   130  LEU130      0.0019
    131  CD1       90.7240   78.6790  -51.1920 C.3   130  LEU130      0.0001
    132  CD2       89.3560   78.1360  -49.1610 C.3   130  LEU130      0.0001
    133  N         92.6470   73.8540  -52.6490 N.3   140  ALA140     -0.1231
    134  CA        93.7360   74.7770  -52.2620 C.3   140  ALA140      0.1694
    135  C         94.8490   74.0360  -51.4950 C.2   140  ALA140      0.2592
    136  O         94.6420   72.9180  -51.0570 O.2   140  ALA140     -0.2718
    137  CB        93.1840   75.9030  -51.3920 C.3   140  ALA140      0.0304
    138  N         95.9980   74.6860  -51.2790 N.am  141  ASP141     -0.1974
    139  CA        97.1510   74.0390  -50.6090 C.3   141  ASP141      0.1709
    140  C         97.5550   73.1240  -51.7560 C.2   141  ASP141      0.2293
    141  O         97.3890   73.5330  -52.9080 O.2   141  ASP141     -0.2864
    142  CB        96.7080   73.1950  -49.4000 C.3   141  ASP141      0.1436
    143  CG        97.6200   73.3600  -48.1910 C.2   141  ASP141      0.3671
    144  OD1       97.6600   74.4750  -47.6180 O.co2 141  ASP141     -0.2456
    145  OD2       98.2880   72.3700  -47.8130 O.co2 141  ASP141     -0.2456
@<TRIPOS>BOND
     1    60    58   ar
     2    59    58   ar
     3    58    57    1
     4    36    37    2
     5    36    35    1
     6    56    57    1
     7    56    53    1
     8    34    35    1
     9    35    38    1
    10    53    52    1
    11    53    54    1
    12    52    43   am
    13    38    39    1
    14    38    40    1
    15    78    77    1
    16    43    42    1
    17    43    44    2
    18    54    61   am
    19    54    55    2
    20    42    41    1
    21    42    45    1
    22    61    62    1
    23    79    77    1
    24    64    63    2
    25    77    76    1
    26    47    49   ar
    27    47    46   ar
    28    49    51   ar
    29    45    46    1
    30    63    62    1
    31    63    72   am
    32    46    48   ar
    33    62    65    1
    34   128   127    2
    35   141   140    2
    36    76    73    1
    37    51    50   ar
    38    65    66    1
    39   133   134    1
    40    72    73    1
    41    73    74    1
    42   134   135    1
    43   134   137    1
    44    48    50   ar
    45    88    86   ar
    46    88    89   ar
    47   127   126    1
    48    86    85   ar
    49    20    21    1
    50   140   139    1
    51    67    66   ar
    52    67    69   ar
    53    23    22    2
    54    66    68   ar
    55   135   138   am
    56   135   136    2
    57   129   126    1
    58   129   130    1
    59   138   139    1
    60   131   130    1
    61    74    80   am
    62    74    75    2
    63   126   125    1
    64    89    87   ar
    65    80    81    1
    66    22    21    1
    67    21    24    1
    68   130   132    1
    69   139   142    1
    70    85    87   ar
    71    85    84    1
    72    69    71   ar
    73    68    70   ar
    74    84    81    1
    75    81    82    1
    76   142   143    1
    77    71    70   ar
    78    93    92    2
    79    90    82   am
    80    90    91    1
    81    25    26    1
    82    28    27    2
    83    82    83    2
    84    29    26    1
    85    29    30    1
    86   143   145   ar
    87   143   144   ar
    88    31    32    1
    89    31    30    1
    90    92    91    1
    91    92    99   am
    92    26    27    1
    93    91    94    1
    94    94    95    1
    95    32    33    1
    96   100    99    1
    97   100   101    1
    98   100   103    1
    99    18    17    1
   100     8     6    1
   101   101   102    2
   102    95    96    1
   103   119   118    2
   104   103   104    1
   105    98    96   am
   106    96    97    2
   107   118   117    1
   108    19    17    1
   109    17    14    1
   110     6     5    1
   111    14    15    1
   112    14    13    1
   113     7     5    1
   114   116   117    1
   115    15    16    2
   116   117   120    1
   117   104   105   ar
   118   104   106   ar
   119     5     2    1
   120   120   121    1
   121     2     1    1
   122     2     3    1
   123   109   108    1
   124   109   110    2
   125   107   108    1
   126   111   108    1
   127   111   112    1
   128   113   112    1
   129   113   114    1
   130     3     4    2
   131     3     9    1
   132   121   122    1
   133   114   115    1
   134     9    10    2
   135    10    11    1
   136   122   123    2
   137   122   124   am
   138    11    12    2
