@<TRIPOS>MOLECULE
tmp/3qlbA00.pdb
 135 130 0 0 0
SMALL
GASTEIGER

@<TRIPOS>ATOM
      1  N         55.4780  -23.9290  -16.0420 N.3    69  ARG69      -0.1231
      2  CA        56.6980  -24.5160  -15.5170 C.3    69  ARG69       0.1694
      3  C         56.4520  -25.3860  -14.3290 C.2    69  ARG69       0.2592
      4  O         57.1440  -26.3750  -14.1600 O.2    69  ARG69      -0.2718
      5  CB        57.6670  -23.4170  -15.1160 C.3    69  ARG69       0.0321
      6  CG        58.0440  -22.6180  -16.3030 C.3    69  ARG69       0.0489
      7  CD        58.2160  -21.1760  -15.9840 C.3    69  ARG69       0.2205
      8  NE        59.5300  -20.8890  -15.4190 N.pl3  69  ARG69      -0.0865
      9  CZ        60.6330  -20.6440  -16.1240 C.cat  69  ARG69       0.5346
     10  NH1       60.6510  -20.6730  -17.4600 N.pl3  69  ARG69       0.1354
     11  NH2       61.7380  -20.3760  -15.4620 N.pl3  69  ARG69       0.1354
     12  N         55.4780  -25.0340  -13.4980 N.am   70  PHE70      -0.1976
     13  CA        55.2920  -25.7880  -12.2840 C.3    70  PHE70       0.1639
     14  C         53.8570  -26.1870  -12.0990 C.2    70  PHE70       0.2290
     15  O         52.9300  -25.5780  -12.6630 O.2    70  PHE70      -0.2864
     16  CB        55.7730  -24.9720  -11.0950 C.3    70  PHE70       0.0560
     17  CG        57.1080  -24.3060  -11.3110 C.ar   70  PHE70      -0.0200
     18  CD1       58.2890  -25.0450  -11.2950 C.ar   70  PHE70      -0.0042
     19  CD2       57.1860  -22.9380  -11.5240 C.ar   70  PHE70      -0.0042
     20  CE1       59.5460  -24.4340  -11.4850 C.ar   70  PHE70      -0.0003
     21  CE2       58.4260  -22.3030  -11.7320 C.ar   70  PHE70      -0.0003
     22  CZ        59.6100  -23.0550  -11.7060 C.ar   70  PHE70      -0.0000
     23  N         64.7250  -23.3520   -4.5070 N.3    95  GLN95      -0.1245
     24  CA        64.3250  -22.8390   -5.8130 C.3    95  GLN95       0.1566
     25  C         64.1310  -23.8930   -6.8890 C.2    95  GLN95       0.2260
     26  O         63.4210  -23.6510   -7.8920 O.2    95  GLN95      -0.2867
     27  CB        65.3450  -21.8370   -6.3100 C.3    95  GLN95       0.0367
     28  CG        64.9800  -20.4470   -5.9270 C.3    95  GLN95       0.0905
     29  CD        66.1390  -19.5190   -6.0310 C.2    95  GLN95       0.2608
     30  OE1       65.9720  -18.2890   -6.0460 O.2    95  GLN95      -0.2717
     31  NE2       67.3430  -20.0930   -6.1050 N.am   95  GLN95      -0.0878
     32  N         62.3360  -26.7060   -8.1260 N.3    97  TRP97      -0.1241
     33  CA        61.1490  -27.5510   -7.9740 C.3    97  TRP97       0.1605
     34  C         60.9430  -28.4110   -9.2020 C.2    97  TRP97       0.2264
     35  O         61.3080  -27.9930  -10.3330 O.2    97  TRP97      -0.2867
     36  CB        59.8890  -26.7500   -7.6180 C.3    97  TRP97       0.0550
     37  CG        60.1790  -25.6540   -6.6530 C.ar   97  TRP97       0.0003
     38  CD1       60.9000  -25.7500   -5.5040 C.ar   97  TRP97       0.0946
     39  CD2       59.7790  -24.2940   -6.7610 C.ar   97  TRP97       0.0152
     40  NE1       60.9840  -24.5350   -4.8890 N.ar   97  TRP97      -0.2442
     41  CE2       60.3050  -23.6160   -5.6400 C.ar   97  TRP97       0.0810
     42  CE3       59.0240  -23.5790   -7.6940 C.ar   97  TRP97       0.0012
     43  CZ2       60.1020  -22.2510   -5.4200 C.ar   97  TRP97       0.0191
     44  CZ3       58.8270  -22.2230   -7.4810 C.ar   97  TRP97       0.0001
     45  CH2       59.3700  -21.5710   -6.3460 C.ar   97  TRP97       0.0015
     46  N         58.6170  -17.2590  -17.2630 N.3   222  PRO222     -0.2102
     47  CA        57.7440  -17.0400  -16.0940 C.3   222  PRO222      0.1504
     48  C         57.5560  -15.5500  -15.9030 C.2   222  PRO222      0.2575
     49  O         58.3960  -14.7840  -16.4280 O.2   222  PRO222     -0.2718
     50  CB        58.6000  -17.5560  -14.9510 C.3   222  PRO222      0.0282
     51  CG        60.0360  -17.2000  -15.3810 C.3   222  PRO222      0.0208
     52  CD        60.0370  -17.0920  -16.8960 C.3   222  PRO222      0.0893
     53  N         56.5400  -15.1190  -15.1420 N.am  223  ARG223     -0.1980
     54  CA        56.2380  -13.6570  -15.0080 C.3   223  ARG223      0.1597
     55  C         55.8350  -13.0750  -16.3800 C.2   223  ARG223      0.2287
     56  O         56.3980  -12.0460  -16.8690 O.2   223  ARG223     -0.2864
     57  CB        57.4190  -12.8030  -14.4810 C.3   223  ARG223      0.0334
     58  CG        57.9450  -13.0130  -13.0780 C.3   223  ARG223      0.0492
     59  CD        58.9940  -11.9060  -12.7490 C.3   223  ARG223      0.2205
     60  NE        58.3430  -10.6780  -12.2990 N.pl3 223  ARG223     -0.0865
     61  CZ        58.1270  -10.3560  -11.0180 C.cat 223  ARG223      0.5346
     62  NH1       58.5560  -11.1510  -10.0230 N.pl3 223  ARG223      0.1354
     63  NH2       57.4900   -9.2180  -10.7260 N.pl3 223  ARG223      0.1354
     64  N         66.9660  -26.5310  -14.5940 N.3   285  LEU285     -0.1245
     65  CA        66.0870  -25.5330  -15.1520 C.3   285  LEU285      0.1561
     66  C         66.8320  -24.3090  -15.7240 C.2   285  LEU285      0.2260
     67  O         67.7310  -23.7020  -15.0730 O.2   285  LEU285     -0.2867
     68  CB        65.2040  -25.0870  -14.0280 C.3   285  LEU285      0.0270
     69  CG        63.8570  -24.5690  -14.3640 C.3   285  LEU285      0.0019
     70  CD1       63.0060  -24.9450  -13.1260 C.3   285  LEU285      0.0001
     71  CD2       63.9640  -23.1000  -14.5660 C.3   285  LEU285      0.0001
     72  N         64.5810  -14.6280  -20.5810 N.3   289  THR289     -0.1218
     73  CA        63.3770  -13.8100  -20.6640 C.3   289  THR289      0.1862
     74  C         63.6530  -12.3270  -20.9380 C.2   289  THR289      0.2287
     75  O         64.7210  -11.7820  -20.6640 O.2   289  THR289     -0.2866
     76  CB        62.5200  -13.9690  -19.3920 C.3   289  THR289      0.1770
     77  OG1       61.2420  -13.3750  -19.5940 O.3   289  THR289     -0.2211
     78  CG2       63.1670  -13.2930  -18.2310 C.3   289  THR289      0.0375
     79  N         61.4100   -9.9300  -19.5600 N.3   291  SER291     -0.1217
     80  CA        60.1210   -9.7270  -18.8940 C.3   291  SER291      0.1889
     81  C         59.7920   -8.2760  -18.6480 C.2   291  SER291      0.2288
     82  O         60.6670   -7.3980  -18.5870 O.2   291  SER291     -0.2866
     83  CB        59.9100  -10.6220  -17.6400 C.3   291  SER291      0.2089
     84  OG        60.6070  -10.1350  -16.5090 O.3   291  SER291     -0.2183
     85  N         67.0020  -11.2580  -18.7580 N.3   307  TYR307     -0.1241
     86  CA        67.5100  -12.1740  -17.7470 C.3   307  TYR307      0.1605
     87  C         67.7350  -13.5840  -18.2450 C.2   307  TYR307      0.2264
     88  O         66.9600  -14.1270  -19.0480 O.2   307  TYR307     -0.2867
     89  CB        66.5910  -12.2950  -16.5740 C.3   307  TYR307      0.0534
     90  CG        66.2140  -11.0120  -15.9380 C.ar  307  TYR307     -0.0201
     91  CD1       67.0460  -10.3980  -14.9980 C.ar  307  TYR307     -0.0009
     92  CD2       64.9850  -10.4210  -16.2380 C.ar  307  TYR307     -0.0009
     93  CE1       66.6700   -9.2070  -14.3730 C.ar  307  TYR307      0.0417
     94  CE2       64.5890   -9.2390  -15.6340 C.ar  307  TYR307      0.0417
     95  CZ        65.4300   -8.6250  -14.6930 C.ar  307  TYR307      0.1957
     96  OH        65.0010   -7.4360  -14.1030 O.3   307  TYR307     -0.2866
     97  N         68.9140  -17.2720  -16.1370 N.3   309  PHE309     -0.1241
     98  CA        69.2130  -17.9240  -14.8780 C.3   309  PHE309      0.1605
     99  C         69.0690  -19.4190  -14.9770 C.2   309  PHE309      0.2264
    100  O         68.0560  -19.9500  -15.4770 O.2   309  PHE309     -0.2867
    101  CB        68.4100  -17.3480  -13.7050 C.3   309  PHE309      0.0534
    102  CG        66.9350  -17.6640  -13.7230 C.ar  309  PHE309     -0.0203
    103  CD1       66.4540  -18.8990  -13.3020 C.ar  309  PHE309     -0.0042
    104  CD2       66.0120  -16.6990  -14.0840 C.ar  309  PHE309     -0.0042
    105  CE1       65.0860  -19.1670  -13.2940 C.ar  309  PHE309     -0.0003
    106  CE2       64.6420  -16.9780  -14.0730 C.ar  309  PHE309     -0.0003
    107  CZ        64.1840  -18.2000  -13.6730 C.ar  309  PHE309     -0.0000
    108  N         68.9130  -22.7500  -12.7360 N.3   311  ILE311     -0.1245
    109  CA        68.7930  -23.3660  -11.4210 C.3   311  ILE311      0.1561
    110  C         68.9940  -24.8590  -11.5490 C.2   311  ILE311      0.2260
    111  O         68.2610  -25.5090  -12.2930 O.2   311  ILE311     -0.2867
    112  CB        67.4390  -23.1700  -10.8050 C.3   311  ILE311      0.0252
    113  CG1       67.1020  -21.6860  -10.6740 C.3   311  ILE311      0.0019
    114  CG2       67.4200  -23.8400   -9.4520 C.3   311  ILE311      0.0019
    115  CD1       65.7490  -21.4190  -10.0160 C.3   311  ILE311      0.0001
    116  N         72.5810  -21.9740   -8.1930 N.3   348  TYR348     -0.1241
    117  CA        71.7580  -20.9390   -8.8050 C.3   348  TYR348      0.1605
    118  C         72.6620  -19.9310   -9.4370 C.2   348  TYR348      0.2264
    119  O         73.8350  -19.8830   -9.0920 O.2   348  TYR348     -0.2867
    120  CB        70.8990  -20.2840   -7.7130 C.3   348  TYR348      0.0534
    121  CG        70.0480  -19.0950   -8.1030 C.ar  348  TYR348     -0.0201
    122  CD1       69.3550  -19.0520   -9.3160 C.ar  348  TYR348     -0.0009
    123  CD2       69.9010  -18.0280   -7.2260 C.ar  348  TYR348     -0.0009
    124  CE1       68.5490  -17.9500   -9.6600 C.ar  348  TYR348      0.0417
    125  CE2       69.1060  -16.9200   -7.5530 C.ar  348  TYR348      0.0417
    126  CZ        68.4270  -16.8880   -8.7700 C.ar  348  TYR348      0.1957
    127  OH        67.6440  -15.7920   -9.0750 O.3   348  TYR348     -0.2866
    128  N         71.8410  -15.7250  -11.4680 N.3   350  LEU350     -0.1245
    129  CA        71.0150  -14.8280  -12.2570 C.3   350  LEU350      0.1561
    130  C         71.8430  -13.7590  -12.9860 C.2   350  LEU350      0.2260
    131  O         72.7630  -13.1580  -12.4050 O.2   350  LEU350     -0.2867
    132  CB        69.9740  -14.1890  -11.3370 C.3   350  LEU350      0.0270
    133  CG        69.0000  -13.0900  -11.8020 C.3   350  LEU350      0.0019
    134  CD1       68.2470  -13.4840  -13.0730 C.3   350  LEU350      0.0001
    135  CD2       68.0240  -12.7260  -10.6890 C.3   350  LEU350      0.0001
@<TRIPOS>BOND
     1    74    75    2
     2    74    73    1
     3    73    72    1
     4    73    76    1
     5    77    76    1
     6    79    80    1
     7    76    78    1
     8    88    87    2
     9    80    81    1
    10    80    83    1
    11    85    86    1
    12    81    82    2
    13    87    86    1
    14    86    89    1
    15    83    84    1
    16    10     9    1
    17    46    52    1
    18    46    47    1
    19    52    51    1
    20    56    55    2
    21    89    90    1
    22    49    48    2
    23    55    54    1
    24     6     7    1
    25     6     5    1
    26    92    90   ar
    27    92    94   ar
    28    97    98    1
    29     9    11    1
    30     9     8    2
    31    47    48    1
    32    47    50    1
    33     1     2    1
    34     7     8    1
    35    90    91   ar
    36    48    53   am
    37    66    65    1
    38    66    67    2
    39    94    95   ar
    40     2     5    1
    41     2     3    1
    42   100    99    2
    43    51    50    1
    44    65    64    1
    45    65    68    1
    46    53    54    1
    47    54    57    1
    48    91    93   ar
    49    99    98    1
    50    98   101    1
    51    95    93   ar
    52    95    96    1
    53    71    69    1
    54    57    58    1
    55    69    68    1
    56    69    70    1
    57     3     4    2
    58     3    12   am
    59   104   106   ar
    60   104   102   ar
    61   106   107   ar
    62   102   101    1
    63   102   103   ar
    64   107   105   ar
    65    12    13    1
    66   103   105   ar
    67    58    59    1
    68   134   133    1
    69   130   131    2
    70   130   129    1
    71    59    60    1
    72   108   109    1
    73    15    14    2
    74    60    61    2
    75   111   110    2
    76    13    14    1
    77    13    16    1
    78   129   128    1
    79   129   132    1
    80   133   132    1
    81   133   135    1
    82    21    22   ar
    83    21    19   ar
    84    22    20   ar
    85   110   109    1
    86    19    17   ar
    87    20    18   ar
    88   109   112    1
    89    17    18   ar
    90    17    16    1
    91    61    63    1
    92    61    62    1
    93   112   113    1
    94   112   114    1
    95   113   115    1
    96    35    34    2
    97   124   122   ar
    98   124   126   ar
    99   118   119    2
   100   118   117    1
   101   122   121   ar
   102    34    33    1
   103   127   126    1
   104   117   116    1
   105   117   120    1
   106   126   125   ar
   107    32    33    1
   108   121   120    1
   109   121   123   ar
   110    33    36    1
   111    26    25    2
   112    42    44   ar
   113    42    39   ar
   114    36    37    1
   115   125   123   ar
   116    44    45   ar
   117    25    24    1
   118    39    37   ar
   119    39    41   ar
   120    37    38   ar
   121    45    43   ar
   122    27    28    1
   123    27    24    1
   124    31    29   am
   125    30    29    2
   126    29    28    1
   127    24    23    1
   128    41    43   ar
   129    41    40   ar
   130    38    40   ar
