@<TRIPOS>MOLECULE
tmp/3qlfA00.pdb
 191 179 0 0 0
SMALL
GASTEIGER

@<TRIPOS>ATOM
      1  N         12.0620  -44.5340   -7.6130 N.3    16  LEU16      -0.1231
      2  CA        12.1080  -43.8100   -6.3410 C.3    16  LEU16       0.1693
      3  C         10.9190  -44.0440   -5.4090 C.2    16  LEU16       0.2592
      4  O         11.0820  -44.0750   -4.1840 O.2    16  LEU16      -0.2718
      5  CB        12.3130  -42.3100   -6.5800 C.3    16  LEU16       0.0284
      6  CG        13.7290  -41.9390   -7.0300 C.3    16  LEU16       0.0019
      7  CD1       13.8730  -40.4370   -7.2710 C.3    16  LEU16       0.0001
      8  CD2       14.7530  -42.4300   -6.0140 C.3    16  LEU16       0.0001
      9  N          9.7290  -44.1990   -5.9800 N.am   17  GLY17      -0.1957
     10  CA         8.5340  -44.3800   -5.1750 C.3    17  GLY17       0.1869
     11  C          7.4110  -45.0850   -5.9070 C.2    17  GLY17       0.2309
     12  O          7.3790  -45.1160   -7.1360 O.2    17  GLY17      -0.2863
     13  N          7.3630  -42.9370   -9.4290 N.3    24  VAL24      -0.1245
     14  CA         8.1830  -41.7440   -9.5520 C.3    24  VAL24       0.1561
     15  C          9.6260  -42.1750   -9.7600 C.2    24  VAL24       0.2260
     16  O         10.1680  -42.9430   -8.9650 O.2    24  VAL24      -0.2867
     17  CB         8.1130  -40.8660   -8.3000 C.3    24  VAL24       0.0252
     18  CG1        9.2780  -39.8820   -8.2880 C.3    24  VAL24       0.0019
     19  CG2        6.7840  -40.1290   -8.2340 C.3    24  VAL24       0.0019
     20  N         13.0430  -35.5950  -11.9940 N.3    36  ALA36      -0.1245
     21  CA        12.1440  -36.5620  -11.3950 C.3    36  ALA36       0.1562
     22  C         10.9840  -36.7350  -12.3560 C.2    36  ALA36       0.2260
     23  O         10.5530  -35.7700  -12.9870 O.2    36  ALA36      -0.2867
     24  CB        11.6580  -36.0740  -10.0490 C.3    36  ALA36       0.0290
     25  N          7.1330  -38.4870  -12.7760 N.3    38  LYS38      -0.1245
     26  CA         5.9680  -39.1530  -12.2180 C.3    38  LYS38       0.1561
     27  C          5.1850  -39.8220  -13.3370 C.2    38  LYS38       0.2260
     28  O          4.9800  -39.2250  -14.3910 O.2    38  LYS38      -0.2867
     29  CB         5.0900  -38.1410  -11.4850 C.3    38  LYS38       0.0271
     30  CG         3.9980  -38.7550  -10.6350 C.3    38  LYS38       0.0035
     31  CD         3.3140  -37.6940   -9.7910 C.3    38  LYS38       0.0206
     32  CE         2.1820  -38.2830   -8.9700 C.3    38  LYS38       0.1093
     33  NZ         1.4030  -37.2170   -8.2810 N.3    38  LYS38      -0.1314
     34  N         -3.8160  -32.8930  -13.7120 N.3    44  GLU44      -0.1245
     35  CA        -2.8290  -32.5830  -12.6870 C.3    44  GLU44       0.1567
     36  C         -1.8380  -31.5680  -13.2390 C.2    44  GLU44       0.2260
     37  O         -0.6600  -31.5660  -12.8730 O.2    44  GLU44      -0.2867
     38  CB        -2.0880  -33.8510  -12.2560 C.3    44  GLU44       0.0388
     39  CG        -1.1300  -33.6530  -11.0840 C.3    44  GLU44       0.1160
     40  CD        -0.5350  -34.9560  -10.5740 C.2    44  GLU44       0.3649
     41  OE1       -0.9310  -36.0530  -11.0330 O.co2  44  GLU44      -0.2457
     42  OE2        0.3590  -34.8830   -9.7230 O.co2  44  GLU44      -0.2457
     43  N         -3.2770  -26.4290  -13.1520 N.3    47  VAL47      -0.1231
     44  CA        -2.7980  -25.4360  -12.1990 C.3    47  VAL47       0.1692
     45  C         -1.3140  -25.5840  -11.8840 C.2    47  VAL47       0.2591
     46  O         -0.6800  -24.6400  -11.4100 O.2    47  VAL47      -0.2718
     47  CB        -3.5800  -25.5170  -10.8770 C.3    47  VAL47       0.0266
     48  CG1       -5.0400  -25.1530  -11.1000 C.3    47  VAL47       0.0020
     49  CG2       -3.4490  -26.9100  -10.2720 C.3    47  VAL47       0.0020
     50  N         -0.7630  -26.7670  -12.1350 N.am   48  MET48      -0.1979
     51  CA         0.6450  -27.0150  -11.8360 C.3    48  MET48       0.1605
     52  C          1.5530  -26.1790  -12.7420 C.2    48  MET48       0.2287
     53  O          2.6730  -25.8280  -12.3620 O.2    48  MET48      -0.2864
     54  CB         0.9790  -28.5090  -11.9420 C.3    48  MET48       0.0413
     55  CG         2.2910  -28.9030  -11.2630 C.3    48  MET48       0.0598
     56  SD         2.6230  -30.6850  -11.2480 S.3    48  MET48      -0.1393
     57  CE         4.1780  -30.7270  -10.3530 C.3    48  MET48       0.0692
     58  N          1.7760  -22.3950  -11.5240 N.3    51  ILE51      -0.1245
     59  CA         2.5560  -22.2830  -10.2910 C.3    51  ILE51       0.1561
     60  C          4.0530  -22.0350  -10.5340 C.2    51  ILE51       0.2260
     61  O          4.6860  -22.7190  -11.3440 O.2    51  ILE51      -0.2867
     62  CB         2.3680  -23.5480   -9.4210 C.3    51  ILE51       0.0252
     63  CG1        1.0250  -23.4890   -8.6950 C.3    51  ILE51       0.0019
     64  CG2        3.5070  -23.7060   -8.4270 C.3    51  ILE51       0.0019
     65  CD1        0.7530  -24.6880   -7.8320 C.3    51  ILE51       0.0001
     66  N          8.1230  -24.1490   -4.1090 N.3    56  LEU56      -0.1231
     67  CA         7.2100  -25.1440   -4.6400 C.3    56  LEU56       0.1693
     68  C          7.9610  -25.9040   -5.7090 C.2    56  LEU56       0.2591
     69  O          8.6790  -25.2990   -6.5110 O.2    56  LEU56      -0.2718
     70  CB         5.9740  -24.5040   -5.2590 C.3    56  LEU56       0.0284
     71  CG         5.1080  -23.5570   -4.4370 C.3    56  LEU56       0.0019
     72  CD1        3.7760  -23.4040   -5.1300 C.3    56  LEU56       0.0001
     73  CD2        4.8940  -24.0570   -3.0310 C.3    56  LEU56       0.0001
     74  N          7.8030  -27.2240   -5.7160 N.am   57  VAL57      -0.1980
     75  CA         8.4650  -28.0650   -6.7030 C.3    57  VAL57       0.1595
     76  C          8.0760  -27.6280   -8.1030 C.2    57  VAL57       0.2287
     77  O          6.8900  -27.5400   -8.4260 O.2    57  VAL57      -0.2864
     78  CB         8.0760  -29.5310   -6.5370 C.3    57  VAL57       0.0276
     79  CG1        8.7810  -30.3700   -7.5820 C.3    57  VAL57       0.0022
     80  CG2        8.4200  -30.0040   -5.1430 C.3    57  VAL57       0.0022
     81  N          5.4940  -36.9420  -16.3780 N.3    70  ILE70      -0.1245
     82  CA         5.6310  -35.6020  -15.8250 C.3    70  ILE70       0.1561
     83  C          7.0370  -35.3890  -15.2920 C.2    70  ILE70       0.2260
     84  O          7.5380  -36.1860  -14.4980 O.2    70  ILE70      -0.2867
     85  CB         4.6370  -35.3690  -14.6890 C.3    70  ILE70       0.0252
     86  CG1        3.2090  -35.4840  -15.2130 C.3    70  ILE70       0.0019
     87  CG2        4.8590  -34.0040  -14.0650 C.3    70  ILE70       0.0019
     88  CD1        2.1790  -35.5610  -14.1340 C.3    70  ILE70       0.0001
     89  N          9.6770  -32.9700  -13.2260 N.3    72  THR72      -0.1203
     90  CA         9.8270  -31.8540  -12.3060 C.3    72  THR72       0.1994
     91  C         11.2750  -31.8170  -11.8680 C.2    72  THR72       0.2618
     92  O         12.0270  -32.7520  -12.1530 O.2    72  THR72      -0.2717
     93  CB         8.9490  -32.0360  -11.0600 C.3    72  THR72       0.1784
     94  OG1        9.5400  -33.0170  -10.2000 O.3    72  THR72      -0.2211
     95  CG2        7.5450  -32.4890  -11.4480 C.3    72  THR72       0.0376
     96  N         11.6720  -30.7520  -11.1760 N.am   73  GLU73      -0.1965
     97  CA        13.0080  -30.7020  -10.5950 C.3    73  GLU73       0.1733
     98  C         13.2090  -31.9120   -9.6910 C.2    73  GLU73       0.2616
     99  O         12.2400  -32.5640   -9.2930 O.2    73  GLU73      -0.2715
    100  CB        13.2220  -29.4050   -9.8130 C.3    73  GLU73       0.0429
    101  CG        12.1930  -29.1300   -8.7250 C.3    73  GLU73       0.1163
    102  CD        12.4700  -27.8260   -7.9850 C.2    73  GLU73       0.3649
    103  OE1       13.6310  -27.6050   -7.5820 O.co2  73  GLU73      -0.2457
    104  OE2       11.5330  -27.0170   -7.8150 O.co2  73  GLU73      -0.2457
    105  N         14.4630  -32.2210   -9.3740 N.am   74  TYR74      -0.1960
    106  CA        14.7720  -33.3750   -8.5290 C.3    74  TYR74       0.1771
    107  C         15.1680  -32.9520   -7.1160 C.2    74  TYR74       0.2619
    108  O         16.0320  -32.0960   -6.9340 O.2    74  TYR74      -0.2715
    109  CB        15.8690  -34.2340   -9.1760 C.3    74  TYR74       0.0574
    110  CG        16.3410  -35.4080   -8.3390 C.ar   74  TYR74      -0.0198
    111  CD1       15.5250  -36.5180   -8.1340 C.ar   74  TYR74      -0.0009
    112  CD2       17.6080  -35.4120   -7.7670 C.ar   74  TYR74      -0.0009
    113  CE1       15.9530  -37.5930   -7.3690 C.ar   74  TYR74       0.0417
    114  CE2       18.0470  -36.4820   -7.0050 C.ar   74  TYR74       0.0417
    115  CZ        17.2170  -37.5710   -6.8090 C.ar   74  TYR74       0.1957
    116  OH        17.6540  -38.6370   -6.0470 O.3    74  TYR74      -0.2866
    117  N         14.5180  -33.5430   -6.1190 N.am   75  MET75      -0.1977
    118  CA        14.8380  -33.2530   -4.7270 C.3    75  MET75       0.1605
    119  C         15.6620  -34.3950   -4.1300 C.2    75  MET75       0.2287
    120  O         15.1530  -35.4880   -3.8650 O.2    75  MET75      -0.2864
    121  CB        13.5620  -32.9910   -3.9240 C.3    75  MET75       0.0413
    122  CG        12.6920  -31.8840   -4.5200 C.3    75  MET75       0.0598
    123  SD        13.5610  -30.3060   -4.7380 S.3    75  MET75      -0.1393
    124  CE        13.8850  -29.8420   -3.0380 C.3    75  MET75       0.0692
    125  N         14.4240  -36.6960   -0.9270 N.3    78  GLY78      -0.1210
    126  CA        13.1270  -37.3410   -0.8160 C.3    78  GLY78       0.1956
    127  C         12.1670  -36.5700    0.0700 C.2    78  GLY78       0.2612
    128  O         12.3430  -35.3720    0.2910 O.2    78  GLY78      -0.2717
    129  N         11.1510  -37.2510    0.5860 N.am   79  SER79      -0.1952
    130  CA        10.1290  -36.5760    1.3740 C.3    79  SER79       0.1924
    131  C         10.6640  -36.1470    2.7320 C.2    79  SER79       0.2314
    132  O         11.4780  -36.8350    3.3430 O.2    79  SER79      -0.2863
    133  CB         8.8980  -37.4660    1.5580 C.3    79  SER79       0.2116
    134  OG         9.1470  -38.4840    2.5120 O.3    79  SER79      -0.2180
    135  N         10.3680  -39.0410    5.3460 N.3    82  ASP82      -0.1239
    136  CA        11.4620  -40.0030    5.3850 C.3    82  ASP82       0.1674
    137  C         12.7250  -39.3290    5.9180 C.2    82  ASP82       0.2266
    138  O         13.5090  -39.9270    6.6530 O.2    82  ASP82      -0.2867
    139  CB        11.7180  -40.5880    3.9980 C.3    82  ASP82       0.1410
    140  CG        10.4970  -41.2840    3.4240 C.2    82  ASP82       0.3668
    141  OD1        9.6280  -41.7200    4.2120 O.co2  82  ASP82      -0.2456
    142  OD2       10.4070  -41.3990    2.1820 O.co2  82  ASP82      -0.2456
    143  N         -4.3370  -26.1700   -1.0860 N.3   118  HIS118     -0.1241
    144  CA        -3.5140  -27.3580   -1.2400 C.3   118  HIS118      0.1621
    145  C         -4.2920  -28.6300   -0.9100 C.2   118  HIS118      0.2264
    146  O         -4.1850  -29.6250   -1.6240 O.2   118  HIS118     -0.2867
    147  CB        -2.2540  -27.2580   -0.3870 C.3   118  HIS118      0.0745
    148  CG        -1.2310  -28.3000   -0.7080 C.ar  118  HIS118      0.0817
    149  ND1       -1.3460  -29.6100   -0.2940 N.ar  118  HIS118     -0.2268
    150  CD2       -0.0750  -28.2270   -1.4090 C.ar  118  HIS118      0.1154
    151  CE1       -0.3040  -30.2990   -0.7240 C.ar  118  HIS118      0.1986
    152  NE2        0.4820  -29.4830   -1.4050 N.ar  118  HIS118     -0.2212
    153  N          9.1400  -32.0570   -0.0420 N.3   127  LEU127     -0.1245
    154  CA        10.3750  -32.6380   -0.5500 C.3   127  LEU127      0.1561
    155  C         11.5930  -31.8430   -0.0980 C.2   127  LEU127      0.2260
    156  O         11.5510  -30.6170    0.0130 O.2   127  LEU127     -0.2867
    157  CB        10.3390  -32.7310   -2.0710 C.3   127  LEU127      0.0270
    158  CG         9.2310  -33.6280   -2.6130 C.3   127  LEU127      0.0019
    159  CD1        9.2410  -33.6060   -4.1220 C.3   127  LEU127      0.0001
    160  CD2        9.4140  -35.0440   -2.0900 C.3   127  LEU127      0.0001
    161  N          7.1440  -27.3390   -0.9680 N.3   136  VAL136     -0.1231
    162  CA         5.7910  -27.8930   -1.0040 C.3   136  VAL136      0.1692
    163  C          5.6150  -28.6750   -2.3030 C.2   136  VAL136      0.2592
    164  O          6.1840  -28.3020   -3.3280 O.2   136  VAL136     -0.2718
    165  CB         4.7280  -26.7770   -0.9450 C.3   136  VAL136      0.0266
    166  CG1        3.3190  -27.3630   -0.9470 C.3   136  VAL136      0.0020
    167  CG2        4.9460  -25.9050    0.2770 C.3   136  VAL136      0.0020
    168  N          4.8330  -29.7480   -2.2800 N.am  137  ALA137     -0.1966
    169  CA         4.6890  -30.5700   -3.4780 C.3   137  ALA137      0.1728
    170  C          3.3320  -31.2650   -3.5990 C.2   137  ALA137      0.2616
    171  O          2.5970  -31.3960   -2.6230 O.2   137  ALA137     -0.2715
    172  CB         5.8090  -31.6000   -3.5340 C.3   137  ALA137      0.0334
    173  N          2.9920  -31.6670   -4.8180 N.am  138  ASP138     -0.1957
    174  CA         1.9850  -32.6990   -5.0480 C.3   138  ASP138      0.1840
    175  C          0.6510  -32.5230   -4.3210 C.2   138  ASP138      0.2622
    176  O          0.4010  -33.1970   -3.3250 O.2   138  ASP138     -0.2715
    177  CB         2.5870  -34.0540   -4.6670 C.3   138  ASP138      0.1450
    178  CG         1.7790  -35.2140   -5.1830 C.2   138  ASP138      0.3671
    179  OD1        1.3060  -35.1340   -6.3370 O.co2 138  ASP138     -0.2456
    180  OD2        1.6170  -36.2020   -4.4350 O.co2 138  ASP138     -0.2456
    181  N         -0.2150  -31.6470   -4.8230 N.am  139  PHE139     -0.1974
    182  CA        -1.5640  -31.5450   -4.2660 C.3   139  PHE139      0.1639
    183  C         -2.6560  -31.7740   -5.3090 C.2   139  PHE139      0.2290
    184  O         -2.5480  -31.3210   -6.4470 O.2   139  PHE139     -0.2864
    185  CB        -1.7780  -30.2130   -3.5340 C.3   139  PHE139      0.0560
    186  CG        -2.0510  -29.0400   -4.4400 C.ar  139  PHE139     -0.0200
    187  CD1       -3.3210  -28.8180   -4.9520 C.ar  139  PHE139     -0.0042
    188  CD2       -1.0480  -28.1360   -4.7460 C.ar  139  PHE139     -0.0042
    189  CE1       -3.5750  -27.7320   -5.7740 C.ar  139  PHE139     -0.0003
    190  CE2       -1.2950  -27.0470   -5.5650 C.ar  139  PHE139     -0.0003
    191  CZ        -2.5600  -26.8460   -6.0780 C.ar  139  PHE139     -0.0000
@<TRIPOS>BOND
     1    81    82    1
     2    82    83    1
     3    82    85    1
     4    83    84    2
     5    86    85    1
     6    86    88    1
     7    85    87    1
     8    28    27    2
     9    34    35    1
    10    27    26    1
    11    36    37    2
    12    36    35    1
    13    89    90    1
    14    43    44    1
    15    23    22    2
    16    25    26    1
    17    52    53    2
    18    52    51    1
    19    35    38    1
    20    22    21    1
    21    90    91    1
    22    90    93    1
    23    38    39    1
    24    26    29    1
    25    44    45    1
    26    44    47    1
    27    92    91    2
    28    50    45   am
    29    50    51    1
    30    20    21    1
    31    54    51    1
    32    54    55    1
    33    45    46    2
    34    91    96   am
    35    58    59    1
    36    29    30    1
    37    95    93    1
    38    21    24    1
    39    61    60    2
    40    55    56    1
    41    56    57    1
    42    96    97    1
    43    48    47    1
    44    39    40    1
    45    93    94    1
    46    41    40   ar
    47    47    49    1
    48    30    31    1
    49    97   100    1
    50    97    98    1
    51    40    42   ar
    52    60    59    1
    53    59    62    1
    54   100   101    1
    55    31    32    1
    56    15    14    1
    57    15    16    2
    58    98   105   am
    59    98    99    2
    60    14    13    1
    61    14    17    1
    62    62    63    1
    63    62    64    1
    64   105   106    1
    65   109   106    1
    66   109   110    1
    67    32    33    1
    68   101   102    1
    69    63    65    1
    70   106   107    1
    71    77    76    2
    72   110   111   ar
    73   110   112   ar
    74    17    18    1
    75    17    19    1
    76   111   113   ar
    77    76    75    1
    78   102   104   ar
    79   102   103   ar
    80   112   114   ar
    81     1     2    1
    82    79    78    1
    83   113   115   ar
    84     7     6    1
    85    12    11    2
    86   107   108    2
    87   107   117   am
    88     6     5    1
    89     6     8    1
    90   114   115   ar
    91   115   116    1
    92    75    78    1
    93    75    74    1
    94     5     2    1
    95    78    80    1
    96    69    68    2
    97   184   183    2
    98     2     3    1
    99   179   178   ar
   100   117   118    1
   101   191   189   ar
   102   191   190   ar
   103     9     3   am
   104     9    10    1
   105    11    10    1
   106   189   187   ar
   107    74    68   am
   108    68    67    1
   109   190   188   ar
   110     3     4    2
   111   183   182    1
   112    70    67    1
   113    70    71    1
   114   178   177    1
   115   178   180   ar
   116    72    71    1
   117   174   173    1
   118   174   177    1
   119   174   175    1
   120   187   186   ar
   121   181   175   am
   122   181   182    1
   123   173   170   am
   124   188   186   ar
   125   123   122    1
   126   123   124    1
   127   118   119    1
   128   118   121    1
   129    67    66    1
   130   122   121    1
   131   186   185    1
   132    71    73    1
   133   175   176    2
   134   182   185    1
   135   119   120    2
   136   159   158    1
   137   170   169    1
   138   170   171    2
   139   172   169    1
   140   169   168    1
   141   164   163    2
   142   158   160    1
   143   158   157    1
   144   163   168   am
   145   163   162    1
   146   157   154    1
   147   146   145    2
   148   150   152   ar
   149   150   148   ar
   150   152   151   ar
   151   144   143    1
   152   144   145    1
   153   144   147    1
   154   162   161    1
   155   162   165    1
   156   166   165    1
   157   165   167    1
   158   125   126    1
   159   126   127    1
   160   151   149   ar
   161   148   147    1
   162   148   149   ar
   163   154   155    1
   164   154   153    1
   165   155   156    2
   166   127   128    2
   167   127   129   am
   168   129   130    1
   169   130   133    1
   170   130   131    1
   171   133   134    1
   172   142   140   ar
   173   131   132    2
   174   140   139    1
   175   140   141   ar
   176   139   136    1
   177   135   136    1
   178   136   137    1
   179   137   138    2
