@<TRIPOS>MOLECULE
tmp/3qlgA00.pdb
 138 131 0 0 0
SMALL
GASTEIGER

@<TRIPOS>ATOM
      1  N         11.2850  -44.4330   -8.0680 N.3    16  LEU16      -0.1231
      2  CA        11.2020  -43.7970   -6.7550 C.3    16  LEU16       0.1693
      3  C          9.9540  -44.1500   -5.9540 C.2    16  LEU16       0.2592
      4  O          9.9700  -44.1140   -4.7220 O.2    16  LEU16      -0.2718
      5  CB        11.3180  -42.2790   -6.8920 C.3    16  LEU16       0.0284
      6  CG        12.7170  -41.7600   -7.2230 C.3    16  LEU16       0.0019
      7  CD1       12.6800  -40.2700   -7.5240 C.3    16  LEU16       0.0001
      8  CD2       13.6820  -42.0670   -6.0800 C.3    16  LEU16       0.0001
      9  N          8.8730  -44.4830   -6.6460 N.am   17  GLY17      -0.1957
     10  CA         7.6260  -44.7930   -5.9740 C.3    17  GLY17       0.1869
     11  C          6.5460  -45.2390   -6.9370 C.2    17  GLY17       0.2309
     12  O          6.6400  -45.0090   -8.1510 O.2    17  GLY17      -0.2863
     13  N          6.7750  -42.8610  -10.2620 N.3    24  VAL24      -0.1245
     14  CA         7.6250  -41.6790  -10.2270 C.3    24  VAL24       0.1561
     15  C          9.1020  -42.0500  -10.2570 C.2    24  VAL24       0.2260
     16  O          9.5980  -42.7320   -9.3610 O.2    24  VAL24      -0.2867
     17  CB         7.3640  -40.8290   -8.9790 C.3    24  VAL24       0.0252
     18  CG1        8.4530  -39.7840   -8.8300 C.3    24  VAL24       0.0019
     19  CG2        5.9920  -40.1760   -9.0590 C.3    24  VAL24       0.0019
     20  N         12.5310  -35.1290  -12.3700 N.3    36  ALA36      -0.1231
     21  CA        11.6430  -36.1570  -11.8310 C.3    36  ALA36       0.1694
     22  C         10.5430  -36.4620  -12.8450 C.2    36  ALA36       0.2592
     23  O          9.9550  -35.5520  -13.4260 O.2    36  ALA36      -0.2718
     24  CB        11.0450  -35.7290  -10.4820 C.3    36  ALA36       0.0304
     25  N         10.2730  -37.7440  -13.0610 N.am   37  ILE37      -0.1966
     26  CA         9.2860  -38.1460  -14.0560 C.3    37  ILE37       0.1727
     27  C          8.1550  -38.9580  -13.4310 C.2    37  ILE37       0.2616
     28  O          8.3970  -39.8850  -12.6650 O.2    37  ILE37      -0.2715
     29  CB         9.9420  -38.9480  -15.2070 C.3    37  ILE37       0.0290
     30  CG1       11.1720  -38.2030  -15.7300 C.3    37  ILE37       0.0022
     31  CG2        8.9430  -39.1880  -16.3250 C.3    37  ILE37       0.0023
     32  CD1       12.0710  -39.0360  -16.5900 C.3    37  ILE37       0.0001
     33  N          6.9190  -38.5960  -13.7580 N.am   38  LYS38      -0.1977
     34  CA         5.7520  -39.3200  -13.2700 C.3    38  LYS38       0.1596
     35  C          4.9650  -39.9000  -14.4370 C.2    38  LYS38       0.2287
     36  O          4.6180  -39.1840  -15.3770 O.2    38  LYS38      -0.2864
     37  CB         4.8560  -38.4000  -12.4430 C.3    38  LYS38       0.0298
     38  CG         3.5950  -39.0590  -11.9190 C.3    38  LYS38       0.0038
     39  CD         2.6990  -38.0280  -11.2430 C.3    38  LYS38       0.0206
     40  CE         1.4650  -38.6760  -10.6400 C.3    38  LYS38       0.1093
     41  NZ         0.4590  -37.6720  -10.2030 N.3    38  LYS38      -0.1314
     42  N          6.7650  -27.0690   -6.5170 N.3    66  VAL66      -0.1245
     43  CA         7.4580  -27.9230   -7.4730 C.3    66  VAL66       0.1561
     44  C          7.1140  -27.5100   -8.8970 C.2    66  VAL66       0.2260
     45  O          5.9430  -27.3580   -9.2500 O.2    66  VAL66      -0.2867
     46  CB         7.1170  -29.4060   -7.2500 C.3    66  VAL66       0.0252
     47  CG1        7.7720  -30.2670   -8.3190 C.3    66  VAL66       0.0019
     48  CG2        7.5490  -29.8410   -5.8550 C.3    66  VAL66       0.0019
     49  N          9.0710  -32.7300  -13.9910 N.3    81  THR81      -0.1203
     50  CA         9.2830  -31.6020  -13.0930 C.3    81  THR81       0.1994
     51  C         10.7320  -31.5790  -12.6440 C.2    81  THR81       0.2618
     52  O         11.4940  -32.4900  -12.9490 O.2    81  THR81      -0.2717
     53  CB         8.3890  -31.6880  -11.8420 C.3    81  THR81       0.1784
     54  OG1        8.8160  -32.7880  -11.0260 O.3    81  THR81      -0.2211
     55  CG2        6.9340  -31.8830  -12.2290 C.3    81  THR81       0.0376
     56  N         11.1120  -30.5340  -11.9190 N.am   82  GLU82      -0.1965
     57  CA        12.4140  -30.5010  -11.2690 C.3    82  GLU82       0.1733
     58  C         12.4870  -31.6920  -10.3270 C.2    82  GLU82       0.2616
     59  O         11.4560  -32.2660   -9.9760 O.2    82  GLU82      -0.2715
     60  CB        12.5800  -29.2040  -10.4770 C.3    82  GLU82       0.0429
     61  CG        11.5210  -29.0060   -9.4050 C.3    82  GLU82       0.1163
     62  CD        11.7060  -27.7190   -8.6350 C.2    82  GLU82       0.3649
     63  OE1       12.8410  -27.4480   -8.1960 O.co2  82  GLU82      -0.2457
     64  OE2       10.7180  -26.9790   -8.4710 O.co2  82  GLU82      -0.2457
     65  N         13.6950  -32.0670   -9.9160 N.am   83  TYR83      -0.1960
     66  CA        13.8580  -33.2070   -9.0200 C.3    83  TYR83       0.1771
     67  C         14.2700  -32.7890   -7.6040 C.2    83  TYR83       0.2619
     68  O         15.2610  -32.0800   -7.4130 O.2    83  TYR83      -0.2715
     69  CB        14.8440  -34.2250   -9.6100 C.3    83  TYR83       0.0574
     70  CG        15.1800  -35.3760   -8.6850 C.ar   83  TYR83      -0.0198
     71  CD1       14.2430  -36.3650   -8.3950 C.ar   83  TYR83      -0.0009
     72  CD2       16.4380  -35.4790   -8.1070 C.ar   83  TYR83      -0.0009
     73  CE1       14.5510  -37.4210   -7.5440 C.ar   83  TYR83       0.0417
     74  CE2       16.7580  -36.5310   -7.2620 C.ar   83  TYR83       0.0417
     75  CZ        15.8130  -37.5000   -6.9800 C.ar   83  TYR83       0.1957
     76  OH        16.1350  -38.5430   -6.1320 O.3    83  TYR83      -0.2866
     77  N         13.4930  -33.2240   -6.6150 N.am   84  MET84      -0.1963
     78  CA        13.8350  -32.9830   -5.2150 C.3    84  MET84       0.1736
     79  C         14.6110  -34.1770   -4.6710 C.2    84  MET84       0.2617
     80  O         14.1530  -35.3190   -4.7120 O.2    84  MET84      -0.2715
     81  CB        12.5810  -32.7290   -4.3840 C.3    84  MET84       0.0427
     82  CG        11.6310  -31.7180   -5.0070 C.3    84  MET84       0.0599
     83  SD        12.3960  -30.1020   -5.2840 S.3    84  MET84      -0.1393
     84  CE        12.7800  -29.5950   -3.6040 C.3    84  MET84       0.0692
     85  N         15.7970  -33.9040   -4.1570 N.am   85  SER85      -0.1936
     86  CA        16.7490  -34.9680   -3.8810 C.3    85  SER85       0.2055
     87  C         16.5630  -35.7390   -2.5720 C.2    85  SER85       0.2643
     88  O         17.3160  -36.6780   -2.3220 O.2    85  SER85      -0.2714
     89  CB        18.1690  -34.4090   -3.9430 C.3    85  SER85       0.2130
     90  OG        18.3440  -33.3660   -2.9980 O.3    85  SER85      -0.2179
     91  N         15.5880  -35.3640   -1.7400 N.am   86  LYS86      -0.1963
     92  CA        15.4520  -35.9920   -0.4120 C.3    86  LYS86       0.1728
     93  C         14.1270  -36.7150   -0.1600 C.2    86  LYS86       0.2617
     94  O         13.9490  -37.3550    0.8830 O.2    86  LYS86      -0.2715
     95  CB        15.7010  -34.9770    0.7060 C.3    86  LYS86       0.0311
     96  CG        17.0210  -34.2330    0.5910 C.3    86  LYS86       0.0038
     97  CD        18.2000  -35.1760    0.6820 C.3    86  LYS86       0.0206
     98  CE        19.5210  -34.4340    0.5690 C.3    86  LYS86       0.1093
     99  NZ        20.6730  -35.3710    0.7050 N.3    86  LYS86      -0.1314
    100  N         13.2010  -36.6100   -1.1090 N.am   87  GLY87      -0.1940
    101  CA        11.8990  -37.2380   -0.9700 C.3    87  GLY87       0.2014
    102  C         10.9270  -36.4300   -0.1240 C.2    87  GLY87       0.2639
    103  O         11.1460  -35.2500    0.1600 O.2    87  GLY87      -0.2714
    104  N          9.8380  -37.0650    0.2890 N.am   88  SER88      -0.1949
    105  CA         8.8350  -36.3600    1.0730 C.3    88  SER88       0.1924
    106  C          9.4180  -35.8730    2.3950 C.2    88  SER88       0.2314
    107  O         10.3390  -36.4650    2.9400 O.2    88  SER88      -0.2863
    108  CB         7.6030  -37.2360    1.3230 C.3    88  SER88       0.2116
    109  OG         7.9060  -38.2750    2.2280 O.3    88  SER88      -0.2180
    110  N          9.2630  -38.6290    5.1700 N.3    91  ASP91      -0.1239
    111  CA        10.3160  -39.6370    5.2160 C.3    91  ASP91       0.1674
    112  C         11.6100  -39.0100    5.7290 C.2    91  ASP91       0.2266
    113  O         12.3910  -39.6460    6.4390 O.2    91  ASP91      -0.2867
    114  CB        10.5370  -40.2610    3.8340 C.3    91  ASP91       0.1410
    115  CG         9.4180  -41.2090    3.4350 C.2    91  ASP91       0.3668
    116  OD1        8.5420  -41.5000    4.2830 O.co2  91  ASP91      -0.2456
    117  OD2        9.4250  -41.6710    2.2720 O.co2  91  ASP91      -0.2456
    118  N          8.0060  -31.9430   -0.5680 N.3   136  LEU136     -0.1245
    119  CA         9.2520  -32.5530   -0.9910 C.3   136  LEU136      0.1561
    120  C         10.4410  -31.7330   -0.5000 C.2   136  LEU136      0.2260
    121  O         10.3630  -30.5080   -0.3970 O.2   136  LEU136     -0.2867
    122  CB         9.2790  -32.7160   -2.5080 C.3   136  LEU136      0.0270
    123  CG         8.3950  -33.8480   -3.0460 C.3   136  LEU136      0.0019
    124  CD1        8.3020  -33.8190   -4.5710 C.3   136  LEU136      0.0001
    125  CD2        8.8950  -35.2120   -2.5680 C.3   136  LEU136      0.0001
    126  N          4.0070  -29.8850   -2.9360 N.3   146  ALA146     -0.1231
    127  CA         3.9310  -30.8240   -4.0440 C.3   146  ALA146      0.1694
    128  C          2.4910  -31.2860   -4.2630 C.2   146  ALA146      0.2592
    129  O          1.6230  -31.0240   -3.4330 O.2   146  ALA146     -0.2718
    130  CB         4.8460  -32.0130   -3.7720 C.3   146  ALA146      0.0304
    131  N          2.2460  -31.9670   -5.3810 N.am  147  ASP147     -0.1974
    132  CA         0.9230  -32.5070   -5.7040 C.3   147  ASP147      0.1709
    133  C         -0.1570  -31.4420   -5.8670 C.2   147  ASP147      0.2293
    134  O         -0.8100  -31.0420   -4.9030 O.2   147  ASP147     -0.2864
    135  CB         0.4860  -33.5500   -4.6750 C.3   147  ASP147      0.1436
    136  CG         0.9670  -34.9420   -5.0250 C.2   147  ASP147      0.3671
    137  OD1        2.0080  -35.0520   -5.7110 O.co2 147  ASP147     -0.2456
    138  OD2        0.2990  -35.9210   -4.6220 O.co2 147  ASP147     -0.2456
@<TRIPOS>BOND
     1    32    30    1
     2    31    29    1
     3    30    29    1
     4    36    35    2
     5    29    26    1
     6    35    34    1
     7    26    27    1
     8    26    25    1
     9    49    50    1
    10    33    27   am
    11    33    34    1
    12    27    28    2
    13    23    22    2
    14    34    37    1
    15    50    51    1
    16    50    53    1
    17    25    22   am
    18    52    51    2
    19    22    21    1
    20    51    56   am
    21    37    38    1
    22    20    21    1
    23    55    53    1
    24    56    57    1
    25    38    39    1
    26    53    54    1
    27    21    24    1
    28    57    60    1
    29    57    58    1
    30    39    40    1
    31    40    41    1
    32    60    61    1
    33    58    59    2
    34    58    65   am
    35    13    14    1
    36    15    14    1
    37    15    16    2
    38    14    17    1
    39    65    66    1
    40    69    66    1
    41    69    70    1
    42    61    62    1
    43    45    44    2
    44    19    17    1
    45    66    67    1
    46    17    18    1
    47    44    43    1
    48    70    71   ar
    49    70    72   ar
    50    62    64   ar
    51    62    63   ar
    52    71    73   ar
    53    47    46    1
    54    12    11    2
    55    72    74   ar
    56     1     2    1
    57    67    68    2
    58    67    77   am
    59    73    75   ar
    60     7     6    1
    61    43    46    1
    62    43    42    1
    63    74    75   ar
    64    46    48    1
    65     6     5    1
    66     6     8    1
    67    75    76    1
    68    11    10    1
    69     5     2    1
    70     2     3    1
    71     9    10    1
    72     9     3   am
    73    77    78    1
    74     3     4    2
    75   133   132    1
    76   133   134    2
    77   137   136   ar
    78   132   131    1
    79   132   135    1
    80   131   128   am
    81    83    82    1
    82    83    84    1
    83    78    79    1
    84    78    81    1
    85   136   135    1
    86   136   138   ar
    87    82    81    1
    88    80    79    2
    89    79    85   am
    90   124   123    1
    91   128   127    1
    92   128   129    2
    93    85    86    1
    94   127   130    1
    95   127   126    1
    96    89    86    1
    97    89    90    1
    98    86    87    1
    99   123   125    1
   100   123   122    1
   101    87    88    2
   102    87    91   am
   103   122   119    1
   104    91    92    1
   105   100   101    1
   106   100    93   am
   107   119   118    1
   108   119   120    1
   109   101   102    1
   110   120   121    2
   111    92    93    1
   112    92    95    1
   113    93    94    2
   114   102   103    2
   115   102   104   am
   116   104   105    1
   117    98    97    1
   118    98    99    1
   119    96    97    1
   120    96    95    1
   121   105   108    1
   122   105   106    1
   123   108   109    1
   124   117   115   ar
   125   106   107    2
   126   115   114    1
   127   115   116   ar
   128   114   111    1
   129   110   111    1
   130   111   112    1
   131   112   113    2
