@<TRIPOS>MOLECULE
tmp/3qlhA00.pdb
 75 69 0 0 0
SMALL
GASTEIGER

@<TRIPOS>ATOM
      1  N          9.5220   14.8940    6.2810 N.3   444  ASP444     -0.1225
      2  CA         9.4960   15.5560    7.5800 C.3   444  ASP444      0.1805
      3  C          8.4630   14.9180    8.5030 C.2   444  ASP444      0.2598
      4  O          7.5260   14.2640    8.0430 O.2   444  ASP444     -0.2718
      5  CB         9.2020   17.0480    7.4150 C.3   444  ASP444      0.1424
      6  CG         9.5860   17.8560    8.6390 C.2   444  ASP444      0.3668
      7  OD1       10.2670   17.3130    9.5280 O.co2 444  ASP444     -0.2456
      8  OD2        9.2100   19.0370    8.7200 O.co2 444  ASP444     -0.2456
      9  N          8.6400   15.1110    9.8050 N.am  445  GLY445     -0.1957
     10  CA         7.6270   14.7420   10.7760 C.3   445  GLY445      0.1869
     11  C          7.3770   15.8350   11.7970 C.2   445  GLY445      0.2309
     12  O          8.1890   16.7450   11.9580 O.2   445  GLY445     -0.2863
     13  N          3.5940   17.6560   21.5650 N.3   449  ARG449     -0.1245
     14  CA         4.0860   17.1140   22.8220 C.3   449  ARG449      0.1563
     15  C          2.9580   16.6660   23.7430 C.2   449  ARG449      0.2260
     16  O          3.0030   15.5760   24.3220 O.2   449  ARG449     -0.2867
     17  CB         4.9710   18.1540   23.5290 C.3   449  ARG449      0.0307
     18  CG         6.3860   18.2020   22.9800 C.3   449  ARG449      0.0489
     19  CD         7.0790   19.5280   23.2450 C.3   449  ARG449      0.2205
     20  NE         8.2980   19.6620   22.4350 N.pl3 449  ARG449     -0.0865
     21  CZ         8.4200   20.4360   21.3480 C.cat 449  ARG449      0.5346
     22  NH1        7.3940   21.1700   20.9170 N.pl3 449  ARG449      0.1354
     23  NH2        9.5760   20.4810   20.6870 N.pl3 449  ARG449      0.1354
     24  N          9.7120   11.6000   12.5160 N.3   479  GLU479     -0.1245
     25  CA        10.7770   11.8750   11.5590 C.3   479  GLU479      0.1567
     26  C         11.3020   10.5870   10.9330 C.2   479  GLU479      0.2260
     27  O         11.7040   10.5690    9.7700 O.2   479  GLU479     -0.2867
     28  CB        11.9210   12.6350   12.2340 C.3   479  GLU479      0.0388
     29  CG        11.6040   14.0910   12.5370 C.3   479  GLU479      0.1160
     30  CD        11.8820   15.0040   11.3590 C.2   479  GLU479      0.3649
     31  OE1       12.1090   14.4870   10.2450 O.co2 479  GLU479     -0.2457
     32  OE2       11.8740   16.2390   11.5490 O.co2 479  GLU479     -0.2457
     33  N         15.5520   16.8360    7.7430 N.3   499  ASP499     -0.1225
     34  CA        16.1520   17.8550    8.5810 C.3   499  ASP499      0.1805
     35  C         16.4090   17.2400    9.9500 C.2   499  ASP499      0.2598
     36  O         16.8760   17.9220   10.8420 O.2   499  ASP499     -0.2718
     37  CB        15.2860   19.1310    8.7000 C.3   499  ASP499      0.1424
     38  CG        13.8420   18.8650    9.1480 C.2   499  ASP499      0.3668
     39  OD1       13.5850   17.8580    9.8390 O.co2 499  ASP499     -0.2456
     40  OD2       12.9560   19.6980    8.8080 O.co2 499  ASP499     -0.2456
     41  N         16.1440   15.9440   10.1070 N.am  500  SER500     -0.1952
     42  CA        16.3540   15.3060   11.3930 C.3   500  SER500      0.1924
     43  C         17.7880   14.8430   11.6820 C.2   500  SER500      0.2314
     44  O         18.3170   13.9070   11.0660 O.2   500  SER500     -0.2863
     45  CB        15.4330   14.1050   11.5670 C.3   500  SER500      0.2116
     46  OG        15.6300   13.5100   12.8490 O.3   500  SER500     -0.2180
     47  N         16.7380   22.8940    9.5490 N.3   539  ALA539     -0.1231
     48  CA        15.3400   23.3020    9.6180 C.3   539  ALA539      0.1694
     49  C         15.2000   24.8150    9.5000 C.2   539  ALA539      0.2592
     50  O         15.9400   25.5680   10.1340 O.2   539  ALA539     -0.2718
     51  CB        14.7070   22.8080   10.9100 C.3   539  ALA539      0.0304
     52  N         14.1580   25.2230    8.7810 N.am  540  HIS540     -0.1976
     53  CA        13.7390   26.6030    8.7910 C.3   540  HIS540      0.1656
     54  C         14.7200   27.6410    8.2670 C.2   540  HIS540      0.2291
     55  O         14.8970   28.6850    8.8870 O.2   540  HIS540     -0.2864
     56  CB        13.3440   26.9540   10.2240 C.3   540  HIS540      0.0771
     57  CG        12.1520   26.1780   10.7270 C.ar  540  HIS540      0.0820
     58  ND1       10.9280   26.2280   10.1000 N.ar  540  HIS540     -0.2267
     59  CD2       11.9890   25.3560   11.7990 C.ar  540  HIS540      0.1154
     60  CE1       10.0590   25.4730   10.7600 C.ar  540  HIS540      0.1986
     61  NE2       10.6790   24.9360   11.7900 N.ar  540  HIS540     -0.2212
     62  N          7.0550   20.7870    5.5790 N.3   550  ASP550     -0.1239
     63  CA         7.0120   21.1970    6.9720 C.3   550  ASP550      0.1674
     64  C          5.6420   21.7950    7.3010 C.2   550  ASP550      0.2266
     65  O          5.0990   21.5280    8.3790 O.2   550  ASP550     -0.2867
     66  CB         8.1090   22.2230    7.2600 C.3   550  ASP550      0.1410
     67  CG         7.9840   22.8420    8.6490 C.2   550  ASP550      0.3668
     68  OD1        7.9990   22.0900    9.6330 O.co2 550  ASP550     -0.2456
     69  OD2        7.8660   24.0790    8.7630 O.co2 550  ASP550     -0.2456
     70  N          2.9440   20.2050   10.0500 N.3   554  SER554     -0.1217
     71  CA         2.8550   20.9690   11.2860 C.3   554  SER554      0.1889
     72  C          1.3690   21.0490   11.6310 C.2   554  SER554      0.2288
     73  O          0.9960   21.1500   12.8000 O.2   554  SER554     -0.2866
     74  CB         3.4800   22.3560   11.0990 C.3   554  SER554      0.2089
     75  OG         4.9000   22.2620   11.0380 O.3   554  SER554     -0.2183
@<TRIPOS>BOND
     1    62    63    1
     2     1     2    1
     3    63    66    1
     4    63    64    1
     5    66    67    1
     6    64    65    2
     7     5     2    1
     8     5     6    1
     9     2     3    1
    10    33    34    1
    11     4     3    2
    12    54    53    1
    13    54    55    2
    14     3     9   am
    15    34    37    1
    16    34    35    1
    17     6     8   ar
    18     6     7   ar
    19    67    69   ar
    20    67    68   ar
    21    37    38    1
    22    52    53    1
    23    52    49   am
    24    53    56    1
    25    40    38   ar
    26    38    39   ar
    27    49    48    1
    28    49    50    2
    29    47    48    1
    30    48    51    1
    31    27    26    2
    32     9    10    1
    33    35    41   am
    34    35    36    2
    35    70    71    1
    36    58    57   ar
    37    58    60   ar
    38    41    42    1
    39    56    57    1
    40    31    30   ar
    41    57    59   ar
    42    60    61   ar
    43    10    11    1
    44    26    25    1
    45    75    74    1
    46    44    43    2
    47    74    71    1
    48    71    72    1
    49    30    32   ar
    50    30    29    1
    51    42    45    1
    52    42    43    1
    53    25    28    1
    54    25    24    1
    55    45    46    1
    56    72    73    2
    57    61    59   ar
    58    11    12    2
    59    28    29    1
    60    23    21    1
    61    22    21    1
    62    21    20    2
    63    13    14    1
    64    20    19    1
    65    14    17    1
    66    14    15    1
    67    18    19    1
    68    18    17    1
    69    15    16    2
