@<TRIPOS>MOLECULE
tmp/3qlmA00.pdb
 137 133 0 0 0
SMALL
GASTEIGER

@<TRIPOS>ATOM
      1  N        -35.0090   10.1940  -10.9730 N.3     2  LEU2       -0.1245
      2  CA       -35.7050   11.4950  -10.8500 C.3     2  LEU2        0.1561
      3  C        -37.2080   11.4550  -11.1230 C.2     2  LEU2        0.2260
      4  O        -38.0140   11.8380  -10.2590 O.2     2  LEU2       -0.2867
      5  CB       -35.0660   12.5620  -11.7480 C.3     2  LEU2        0.0270
      6  CG       -35.6500   13.9950  -11.7310 C.3     2  LEU2        0.0019
      7  CD1      -35.6770   14.5860  -10.3540 C.3     2  LEU2        0.0001
      8  CD2      -34.7970   14.8390  -12.6200 C.3     2  LEU2        0.0001
      9  N        -39.0840    9.9520   -8.2160 N.3     5  PHE5       -0.1227
     10  CA       -39.0990   10.8410   -7.0600 C.3     5  PHE5        0.1736
     11  C        -40.1720   11.9010   -7.2830 C.2     5  PHE5        0.2595
     12  O        -40.9800   12.1400   -6.3980 O.2     5  PHE5       -0.2718
     13  CB       -37.7270   11.4850   -6.9010 C.3     5  PHE5        0.0547
     14  CG       -37.5850   12.3940   -5.7010 C.ar    5  PHE5       -0.0202
     15  CD1      -38.2370   12.1220   -4.5050 C.ar    5  PHE5       -0.0042
     16  CD2      -36.7220   13.4760   -5.7620 C.ar    5  PHE5       -0.0042
     17  CE1      -38.0740   12.9280   -3.4020 C.ar    5  PHE5       -0.0003
     18  CE2      -36.5450   14.2990   -4.6680 C.ar    5  PHE5       -0.0003
     19  CZ       -37.2350   14.0230   -3.4760 C.ar    5  PHE5       -0.0000
     20  N        -40.2050   12.5300   -8.4560 N.am    6  ARG6       -0.1980
     21  CA       -41.2170   13.5730   -8.6920 C.3     6  ARG6        0.1597
     22  C        -42.5940   13.0180   -8.4480 C.2     6  ARG6        0.2287
     23  O        -43.4550   13.6810   -7.9070 O.2     6  ARG6       -0.2864
     24  CB       -41.1970   14.0750  -10.1200 C.3     6  ARG6        0.0334
     25  CG       -40.3050   15.2470  -10.4010 C.3     6  ARG6        0.0492
     26  CD       -40.6360   15.7230  -11.8550 C.3     6  ARG6        0.2205
     27  NE       -39.6090   15.3470  -12.8530 N.pl3   6  ARG6       -0.0865
     28  CZ       -39.7680   14.4830  -13.8640 C.cat   6  ARG6        0.5346
     29  NH1      -40.9370   13.8640  -14.0430 N.pl3   6  ARG6        0.1354
     30  NH2      -38.7490   14.2280  -14.6930 N.pl3   6  ARG6        0.1354
     31  N        -43.4260   12.4230   -4.8830 N.3     9  ILE9       -0.1245
     32  CA       -43.8120   13.6690   -4.2490 C.3     9  ILE9        0.1561
     33  C        -45.3020   13.8420   -4.4770 C.2     9  ILE9        0.2260
     34  O        -46.0440   14.1890   -3.5560 O.2     9  ILE9       -0.2867
     35  CB       -43.0550   14.8450   -4.8180 C.3     9  ILE9        0.0252
     36  CG1      -41.6470   14.8830   -4.2300 C.3     9  ILE9        0.0019
     37  CG2      -43.7910   16.1080   -4.5200 C.3     9  ILE9        0.0019
     38  CD1      -40.6660   15.5760   -5.1200 C.3     9  ILE9        0.0001
     39  N        -44.5960   19.0650   -8.3820 N.3    18  PRO18      -0.2102
     40  CA       -43.2460   18.9200   -7.8340 C.3    18  PRO18       0.1504
     41  C        -42.2140   19.9230   -8.3710 C.2    18  PRO18       0.2575
     42  O        -41.7040   20.7240   -7.5880 O.2    18  PRO18      -0.2718
     43  CB       -42.8860   17.4870   -8.2080 C.3    18  PRO18       0.0282
     44  CG       -44.2120   16.7920   -8.1100 C.3    18  PRO18       0.0208
     45  CD       -45.1780   17.7590   -8.7270 C.3    18  PRO18       0.0893
     46  N        -41.9230   19.9060   -9.6760 N.am   19  LEU19      -0.1980
     47  CA       -40.9500   20.8560  -10.2210 C.3    19  LEU19       0.1596
     48  C        -41.2500   22.3010   -9.7930 C.2    19  LEU19       0.2287
     49  O        -40.3990   22.9550   -9.2160 O.2    19  LEU19      -0.2864
     50  CB       -40.8070   20.7620  -11.7490 C.3    19  LEU19       0.0297
     51  CG       -39.9330   21.8950  -12.3430 C.3    19  LEU19       0.0022
     52  CD1      -38.4420   21.5510  -12.4400 C.3    19  LEU19       0.0001
     53  CD2      -40.4510   22.4300  -13.7100 C.3    19  LEU19       0.0001
     54  N        -41.0820   22.6010   -5.5790 N.3    22  PHE22      -0.1227
     55  CA       -39.9270   22.2600   -4.7660 C.3    22  PHE22       0.1736
     56  C        -38.6110   22.3270   -5.4600 C.2    22  PHE22       0.2595
     57  O        -37.6480   21.8840   -4.8990 O.2    22  PHE22      -0.2718
     58  CB       -40.0650   20.8530   -4.2430 C.3    22  PHE22       0.0547
     59  CG       -41.3210   20.6210   -3.5060 C.ar   22  PHE22      -0.0202
     60  CD1      -41.3780   20.8280   -2.1420 C.ar   22  PHE22      -0.0042
     61  CD2      -42.4610   20.2140   -4.1730 C.ar   22  PHE22      -0.0042
     62  CE1      -42.5590   20.6280   -1.4370 C.ar   22  PHE22      -0.0003
     63  CE2      -43.6530   20.0040   -3.4830 C.ar   22  PHE22      -0.0003
     64  CZ       -43.7030   20.2110   -2.1110 C.ar   22  PHE22      -0.0000
     65  N        -38.5530   22.8160   -6.6870 N.am   23  ASN23      -0.1974
     66  CA       -37.2670   23.0700   -7.3510 C.3    23  ASN23       0.1688
     67  C        -37.0120   24.6080   -7.2590 C.2    23  ASN23       0.2292
     68  O        -37.9120   25.4330   -7.4870 O.2    23  ASN23      -0.2864
     69  CB       -37.2570   22.4630   -8.7870 C.3    23  ASN23       0.1181
     70  CG       -35.8780   22.5240   -9.4970 C.2    23  ASN23       0.2629
     71  OD1      -35.5810   23.4980  -10.2070 O.2    23  ASN23      -0.2716
     72  ND2      -35.0770   21.4420   -9.3850 N.am   23  ASN23      -0.0877
     73  N        -33.1380   22.9830   -2.0520 N.3    29  CYS29      -0.1221
     74  CA       -34.0410   22.5390   -3.1040 C.3    29  CYS29       0.1808
     75  C        -33.7480   23.1190   -4.5070 C.2    29  CYS29       0.2602
     76  O        -34.1330   24.2620   -4.8000 O.2    29  CYS29      -0.2717
     77  CB       -35.5000   22.7570   -2.7530 C.3    29  CYS29       0.0970
     78  SG       -35.9470   22.3840   -1.1060 S.3    29  CYS29      -0.0800
     79  N        -33.1870   22.2330   -5.3290 N.am   30  GLY30      -0.1942
     80  CA       -32.5790   22.6510   -6.6030 C.3    30  GLY30       0.2014
     81  C        -31.1030   22.4230   -6.5520 C.2    30  GLY30       0.2638
     82  O        -30.5450   22.3830   -5.4660 O.2    30  GLY30      -0.2714
     83  N        -30.4580   22.2790   -7.7120 N.am   31  LEU31      -0.1977
     84  CA       -29.0180   21.8110   -7.8210 C.3    31  LEU31       0.1596
     85  C        -27.9520   22.1830   -6.6900 C.2    31  LEU31       0.2287
     86  O        -27.8660   23.3400   -6.2500 O.2    31  LEU31      -0.2864
     87  CB       -28.4450   22.1160   -9.2330 C.3    31  LEU31       0.0297
     88  CG       -27.3400   21.1300   -9.6190 C.3    31  LEU31       0.0022
     89  CD1      -27.9520   19.9280  -10.3750 C.3    31  LEU31       0.0001
     90  CD2      -26.1670   21.7910  -10.3970 C.3    31  LEU31       0.0001
     91  N        -34.7460   19.0300    1.8080 N.3    45  CYS45      -0.1235
     92  CA       -33.7990   18.8400    0.7050 C.3    45  CYS45       0.1677
     93  C        -32.3580   18.6170    1.0460 C.2    45  CYS45       0.2270
     94  O        -31.7060   17.8080    0.3820 O.2    45  CYS45      -0.2867
     95  CB       -33.9650   20.0970   -0.1160 C.3    45  CYS45       0.0956
     96  SG       -35.5850   20.2040   -0.8050 S.3    45  CYS45      -0.0801
     97  N        -31.8240   15.0410    1.8160 N.3    48  HIS48      -0.1241
     98  CA       -31.8420   14.3170    0.5560 C.3    48  HIS48       0.1621
     99  C        -30.5210   14.3840   -0.1930 C.2    48  HIS48       0.2264
    100  O        -30.0290   13.3390   -0.6430 O.2    48  HIS48      -0.2867
    101  CB       -33.0010   14.7460   -0.2930 C.3    48  HIS48       0.0745
    102  CG       -33.2520   13.8690   -1.4690 C.ar   48  HIS48       0.0817
    103  ND1      -33.0910   14.3060   -2.7750 N.ar   48  HIS48      -0.2268
    104  CD2      -33.7270   12.6030   -1.5520 C.ar   48  HIS48       0.1154
    105  CE1      -33.4570   13.3420   -3.6040 C.ar   48  HIS48       0.1986
    106  NE2      -33.8320   12.2910   -2.8890 N.ar   48  HIS48      -0.2212
    107  N        -24.6990    9.3720  -11.2600 N.3    67  ASN67      -0.1240
    108  CA       -25.8410   10.1200  -10.7830 C.3    67  ASN67       0.1653
    109  C        -26.9520    9.1540  -10.3470 C.2    67  ASN67       0.2266
    110  O        -27.5180    8.4250  -11.1870 O.2    67  ASN67      -0.2867
    111  CB       -26.2970   11.0420  -11.8980 C.3    67  ASN67       0.1155
    112  CG       -27.2770   12.1130  -11.4210 C.2    67  ASN67       0.2627
    113  OD1      -27.8330   12.0480  -10.3120 O.2    67  ASN67      -0.2716
    114  ND2      -27.5220   13.0990  -12.2850 N.am   67  ASN67      -0.0877
    115  N        -29.8070    9.6310   -9.6120 N.3    69  TYR69      -0.1241
    116  CA       -31.0720   10.0030  -10.2550 C.3    69  TYR69       0.1605
    117  C        -31.3600    9.2050  -11.5040 C.2    69  TYR69       0.2264
    118  O        -32.4970    9.1930  -11.9730 O.2    69  TYR69      -0.2867
    119  CB       -31.1320   11.4680  -10.6200 C.3    69  TYR69       0.0534
    120  CG       -31.6170   12.3720   -9.5160 C.ar   69  TYR69      -0.0201
    121  CD1      -32.8660   12.1610   -8.8830 C.ar   69  TYR69      -0.0009
    122  CD2      -30.8420   13.4690   -9.1020 C.ar   69  TYR69      -0.0009
    123  CE1      -33.3240   13.0330   -7.8520 C.ar   69  TYR69       0.0417
    124  CE2      -31.2830   14.3170   -8.0660 C.ar   69  TYR69       0.0417
    125  CZ       -32.5230   14.1060   -7.4680 C.ar   69  TYR69       0.1957
    126  OH       -32.9330   14.9710   -6.4600 O.3    69  TYR69      -0.2866
    127  N        -41.1650   16.2560    2.8470 N.3   106  PHE106     -0.1241
    128  CA       -41.8040   17.4270    2.2300 C.3   106  PHE106      0.1605
    129  C        -43.2510   17.5290    2.6880 C.2   106  PHE106      0.2264
    130  O        -43.8020   18.6210    2.7640 O.2   106  PHE106     -0.2867
    131  CB       -41.8790   17.3750    0.7020 C.3   106  PHE106      0.0534
    132  CG       -40.5650   17.4530   -0.0200 C.ar  106  PHE106     -0.0203
    133  CD1      -39.3530   17.5460    0.6590 C.ar  106  PHE106     -0.0042
    134  CD2      -40.5660   17.3730   -1.4280 C.ar  106  PHE106     -0.0042
    135  CE1      -38.1520   17.5680   -0.0630 C.ar  106  PHE106     -0.0003
    136  CE2      -39.4150   17.4020   -2.1230 C.ar  106  PHE106     -0.0003
    137  CZ       -38.1880   17.4940   -1.4590 C.ar  106  PHE106     -0.0000
@<TRIPOS>BOND
     1    30    28    1
     2    29    28    1
     3    28    27    2
     4    53    51    1
     5    27    26    1
     6     8     6    1
     7    52    51    1
     8    51    50    1
     9   114   112   am
    10   118   117    2
    11   111   112    1
    12   111   108    1
    13    26    25    1
    14    50    47    1
    15     5     6    1
    16     5     2    1
    17     6     7    1
    18   117   116    1
    19   112   113    2
    20   107   108    1
    21   110   109    2
    22     3     2    1
    23     3     4    2
    24     1     2    1
    25   108   109    1
    26   119   116    1
    27   119   120    1
    28    25    24    1
    29    90    88    1
    30    89    88    1
    31   116   115    1
    32    47    48    1
    33    47    46    1
    34    71    70    2
    35    24    21    1
    36    48    49    2
    37    46    41   am
    38    88    87    1
    39   120   122   ar
    40   120   121   ar
    41    70    72   am
    42    70    69    1
    43    87    84    1
    44   122   124   ar
    45   121   123   ar
    46    69    66    1
    47    45    39    1
    48    45    44    1
    49    21    20    1
    50    21    22    1
    51    20    11   am
    52    22    23    2
    53    39    40    1
    54    41    40    1
    55    41    42    2
    56     9    10    1
    57    43    44    1
    58    43    40    1
    59   124   125   ar
    60   123   125   ar
    61    84    83    1
    62    84    85    1
    63    83    81   am
    64    68    67    2
    65   125   126    1
    66    66    67    1
    67    66    65    1
    68    11    10    1
    69    11    12    2
    70    10    13    1
    71    13    14    1
    72    85    86    2
    73    65    56   am
    74    80    81    1
    75    80    79    1
    76    81    82    2
    77    16    14   ar
    78    16    18   ar
    79    14    15   ar
    80    54    55    1
    81    56    57    2
    82    56    55    1
    83    79    75   am
    84    38    36    1
    85    31    32    1
    86    35    37    1
    87    35    32    1
    88    35    36    1
    89    76    75    2
    90    55    58    1
    91    18    19   ar
    92    75    74    1
    93    15    17   ar
    94    33    32    1
    95    33    34    2
    96    58    59    1
    97    61    59   ar
    98    61    63   ar
    99   105   106   ar
   100   105   103   ar
   101    59    60   ar
   102    63    64   ar
   103    19    17   ar
   104    74    77    1
   105    74    73    1
   106   106   104   ar
   107   103   102   ar
   108    77    78    1
   109    60    62   ar
   110   136   137   ar
   111   136   134   ar
   112    64    62   ar
   113   104   102   ar
   114   102   101    1
   115   137   135   ar
   116   134   132   ar
   117    78    96    1
   118    96    95    1
   119   100    99    2
   120   101    98    1
   121    99    98    1
   122    95    92    1
   123   135   133   ar
   124   132   133   ar
   125   132   131    1
   126    94    93    2
   127    98    97    1
   128   131   128    1
   129    92    93    1
   130    92    91    1
   131   128   129    1
   132   128   127    1
   133   129   130    2
