@<TRIPOS>MOLECULE
tmp/3qlsA01.pdb
 179 171 0 0 0
SMALL
GASTEIGER

@<TRIPOS>ATOM
      1  N          3.3710   -2.2930   25.2320 N.3     9  ILE9       -0.1231
      2  CA         1.9910   -1.8040   25.3560 C.3     9  ILE9        0.1692
      3  C          1.9780   -0.2770   25.3800 C.2     9  ILE9        0.2592
      4  O          2.6980    0.3490   26.1680 O.2     9  ILE9       -0.2718
      5  CB         1.2680   -2.4150   26.6070 C.3     9  ILE9        0.0266
      6  CG1       -0.2010   -1.9800   26.6630 C.3     9  ILE9        0.0019
      7  CG2        2.0190   -2.0800   27.8940 C.3     9  ILE9        0.0020
      8  CD1       -1.1040   -2.9330   27.4830 C.3     9  ILE9        0.0001
      9  N          1.1700    0.3130   24.4950 N.am   10  VAL10      -0.1966
     10  CA         1.1860    1.7540   24.2570 C.3    10  VAL10       0.1727
     11  C         -0.1470    2.1940   23.6390 C.2    10  VAL10       0.2616
     12  O         -0.8310    1.3920   22.9840 O.2    10  VAL10      -0.2715
     13  CB         2.3880    2.1650   23.3140 C.3    10  VAL10       0.0290
     14  CG1        2.2190    1.5730   21.9100 C.3    10  VAL10       0.0023
     15  CG2        2.5390    3.6740   23.2460 C.3    10  VAL10       0.0023
     16  N         -0.5330    3.4440   23.9030 N.am   11  ALA11      -0.1977
     17  CA        -1.6360    4.0990   23.1940 C.3    11  ALA11       0.1597
     18  C         -1.1100    5.2790   22.3830 C.2    11  ALA11       0.2287
     19  O         -0.4360    6.1760   22.9200 O.2    11  ALA11      -0.2864
     20  CB        -2.7090    4.5590   24.1760 C.3    11  ALA11       0.0319
     21  N          4.0210   14.5840   29.5070 N.3    24  LYS24      -0.1231
     22  CA         2.7280   14.0570   29.9390 C.3    24  LYS24       0.1693
     23  C          1.9060   13.4850   28.7750 C.2    24  LYS24       0.2591
     24  O          2.3120   13.5690   27.6090 O.2    24  LYS24      -0.2718
     25  CB         1.9250   15.1230   30.7140 C.3    24  LYS24       0.0285
     26  CG         1.7610   16.4650   30.0020 C.3    24  LYS24       0.0035
     27  CD         0.4930   16.5070   29.1560 C.3    24  LYS24       0.0206
     28  CE         0.4020   17.7930   28.3530 C.3    24  LYS24       0.1093
     29  NZ        -0.5500   17.6610   27.2120 N.3    24  LYS24      -0.1314
     30  N          0.7580   12.8970   29.1090 N.am   25  MET25      -0.1979
     31  CA        -0.1350   12.2830   28.1260 C.3    25  MET25       0.1605
     32  C         -1.1450   13.3150   27.6090 C.2    25  MET25       0.2287
     33  O         -1.7130   14.0750   28.3990 O.2    25  MET25      -0.2864
     34  CB        -0.8750   11.1050   28.7700 C.3    25  MET25       0.0413
     35  CG        -1.0590    9.8930   27.8700 C.3    25  MET25       0.0598
     36  SD        -1.3150    8.3770   28.8230 S.3    25  MET25      -0.1393
     37  CE         0.3730    7.9150   29.1790 C.3    25  MET25       0.0692
     38  N         -9.3900    3.1100   28.4430 N.3    32  GLU32      -0.1231
     39  CA        -8.0600    2.7080   27.9710 C.3    32  GLU32       0.1699
     40  C         -7.1210    2.4640   29.1520 C.2    32  GLU32       0.2592
     41  O         -6.3840    1.4690   29.1860 O.2    32  GLU32      -0.2718
     42  CB        -7.4810    3.7920   27.0420 C.3    32  GLU32       0.0402
     43  CG        -6.5490    3.2730   25.9430 C.3    32  GLU32       0.1161
     44  CD        -5.2360    2.7140   26.4800 C.2    32  GLU32       0.3649
     45  OE1       -4.6520    3.3320   27.3920 O.co2  32  GLU32      -0.2457
     46  OE2       -4.7840    1.6540   25.9800 O.co2  32  GLU32      -0.2457
     47  N         -7.1450    3.3820   30.1150 N.am   33  ILE33      -0.1980
     48  CA        -6.3760    3.2470   31.3420 C.3    33  ILE33       0.1595
     49  C         -6.7280    1.9440   32.0880 C.2    33  ILE33       0.2287
     50  O         -5.8380    1.2250   32.5500 O.2    33  ILE33      -0.2864
     51  CB        -6.5800    4.5000   32.2630 C.3    33  ILE33       0.0276
     52  CG1       -5.9360    5.7380   31.6170 C.3    33  ILE33       0.0022
     53  CG2       -6.0270    4.2570   33.6660 C.3    33  ILE33       0.0022
     54  CD1       -6.4480    7.0620   32.1600 C.3    33  ILE33       0.0001
     55  N         -8.0560   -0.7480   30.7200 N.3    35  TYR35      -0.1227
     56  CA        -7.5160   -1.8030   29.8440 C.3    35  TYR35       0.1736
     57  C         -6.0410   -2.0470   30.1350 C.2    35  TYR35       0.2595
     58  O         -5.6180   -3.1920   30.3440 O.2    35  TYR35      -0.2718
     59  CB        -7.7200   -1.4230   28.3710 C.3    35  TYR35       0.0548
     60  CG        -7.0560   -2.3600   27.3730 C.ar   35  TYR35      -0.0200
     61  CD1       -7.7040   -3.5230   26.9400 C.ar   35  TYR35      -0.0009
     62  CD2       -5.8040   -2.0620   26.8300 C.ar   35  TYR35      -0.0009
     63  CE1       -7.1150   -4.3790   26.0090 C.ar   35  TYR35       0.0417
     64  CE2       -5.1940   -2.9240   25.8850 C.ar   35  TYR35       0.0417
     65  CZ        -5.8650   -4.0700   25.4810 C.ar   35  TYR35       0.1957
     66  OH        -5.2950   -4.9190   24.5540 O.3    35  TYR35      -0.2866
     67  N         -5.2690   -0.9620   30.1900 N.am   36  PHE36      -0.1962
     68  CA        -3.8500   -1.0450   30.5280 C.3    36  PHE36       0.1771
     69  C         -3.6370   -1.7610   31.8650 C.2    36  PHE36       0.2619
     70  O         -2.7850   -2.6380   31.9790 O.2    36  PHE36      -0.2715
     71  CB        -3.2250    0.3510   30.5610 C.3    36  PHE36       0.0574
     72  CG        -1.8570    0.3840   31.1650 C.ar   36  PHE36      -0.0200
     73  CD1       -0.7450   -0.0400   30.4290 C.ar   36  PHE36      -0.0042
     74  CD2       -1.6680    0.8450   32.4700 C.ar   36  PHE36      -0.0042
     75  CE1        0.5320   -0.0070   30.9830 C.ar   36  PHE36      -0.0003
     76  CE2       -0.4010    0.8780   33.0360 C.ar   36  PHE36      -0.0003
     77  CZ         0.7100    0.4450   32.2880 C.ar   36  PHE36      -0.0000
     78  N         -4.4130   -1.3760   32.8740 N.am   37  LYS37      -0.1977
     79  CA        -4.3220   -2.0070   34.1870 C.3    37  LYS37       0.1596
     80  C         -4.6430   -3.5010   34.0990 C.2    37  LYS37       0.2287
     81  O         -3.8920   -4.3420   34.6010 O.2    37  LYS37      -0.2864
     82  CB        -5.2680   -1.3160   35.1790 C.3    37  LYS37       0.0298
     83  CG        -5.2160   -1.8940   36.5890 C.3    37  LYS37       0.0038
     84  CD        -6.2650   -1.2550   37.4970 C.3    37  LYS37       0.0206
     85  CE        -7.6850   -1.6100   37.0570 C.3    37  LYS37       0.1093
     86  NZ        -8.7000   -0.9800   37.9490 N.3    37  LYS37      -0.1314
     87  N          9.2660    8.1480   32.4620 N.3    58  THR58      -0.1218
     88  CA         7.9080    7.6000   32.5950 C.3    58  THR58       0.1862
     89  C          7.5720    7.3070   34.0570 C.2    58  THR58       0.2287
     90  O          6.4940    7.6800   34.5440 O.2    58  THR58      -0.2866
     91  CB         7.7170    6.3380   31.7190 C.3    58  THR58       0.1770
     92  OG1        7.7180    6.7190   30.3410 O.3    58  THR58      -0.2211
     93  CG2        6.4050    5.6340   32.0440 C.3    58  THR58       0.0375
     94  N          6.8190   10.3580   35.9630 N.3    61  SER61      -0.1202
     95  CA         5.5450   10.9480   35.5320 C.3    61  SER61       0.2020
     96  C          4.3470   10.4130   36.3260 C.2    61  SER61       0.2619
     97  O          3.3240   11.0890   36.4430 O.2    61  SER61      -0.2717
     98  CB         5.3220   10.7410   34.0240 C.3    61  SER61       0.2103
     99  OG         4.7730    9.4610   33.7480 O.3    61  SER61      -0.2182
    100  N          4.4700    9.1950   36.8520 N.am   62  ILE62      -0.1966
    101  CA         3.4260    8.6230   37.7140 C.3    62  ILE62       0.1712
    102  C          3.4800    9.3300   39.0740 C.2    62  ILE62       0.2458
    103  O          4.5540    9.4350   39.6700 O.2    62  ILE62      -0.2730
    104  CB         3.6290    7.1000   37.9230 C.3    62  ILE62       0.0289
    105  CG1        3.7560    6.3760   36.5760 C.3    62  ILE62       0.0022
    106  CG2        2.4820    6.5000   38.7550 C.3    62  ILE62       0.0023
    107  CD1        4.5030    5.0460   36.6560 C.3    62  ILE62       0.0001
    108  N          2.3270    9.8300   39.5640 N.am   63  PRO63      -0.2727
    109  CA         2.3230   10.4610   40.8940 C.3    63  PRO63       0.1402
    110  C          2.9590    9.5280   41.9240 C.2    63  PRO63       0.2269
    111  O          2.6810    8.3290   41.9200 O.2    63  PRO63      -0.2865
    112  CB         0.8330   10.6440   41.1870 C.3    63  PRO63       0.0296
    113  CG         0.2080   10.7720   39.8420 C.3    63  PRO63       0.0237
    114  CD         0.9950    9.8570   38.9340 C.3    63  PRO63       0.0939
    115  N          1.1460    6.8100   43.6600 N.3    66  PHE66      -0.1241
    116  CA         0.5000    5.7870   42.8360 C.3    66  PHE66       0.1605
    117  C          1.5080    4.8930   42.1160 C.2    66  PHE66       0.2264
    118  O          1.1430    4.1000   41.2390 O.2    66  PHE66      -0.2867
    119  CB        -0.4790    6.4360   41.8560 C.3    66  PHE66       0.0534
    120  CG        -1.6460    7.1020   42.5320 C.ar   66  PHE66      -0.0203
    121  CD1       -2.6680    6.3360   43.1030 C.ar   66  PHE66      -0.0042
    122  CD2       -1.7080    8.4820   42.6390 C.ar   66  PHE66      -0.0042
    123  CE1       -3.7480    6.9460   43.7510 C.ar   66  PHE66      -0.0003
    124  CE2       -2.7840    9.1020   43.2830 C.ar   66  PHE66      -0.0003
    125  CZ        -3.8000    8.3290   43.8440 C.ar   66  PHE66      -0.0000
    126  N          3.1690    0.7000   40.3830 N.3    69  LEU69      -0.1245
    127  CA         1.8820    0.1780   39.9200 C.3    69  LEU69       0.1561
    128  C          1.6000   -1.1490   40.6360 C.2    69  LEU69       0.2260
    129  O          2.4110   -2.0740   40.5800 O.2    69  LEU69      -0.2867
    130  CB         1.8820    0.0040   38.3970 C.3    69  LEU69       0.0270
    131  CG         2.1960    1.2620   37.5720 C.3    69  LEU69       0.0019
    132  CD1        2.1640    0.9590   36.0810 C.3    69  LEU69       0.0001
    133  CD2        1.2430    2.4120   37.9020 C.3    69  LEU69       0.0001
    134  N          2.1020   -5.7290   40.1870 N.3    72  ARG72      -0.1245
    135  CA         3.0800   -6.0290   39.1360 C.3    72  ARG72       0.1563
    136  C          4.4830   -5.7120   39.6340 C.2    72  ARG72       0.2260
    137  O          4.6700   -4.8180   40.4580 O.2    72  ARG72      -0.2867
    138  CB         2.7860   -5.1990   37.8740 C.3    72  ARG72       0.0307
    139  CG         1.5350   -5.6150   37.1090 C.3    72  ARG72       0.0489
    140  CD         0.8350   -4.3980   36.4860 C.3    72  ARG72       0.2205
    141  NE         0.1380   -3.6040   37.5030 N.pl3  72  ARG72      -0.0865
    142  CZ        -0.5660   -2.5010   37.2600 C.cat  72  ARG72       0.5346
    143  NH1       -0.6730   -2.0170   36.0210 N.pl3  72  ARG72       0.1354
    144  NH2       -1.1650   -1.8700   38.2670 N.pl3  72  ARG72       0.1354
    145  N          6.1700   -0.4320   29.2250 N.3   112  ILE112     -0.1245
    146  CA         5.0680    0.5230   29.3940 C.3   112  ILE112      0.1561
    147  C          5.4350    2.0000   29.1620 C.2   112  ILE112      0.2260
    148  O          4.6120    2.8900   29.3970 O.2   112  ILE112     -0.2867
    149  CB         4.3380    0.3310   30.7520 C.3   112  ILE112      0.0252
    150  CG1        5.1930    0.8530   31.9180 C.3   112  ILE112      0.0019
    151  CG2        3.9610   -1.1270   30.9470 C.3   112  ILE112      0.0019
    152  CD1        4.4520    0.8890   33.2490 C.3   112  ILE112      0.0001
    153  N         10.5690    2.8320   24.0620 N.3   118  TYR118     -0.1241
    154  CA         9.8080    2.1830   22.9780 C.3   118  TYR118      0.1605
    155  C         10.6280    2.1100   21.7050 C.2   118  TYR118      0.2264
    156  O         10.6680    1.0660   21.0390 O.2   118  TYR118     -0.2867
    157  CB         8.5400    2.9600   22.6580 C.3   118  TYR118      0.0534
    158  CG         7.4020    2.8300   23.6530 C.ar  118  TYR118     -0.0201
    159  CD1        7.0700    1.6000   24.2320 C.ar  118  TYR118     -0.0009
    160  CD2        6.6130    3.9330   23.9560 C.ar  118  TYR118     -0.0009
    161  CE1        5.9800    1.4960   25.1260 C.ar  118  TYR118      0.0417
    162  CE2        5.5470    3.8430   24.8390 C.ar  118  TYR118      0.0417
    163  CZ         5.2330    2.6330   25.4190 C.ar  118  TYR118      0.1957
    164  OH         4.1620    2.5740   26.2850 O.3   118  TYR118     -0.2866
    165  N          1.1090   -4.3850   21.7250 N.3   131  LEU131     -0.1245
    166  CA        -0.2650   -4.0800   22.0500 C.3   131  LEU131      0.1561
    167  C         -0.4750   -2.5890   21.8760 C.2   131  LEU131      0.2260
    168  O         -0.1410   -1.7900   22.7620 O.2   131  LEU131     -0.2867
    169  CB        -0.5900   -4.5160   23.4860 C.3   131  LEU131      0.0270
    170  CG        -0.6450   -6.0220   23.7530 C.3   131  LEU131      0.0019
    171  CD1       -0.5440   -6.3030   25.2520 C.3   131  LEU131      0.0001
    172  CD2       -1.9060   -6.6250   23.1810 C.3   131  LEU131      0.0001
    173  N         -2.9380    0.5270   21.2600 N.3   133  THR133     -0.1218
    174  CA        -4.2350    1.1580   21.2000 C.3   133  THR133      0.1862
    175  C         -4.1490    2.2680   20.1650 C.2   133  THR133      0.2287
    176  O         -3.4610    3.2720   20.3680 O.2   133  THR133     -0.2866
    177  CB        -4.6760    1.7060   22.5620 C.3   133  THR133      0.1770
    178  OG1       -4.6960    0.6410   23.5190 O.3   133  THR133     -0.2211
    179  CG2       -6.0880    2.3040   22.4610 C.3   133  THR133      0.0375
@<TRIPOS>BOND
     1   175   176    2
     2   175   174    1
     3   156   155    2
     4   174   173    1
     5   174   177    1
     6   155   154    1
     7   165   166    1
     8   167   166    1
     9   167   168    2
    10    14    13    1
    11   166   169    1
    12    18    19    2
    13    18    17    1
    14   179   177    1
    15   177   178    1
    16   157   154    1
    17   157   158    1
    18   154   153    1
    19    12    11    2
    20   172   170    1
    21    17    16    1
    22    17    20    1
    23    15    13    1
    24    13    10    1
    25   169   170    1
    26    11    16   am
    27    11    10    1
    28   158   160   ar
    29   158   159   ar
    30   170   171    1
    31   160   162   ar
    32   159   161   ar
    33    10     9    1
    34     9     3   am
    35    66    65    1
    36   162   163   ar
    37   161   163   ar
    38     1     2    1
    39     2     3    1
    40     2     5    1
    41     3     4    2
    42   163   164    1
    43    65    64   ar
    44    65    63   ar
    45    64    62   ar
    46    43    44    1
    47    43    42    1
    48    46    44   ar
    49    63    61   ar
    50    44    45   ar
    51     5     6    1
    52     5     7    1
    53     6     8    1
    54    62    60   ar
    55    61    60   ar
    56    42    39    1
    57    29    28    1
    58    60    59    1
    59    32    31    1
    60    32    33    2
    61    24    23    2
    62    35    34    1
    63    35    36    1
    64    39    38    1
    65    39    40    1
    66    31    34    1
    67    31    30    1
    68    28    27    1
    69    59    56    1
    70    23    30   am
    71    23    22    1
    72    36    37    1
    73    40    41    2
    74    40    47   am
    75    27    26    1
    76   147   146    1
    77   147   148    2
    78   145   146    1
    79   146   149    1
    80    21    22    1
    81    56    57    1
    82    56    55    1
    83    22    25    1
    84    26    25    1
    85    47    48    1
    86    57    67   am
    87    57    58    2
    88    67    68    1
    89    92    91    1
    90    73    75   ar
    91    73    72   ar
    92    68    71    1
    93    68    69    1
    94    71    72    1
    95   149   151    1
    96   149   150    1
    97    75    77   ar
    98    72    74   ar
    99    48    49    1
   100    48    51    1
   101    52    54    1
   102    52    51    1
   103    91    93    1
   104    91    88    1
   105    69    70    2
   106    69    78   am
   107   150   152    1
   108    49    50    2
   109    51    53    1
   110    77    76   ar
   111    87    88    1
   112    74    76   ar
   113    88    89    1
   114    78    79    1
   115    99    98    1
   116    98    95    1
   117    89    90    2
   118    80    79    1
   119    80    81    2
   120    79    82    1
   121    82    83    1
   122    95    94    1
   123    95    96    1
   124   143   142    1
   125   132   131    1
   126    96    97    2
   127    96   100   am
   128   140   139    1
   129   140   141    1
   130   105   107    1
   131   105   104    1
   132    83    84    1
   133   100   101    1
   134    85    84    1
   135    85    86    1
   136   139   138    1
   137   142   141    2
   138   142   144    1
   139   131   133    1
   140   131   130    1
   141   101   104    1
   142   101   102    1
   143   138   135    1
   144   104   106    1
   145   130   127    1
   146   114   108    1
   147   114   113    1
   148   102   108   am
   149   102   103    2
   150   135   136    1
   151   135   134    1
   152   108   109    1
   153   136   137    2
   154   113   112    1
   155   127   126    1
   156   127   128    1
   157   129   128    2
   158   109   112    1
   159   109   110    1
   160   118   117    2
   161   119   120    1
   162   119   116    1
   163   111   110    2
   164   117   116    1
   165   120   122   ar
   166   120   121   ar
   167   122   124   ar
   168   116   115    1
   169   121   123   ar
   170   124   125   ar
   171   123   125   ar
