@<TRIPOS>MOLECULE
tmp/3qlwA01.pdb
 157 150 0 0 0
SMALL
GASTEIGER

@<TRIPOS>ATOM
      1  N         18.5640   38.6350    0.9960 N.3     7  ILE7       -0.1231
      2  CA        18.6410   39.1490   -0.3670 C.3     7  ILE7        0.1692
      3  C         19.3750   40.4940   -0.3530 C.2     7  ILE7        0.2592
      4  O         19.0430   41.3810    0.4370 O.2     7  ILE7       -0.2718
      5  CB        17.2300   39.2270   -1.0350 C.3     7  ILE7        0.0266
      6  CG1       17.3230   39.7440   -2.4770 C.3     7  ILE7        0.0019
      7  CG2       16.2460   40.0520   -0.1850 C.3     7  ILE7        0.0020
      8  CD1       16.1280   39.3820   -3.3440 C.3     7  ILE7        0.0001
      9  N         20.3880   40.6170   -1.2130 N.am    8  VAL8       -0.1966
     10  CA        21.2620   41.7980   -1.2670 C.3     8  VAL8        0.1727
     11  C         21.9720   41.9120   -2.6210 C.2     8  VAL8        0.2616
     12  O         22.2130   40.9040   -3.2870 O.2     8  VAL8       -0.2715
     13  CB        22.3150   41.7990   -0.1020 C.3     8  VAL8        0.0290
     14  CG1       23.2490   40.5810   -0.1830 C.3     8  VAL8        0.0023
     15  CG2       23.1110   43.0990   -0.0700 C.3     8  VAL8        0.0023
     16  N         22.2930   43.1430   -3.0160 N.am    9  ALA9       -0.1977
     17  CA        23.1280   43.4060   -4.1850 C.3     9  ALA9        0.1597
     18  C         24.4160   44.1070   -3.7460 C.2     9  ALA9        0.2287
     19  O         24.3760   45.1520   -3.0890 O.2     9  ALA9       -0.2864
     20  CB        22.3730   44.2440   -5.2100 C.3     9  ALA9        0.0319
     21  N         24.7900   56.3050    3.6570 N.3    21  GLY21      -0.1225
     22  CA        23.3700   55.9770    3.7790 C.3    21  GLY21       0.1811
     23  C         22.6370   55.7640    2.4650 C.2    21  GLY21       0.2280
     24  O         21.4350   55.4940    2.4620 O.2    21  GLY21      -0.2866
     25  N         22.4380   54.1220   -1.7270 N.3    23  MET23      -0.1245
     26  CA        22.8070   53.0470   -2.6320 C.3    23  MET23       0.1570
     27  C         23.6620   53.6330   -3.7570 C.2    23  MET23       0.2261
     28  O         23.2900   54.6490   -4.3520 O.2    23  MET23      -0.2867
     29  CB        21.5490   52.4000   -3.1980 C.3    23  MET23       0.0387
     30  CG        21.6730   50.9150   -3.4420 C.3    23  MET23       0.0595
     31  SD        20.0880   50.1010   -3.2100 S.3    23  MET23      -0.1393
     32  CE        19.9200   50.1440   -1.4320 C.3    23  MET23       0.0692
     33  N         24.2250   52.6800   -6.6960 N.3    25  TRP25      -0.1241
     34  CA        23.7810   52.3140   -8.0390 C.3    25  TRP25       0.1605
     35  C         22.2610   52.2990   -8.1600 C.2    25  TRP25       0.2264
     36  O         21.5490   52.1580   -7.1630 O.2    25  TRP25      -0.2867
     37  CB        24.3440   50.9390   -8.4300 C.3    25  TRP25       0.0550
     38  CG        24.2410   49.9110   -7.3350 C.ar   25  TRP25       0.0003
     39  CD1       23.1100   49.2650   -6.9170 C.ar   25  TRP25       0.0946
     40  CD2       25.3100   49.4150   -6.5190 C.ar   25  TRP25       0.0152
     41  NE1       23.4110   48.4000   -5.8940 N.ar   25  TRP25      -0.2442
     42  CE2       24.7520   48.4710   -5.6290 C.ar   25  TRP25       0.0810
     43  CE3       26.6860   49.6740   -6.4570 C.ar   25  TRP25       0.0012
     44  CZ2       25.5230   47.7840   -4.6820 C.ar   25  TRP25       0.0191
     45  CZ3       27.4550   48.9890   -5.5150 C.ar   25  TRP25       0.0001
     46  CH2       26.8670   48.0540   -4.6410 C.ar   25  TRP25       0.0015
     47  N         17.4380   44.7900  -11.5540 N.3    30  GLU30      -0.1231
     48  CA        17.7310   44.2900  -10.2150 C.3    30  GLU30       0.1699
     49  C         16.6020   44.6410   -9.2430 C.2    30  GLU30       0.2592
     50  O         16.1320   43.7820   -8.4920 O.2    30  GLU30      -0.2718
     51  CB        19.0660   44.8630   -9.7270 C.3    30  GLU30       0.0402
     52  CG        19.8380   43.9700   -8.7660 C.3    30  GLU30       0.1161
     53  CD        19.1440   43.7920   -7.4270 C.2    30  GLU30       0.3649
     54  OE1       18.6940   44.7990   -6.8390 O.co2  30  GLU30      -0.2457
     55  OE2       19.0460   42.6360   -6.9700 O.co2  30  GLU30      -0.2457
     56  N         16.1770   45.9050   -9.2730 N.am   31  ILE31      -0.1980
     57  CA        15.0330   46.3920   -8.5000 C.3    31  ILE31       0.1595
     58  C         13.7930   45.5280   -8.7700 C.2    31  ILE31       0.2287
     59  O         13.0690   45.1450   -7.8450 O.2    31  ILE31      -0.2864
     60  CB        14.7520   47.8860   -8.8300 C.3    31  ILE31       0.0276
     61  CG1       15.8250   48.7780   -8.1930 C.3    31  ILE31       0.0022
     62  CG2       13.3530   48.3120   -8.3760 C.3    31  ILE31       0.0022
     63  CD1       16.0140   50.1180   -8.8830 C.3    31  ILE31       0.0001
     64  N         14.2510   41.9780   -7.4150 N.3    34  PHE34      -0.1227
     65  CA        14.0000   42.1050   -5.9820 C.3    34  PHE34       0.1736
     66  C         12.5090   42.0630   -5.6460 C.2    34  PHE34       0.2595
     67  O         12.0950   41.3460   -4.7330 O.2    34  PHE34      -0.2718
     68  CB        14.6380   43.4010   -5.4610 C.3    34  PHE34       0.0547
     69  CG        14.2770   43.7370   -4.0420 C.ar   34  PHE34      -0.0202
     70  CD1       14.9160   43.1070   -2.9780 C.ar   34  PHE34      -0.0042
     71  CD2       13.3050   44.6990   -3.7690 C.ar   34  PHE34      -0.0042
     72  CE1       14.5870   43.4210   -1.6670 C.ar   34  PHE34      -0.0003
     73  CE2       12.9680   45.0170   -2.4610 C.ar   34  PHE34      -0.0003
     74  CZ        13.6150   44.3790   -1.4060 C.ar   34  PHE34      -0.0000
     75  N         11.7190   42.8340   -6.3930 N.am   35  LYS35      -0.1980
     76  CA        10.2770   42.9150   -6.2110 C.3    35  LYS35       0.1596
     77  C          9.5900   41.5680   -6.4510 C.2    35  LYS35       0.2287
     78  O          8.8450   41.0940   -5.5960 O.2    35  LYS35      -0.2864
     79  CB         9.6830   43.9910   -7.1290 C.3    35  LYS35       0.0298
     80  CG         8.1820   44.1920   -6.9700 C.3    35  LYS35       0.0038
     81  CD         7.6810   45.3600   -7.8020 C.3    35  LYS35       0.0206
     82  CE         6.1710   45.5060   -7.6680 C.3    35  LYS35       0.1093
     83  NZ         5.6400   46.6540   -8.4520 N.3    35  LYS35      -0.1314
     84  N         16.9900   51.5330    6.9850 N.3    56  THR56      -0.1218
     85  CA        16.5940   51.1380    5.6310 C.3    56  THR56       0.1862
     86  C         15.1310   51.5100    5.3720 C.2    56  THR56       0.2287
     87  O         14.8000   52.0250    4.3040 O.2    56  THR56      -0.2866
     88  CB        16.8420   49.6300    5.3810 C.3    56  THR56       0.1770
     89  OG1       18.2390   49.3510    5.5190 O.3    56  THR56      -0.2211
     90  CG2       16.3930   49.2170    3.9850 C.3    56  THR56       0.0375
     91  N         14.7570   55.0910    4.6470 N.3    59  SER59      -0.1202
     92  CA        15.3240   55.4350    3.3450 C.3    59  SER59       0.2020
     93  C         14.4450   55.0280    2.1620 C.2    59  SER59       0.2619
     94  O         14.6660   55.4870    1.0420 O.2    59  SER59      -0.2717
     95  CB        16.7240   54.8400    3.1990 C.3    59  SER59       0.2103
     96  OG        17.6350   55.5010    4.0570 O.3    59  SER59      -0.2182
     97  N         13.4610   54.1640    2.4120 N.am   60  ILE60      -0.1966
     98  CA        12.5170   53.7490    1.3760 C.3    60  ILE60       0.1712
     99  C         11.6330   54.9360    0.9810 C.2    60  ILE60       0.2458
    100  O         10.9950   55.5410    1.8450 O.2    60  ILE60      -0.2730
    101  CB        11.6400   52.5450    1.8270 C.3    60  ILE60       0.0289
    102  CG1       12.5100   51.3110    2.0780 C.3    60  ILE60       0.0022
    103  CG2       10.5620   52.2280    0.7830 C.3    60  ILE60       0.0023
    104  CD1       11.7700   50.1470    2.7090 C.3    60  ILE60       0.0001
    105  N         11.6090   55.2800   -0.3240 N.am   61  PRO61      -0.2727
    106  CA        10.7860   56.3820   -0.8260 C.3    61  PRO61       0.1402
    107  C          9.3550   56.3320   -0.2940 C.2    61  PRO61       0.2269
    108  O          8.7630   55.2480   -0.2010 O.2    61  PRO61      -0.2865
    109  CB        10.8070   56.1670   -2.3390 C.3    61  PRO61       0.0296
    110  CG        12.1270   55.5400   -2.5930 C.3    61  PRO61       0.0237
    111  CD        12.4130   54.6670   -1.4000 C.3    61  PRO61       0.0939
    112  N          6.6230   54.0660   -1.7920 N.3    64  PHE64      -0.1241
    113  CA         6.8900   52.6260   -1.7680 C.3    64  PHE64       0.1605
    114  C          6.8830   52.0830   -0.3420 C.2    64  PHE64       0.2264
    115  O          7.4960   51.0520   -0.0570 O.2    64  PHE64      -0.2867
    116  CB         8.2330   52.3050   -2.4380 C.3    64  PHE64       0.0534
    117  CG         8.2950   52.6530   -3.9020 C.ar   64  PHE64      -0.0203
    118  CD1        7.2460   52.3310   -4.7600 C.ar   64  PHE64      -0.0042
    119  CD2        9.4250   53.2740   -4.4280 C.ar   64  PHE64      -0.0042
    120  CE1        7.3120   52.6460   -6.1170 C.ar   64  PHE64      -0.0003
    121  CE2        9.5050   53.5900   -5.7830 C.ar   64  PHE64      -0.0003
    122  CZ         8.4460   53.2770   -6.6290 C.ar   64  PHE64      -0.0000
    123  N          6.3950   48.5050    1.6230 N.3    67  LEU67      -0.1245
    124  CA         6.5400   47.7760    0.3640 C.3    67  LEU67       0.1561
    125  C          5.3130   46.8960    0.1170 C.2    67  LEU67       0.2260
    126  O          5.0240   45.9960    0.9090 O.2    67  LEU67      -0.2867
    127  CB         7.8260   46.9390    0.3520 C.3    67  LEU67       0.0270
    128  CG         9.1770   47.6600    0.4460 C.3    67  LEU67       0.0019
    129  CD1       10.2820   46.6460    0.6880 C.3    67  LEU67       0.0001
    130  CD2        9.4790   48.4960   -0.7920 C.3    67  LEU67       0.0001
    131  N         16.2270   42.2460    4.0240 N.3   110  ILE110     -0.1245
    132  CA        16.4830   43.1650    2.9140 C.3   110  ILE110      0.1561
    133  C         17.4400   44.3160    3.2490 C.2   110  ILE110      0.2260
    134  O         17.6740   45.1930    2.4140 O.2   110  ILE110     -0.2867
    135  CB        15.1570   43.6870    2.2750 C.3   110  ILE110      0.0252
    136  CG1       14.4200   44.6490    3.2170 C.3   110  ILE110      0.0019
    137  CG2       14.2600   42.5150    1.8600 C.3   110  ILE110      0.0019
    138  CD1       13.3830   45.5240    2.5230 C.3   110  ILE110      0.0001
    139  N         22.2930   42.8660    8.0800 N.3   116  TYR116     -0.1241
    140  CA        22.9570   41.8120    7.3050 C.3   116  TYR116      0.1605
    141  C         24.0910   41.1620    8.0910 C.2   116  TYR116      0.2264
    142  O         24.1070   39.9460    8.2840 O.2   116  TYR116     -0.2867
    143  CB        23.5420   42.3710    6.0020 C.3   116  TYR116      0.0534
    144  CG        22.5680   42.6750    4.8820 C.ar  116  TYR116     -0.0201
    145  CD1       21.5320   41.7930    4.5530 C.ar  116  TYR116     -0.0009
    146  CD2       22.7220   43.8270    4.1110 C.ar  116  TYR116     -0.0009
    147  CE1       20.6550   42.0770    3.5020 C.ar  116  TYR116      0.0417
    148  CE2       21.8590   44.1180    3.0700 C.ar  116  TYR116      0.0417
    149  CZ        20.8310   43.2430    2.7660 C.ar  116  TYR116      0.1957
    150  OH        19.9870   43.5470    1.7270 O.3   116  TYR116     -0.2866
    151  N         23.1140   39.2840   -5.3600 N.3   131  THR131     -0.1218
    152  CA        23.3450   39.8140   -6.6890 C.3   131  THR131      0.1862
    153  C         24.7830   40.3160   -6.7350 C.2   131  THR131      0.2287
    154  O         25.1260   41.3190   -6.1050 O.2   131  THR131     -0.2866
    155  CB        22.3650   40.9530   -7.0460 C.3   131  THR131      0.1770
    156  OG1       21.0150   40.4980   -6.8930 O.3   131  THR131     -0.2211
    157  CG2       22.5790   41.4080   -8.4810 C.3   131  THR131      0.0375
@<TRIPOS>BOND
     1    47    48    1
     2    48    51    1
     3    48    49    1
     4    51    52    1
     5    56    49   am
     6    56    57    1
     7    49    50    2
     8    63    61    1
     9    60    57    1
    10    60    62    1
    11    60    61    1
    12    58    57    1
    13    58    59    2
    14    52    53    1
    15   157   155    1
    16    83    82    1
    17    37    34    1
    18    37    38    1
    19    35    34    1
    20    35    36    2
    21    34    33    1
    22    81    82    1
    23    81    80    1
    24    53    55   ar
    25    53    54   ar
    26    64    65    1
    27    38    39   ar
    28    38    40   ar
    29    79    80    1
    30    79    76    1
    31   155   156    1
    32   155   152    1
    33    39    41   ar
    34   153   152    1
    35   153   154    2
    36   152   151    1
    37   122   120   ar
    38   122   121   ar
    39    40    43   ar
    40    40    42   ar
    41    43    45   ar
    42    77    76    1
    43    77    78    2
    44    75    76    1
    45    75    66   am
    46   120   118   ar
    47    65    66    1
    48    65    68    1
    49    41    42   ar
    50   121   119   ar
    51    66    67    2
    52    42    44   ar
    53    45    46   ar
    54    68    69    1
    55    20    17    1
    56   118   117   ar
    57    44    46   ar
    58   119   117   ar
    59    28    27    2
    60    17    18    1
    61    17    16    1
    62    69    71   ar
    63    69    70   ar
    64   117   116    1
    65    71    73   ar
    66    27    26    1
    67    18    19    2
    68    30    31    1
    69    30    29    1
    70     8     6    1
    71    12    11    2
    72    31    32    1
    73    29    26    1
    74    16    11   am
    75    70    72   ar
    76    26    25    1
    77    11    10    1
    78   110   109    1
    79   110   111    1
    80     6     5    1
    81    73    74   ar
    82   116   113    1
    83   109   106    1
    84   112   113    1
    85   113   114    1
    86    72    74   ar
    87   111   105    1
    88    10     9    1
    89    10    13    1
    90     9     3   am
    91     5     2    1
    92     5     7    1
    93   106   105    1
    94   106   107    1
    95   130   128    1
    96     2     3    1
    97     2     1    1
    98     3     4    2
    99   114   115    2
   100   105    99   am
   101   107   108    2
   102    14    13    1
   103    13    15    1
   104   125   124    1
   105   125   126    2
   106   127   124    1
   107   127   128    1
   108   124   123    1
   109   128   129    1
   110   103   101    1
   111    99    98    1
   112    99   100    2
   113    94    93    2
   114    98   101    1
   115    98    97    1
   116   150   149    1
   117   101   102    1
   118   137   135    1
   119   102   104    1
   120    93    97   am
   121    93    92    1
   122   135   132    1
   123   135   136    1
   124   134   133    2
   125    24    23    2
   126    23    22    1
   127   138   136    1
   128   149   148   ar
   129   149   147   ar
   130   132   133    1
   131   132   131    1
   132   148   146   ar
   133    95    92    1
   134    95    96    1
   135    92    91    1
   136   147   145   ar
   137    21    22    1
   138    90    88    1
   139   146   144   ar
   140    87    86    2
   141   145   144   ar
   142   144   143    1
   143    86    85    1
   144    88    89    1
   145    88    85    1
   146    85    84    1
   147   143   140    1
   148   140   139    1
   149   140   141    1
   150   141   142    2
