@<TRIPOS>MOLECULE
tmp/3qlxB01.pdb
 186 180 0 0 0
SMALL
GASTEIGER

@<TRIPOS>ATOM
      1  N         24.8690   11.4020  -28.4900 N.3     7  ILE7       -0.1231
      2  CA        24.9790   11.9170  -29.8370 C.3     7  ILE7        0.1692
      3  C         24.6800   10.8150  -30.8290 C.2     7  ILE7        0.2592
      4  O         25.2380    9.7080  -30.7360 O.2     7  ILE7       -0.2718
      5  CB        26.3770   12.5710  -30.1260 C.3     7  ILE7        0.0266
      6  CG1       26.4020   13.1640  -31.5500 C.3     7  ILE7        0.0019
      7  CG2       27.5010   11.5720  -29.9300 C.3     7  ILE7        0.0020
      8  CD1       27.4920   14.2060  -31.7930 C.3     7  ILE7        0.0001
      9  N         23.7420   11.0870  -31.7390 N.am    8  VAL8       -0.1966
     10  CA        23.1780   10.0270  -32.5800 C.3     8  VAL8        0.1727
     11  C         22.6350   10.6320  -33.8700 C.2     8  VAL8        0.2616
     12  O         22.3560   11.8380  -33.9200 O.2     8  VAL8       -0.2715
     13  CB        22.0690    9.2120  -31.8030 C.3     8  VAL8        0.0290
     14  CG1       20.9050   10.0820  -31.4350 C.3     8  VAL8        0.0023
     15  CG2       21.6190    7.9790  -32.5820 C.3     8  VAL8        0.0023
     16  N         22.6480    9.8320  -34.9460 N.am    9  ALA9       -0.1977
     17  CA        21.9990   10.1940  -36.2060 C.3     9  ALA9        0.1597
     18  C         20.8130    9.2740  -36.4180 C.2     9  ALA9        0.2287
     19  O         20.9740    8.0410  -36.4470 O.2     9  ALA9       -0.2864
     20  CB        22.9840   10.0610  -37.3690 C.3     9  ALA9        0.0319
     21  N         25.3500   -2.1440  -38.8710 N.3    22  ASN22      -0.1225
     22  CA        25.9030   -0.9540  -39.5270 C.3    22  ASN22       0.1785
     23  C         24.9220    0.2260  -39.6010 C.2    22  ASN22       0.2597
     24  O         23.7170    0.0650  -39.4370 O.2    22  ASN22      -0.2718
     25  CB        26.3700   -1.3040  -40.9590 C.3    22  ASN22       0.1169
     26  CG        27.6190   -2.1640  -40.9740 C.2    22  ASN22       0.2627
     27  OD1       28.6210   -1.8470  -40.3250 O.2    22  ASN22      -0.2716
     28  ND2       27.5510   -3.2770  -41.6810 N.am   22  ASN22      -0.0877
     29  N         25.4530    1.4040  -39.9060 N.am   23  LEU23      -0.1980
     30  CA        24.6350    2.5530  -40.2540 C.3    23  LEU23       0.1596
     31  C         23.8940    2.2630  -41.5600 C.2    23  LEU23       0.2287
     32  O         24.4380    1.5780  -42.4290 O.2    23  LEU23      -0.2864
     33  CB        25.5220    3.7790  -40.4140 C.3    23  LEU23       0.0297
     34  CG        26.5030    4.1100  -39.2750 C.3    23  LEU23       0.0022
     35  CD1       27.3900    5.3000  -39.6530 C.3    23  LEU23       0.0001
     36  CD2       25.7330    4.4230  -37.9780 C.3    23  LEU23       0.0001
     37  N         23.0280    4.4660  -43.7630 N.3    25  TRP25      -0.1227
     38  CA        23.4380    5.4370  -44.7700 C.3    25  TRP25       0.1737
     39  C         24.9380    5.6820  -44.6130 C.2    25  TRP25       0.2595
     40  O         25.5440    5.2960  -43.5990 O.2    25  TRP25      -0.2718
     41  CB        22.6810    6.7520  -44.5610 C.3    25  TRP25       0.0564
     42  CG        22.6440    7.1290  -43.1210 C.ar   25  TRP25       0.0003
     43  CD1       23.6480    7.7190  -42.4020 C.ar   25  TRP25       0.0946
     44  CD2       21.5950    6.8520  -42.1900 C.ar   25  TRP25       0.0152
     45  NE1       23.2710    7.8670  -41.0820 N.ar   25  TRP25      -0.2442
     46  CE2       22.0230    7.3230  -40.9190 C.ar   25  TRP25       0.0810
     47  CE3       20.3180    6.2830  -42.3050 C.ar   25  TRP25       0.0012
     48  CZ2       21.2310    7.2090  -39.7700 C.ar   25  TRP25       0.0191
     49  CZ3       19.5280    6.1920  -41.1690 C.ar   25  TRP25       0.0001
     50  CH2       19.9860    6.6650  -39.9170 C.ar   25  TRP25       0.0015
     51  N         25.5290    6.3320  -45.6130 N.am   26  ARG26      -0.1980
     52  CA        26.9060    6.7860  -45.5280 C.3    26  ARG26       0.1597
     53  C         26.9650    8.2640  -45.9100 C.2    26  ARG26       0.2287
     54  O         26.8840    8.6140  -47.0810 O.2    26  ARG26      -0.2864
     55  CB        27.8050    5.9420  -46.4410 C.3    26  ARG26       0.0334
     56  CG        29.3040    6.3240  -46.3990 C.3    26  ARG26       0.0492
     57  CD        30.1910    5.2170  -47.0720 C.3    26  ARG26       0.2205
     58  NE        31.4590    5.7430  -47.5850 N.pl3  26  ARG26      -0.0865
     59  CZ        32.5800    5.8310  -46.8690 C.cat  26  ARG26       0.5346
     60  NH1       33.6870    6.3260  -47.4150 N.pl3  26  ARG26       0.1354
     61  NH2       32.5970    5.4220  -45.6070 N.pl3  26  ARG26       0.1354
     62  N         27.7700   14.2460  -42.1810 N.3    30  GLU30      -0.1231
     63  CA        27.2510   13.9360  -40.8920 C.3    30  GLU30       0.1699
     64  C         28.3580   13.3140  -40.0430 C.2    30  GLU30       0.2592
     65  O         28.4840   13.6270  -38.8650 O.2    30  GLU30      -0.2718
     66  CB        26.0780   12.9790  -41.0130 C.3    30  GLU30       0.0402
     67  CG        25.0780   13.1730  -39.9340 C.3    30  GLU30       0.1161
     68  CD        25.5510   12.6350  -38.6300 C.2    30  GLU30       0.3649
     69  OE1       26.1510   11.5370  -38.6350 O.co2  30  GLU30      -0.2457
     70  OE2       25.2970   13.2850  -37.5920 O.co2  30  GLU30      -0.2457
     71  N         29.0900   12.3740  -40.6430 N.am   31  MET31      -0.1979
     72  CA        30.3090   11.7950  -40.0650 C.3    31  MET31       0.1605
     73  C         31.3110   12.9060  -39.6290 C.2    31  MET31       0.2287
     74  O         31.8580   12.8630  -38.5310 O.2    31  MET31      -0.2864
     75  CB        30.9350   10.8520  -41.1060 C.3    31  MET31       0.0413
     76  CG        31.9480    9.8290  -40.6090 C.3    31  MET31       0.0598
     77  SD        31.5730    8.9360  -39.0790 S.3    31  MET31      -0.1393
     78  CE        30.7870    7.4570  -39.7300 C.3    31  MET31       0.0692
     79  N         30.5420   16.2280  -38.8920 N.3    33  TYR33      -0.1227
     80  CA        29.9070   16.7870  -37.6930 C.3    33  TYR33       0.1736
     81  C         30.2250   15.9650  -36.4500 C.2    33  TYR33       0.2595
     82  O         30.7080   16.5020  -35.4510 O.2    33  TYR33      -0.2718
     83  CB        28.4060   16.8520  -37.8870 C.3    33  TYR33       0.0548
     84  CG        27.6410   17.4030  -36.7010 C.ar   33  TYR33      -0.0200
     85  CD1       26.9290   16.5590  -35.8580 C.ar   33  TYR33      -0.0009
     86  CD2       27.4940   18.7780  -36.5250 C.ar   33  TYR33      -0.0009
     87  CE1       26.1470   17.0710  -34.8170 C.ar   33  TYR33       0.0417
     88  CE2       26.7330   19.2940  -35.4840 C.ar   33  TYR33       0.0417
     89  CZ        26.0770   18.4440  -34.6280 C.ar   33  TYR33       0.1957
     90  OH        25.2710   18.9660  -33.6430 O.3    33  TYR33      -0.2866
     91  N         29.9300   14.6670  -36.5040 N.am   34  PHE34      -0.1976
     92  CA        30.1520   13.7810  -35.3360 C.3    34  PHE34       0.1639
     93  C         31.6380   13.8010  -34.9030 C.2    34  PHE34       0.2290
     94  O         31.9620   13.9240  -33.7030 O.2    34  PHE34      -0.2864
     95  CB        29.7020   12.3470  -35.6590 C.3    34  PHE34       0.0560
     96  CG        30.2680   11.3070  -34.7290 C.ar   34  PHE34      -0.0200
     97  CD1       31.4880   10.6880  -35.0090 C.ar   34  PHE34      -0.0042
     98  CD2       29.5920   10.9570  -33.5540 C.ar   34  PHE34      -0.0042
     99  CE1       32.0320    9.7480  -34.1190 C.ar   34  PHE34      -0.0003
    100  CE2       30.1100   10.0170  -32.6900 C.ar   34  PHE34      -0.0003
    101  CZ        31.3430    9.4130  -32.9660 C.ar   34  PHE34      -0.0000
    102  N         29.0000   -1.7830  -31.2150 N.3    56  THR56      -0.1218
    103  CA        29.3630   -0.6010  -31.9790 C.3    56  THR56       0.1862
    104  C         30.8760   -0.5070  -32.1950 C.2    56  THR56       0.2287
    105  O         31.3270   -0.1880  -33.3020 O.2    56  THR56      -0.2866
    106  CB        28.8000    0.6950  -31.3730 C.3    56  THR56       0.1770
    107  OG1       27.3730    0.6380  -31.4090 O.3    56  THR56      -0.2211
    108  CG2       29.2630    1.9070  -32.1860 C.3    56  THR56       0.0375
    109  N         31.8710   -2.5470  -35.0350 N.3    59  SER59      -0.1202
    110  CA        31.4190   -2.0320  -36.3380 C.3    59  SER59       0.2020
    111  C         32.3860   -1.0310  -36.9650 C.2    59  SER59       0.2619
    112  O         32.3450   -0.8150  -38.1770 O.2    59  SER59      -0.2717
    113  CB        30.0370   -1.3920  -36.2260 C.3    59  SER59       0.2103
    114  OG        30.1360   -0.0370  -35.8140 O.3    59  SER59      -0.2182
    115  N         33.2150   -0.3810  -36.1500 N.am   60  ILE60      -0.1966
    116  CA        34.1590    0.5880  -36.6970 C.3    60  ILE60       0.1712
    117  C         35.3090   -0.1140  -37.4280 C.2    60  ILE60       0.2458
    118  O         35.8930   -1.0510  -36.8990 O.2    60  ILE60      -0.2730
    119  CB        34.7630    1.5050  -35.6170 C.3    60  ILE60       0.0289
    120  CG1       33.6620    2.1140  -34.7240 C.3    60  ILE60       0.0022
    121  CG2       35.6000    2.5720  -36.2710 C.3    60  ILE60       0.0023
    122  CD1       34.1320    2.4190  -33.2970 C.3    60  ILE60       0.0001
    123  N         35.6300    0.3400  -38.6510 N.am   61  PRO61      -0.2727
    124  CA        36.7740   -0.2410  -39.3790 C.3    61  PRO61       0.1402
    125  C         38.0270   -0.2370  -38.5280 C.2    61  PRO61       0.2269
    126  O         38.2880    0.7390  -37.8140 O.2    61  PRO61      -0.2865
    127  CB        36.9490    0.6950  -40.5760 C.3    61  PRO61       0.0296
    128  CG        35.5750    1.2440  -40.8130 C.3    61  PRO61       0.0237
    129  CD        34.9330    1.3690  -39.4430 C.3    61  PRO61       0.0939
    130  N         40.2450    2.7940  -38.1660 N.3    64  PHE64      -0.1241
    131  CA        39.7250    4.0580  -37.6630 C.3    64  PHE64       0.1605
    132  C         39.4460    4.0150  -36.1550 C.2    64  PHE64       0.2264
    133  O         38.9330    4.9660  -35.5860 O.2    64  PHE64      -0.2867
    134  CB        38.4750    4.4610  -38.4450 C.3    64  PHE64       0.0534
    135  CG        38.7340    4.7470  -39.9090 C.ar   64  PHE64      -0.0203
    136  CD1       39.4240    5.9040  -40.2990 C.ar   64  PHE64      -0.0042
    137  CD2       38.2560    3.8850  -40.9020 C.ar   64  PHE64      -0.0042
    138  CE1       39.6540    6.1830  -41.6710 C.ar   64  PHE64      -0.0003
    139  CE2       38.4780    4.1540  -42.2650 C.ar   64  PHE64      -0.0003
    140  CZ        39.1820    5.2960  -42.6520 C.ar   64  PHE64      -0.0000
    141  N         38.8990    5.8390  -31.9070 N.3    67  LEU67      -0.1245
    142  CA        38.7080    7.1700  -32.4580 C.3    67  LEU67       0.1561
    143  C         39.7790    8.0980  -31.9280 C.2    67  LEU67       0.2260
    144  O         39.8430    8.3120  -30.7280 O.2    67  LEU67      -0.2867
    145  CB        37.3160    7.7170  -32.0960 C.3    67  LEU67       0.0270
    146  CG        36.1290    6.8210  -32.4930 C.3    67  LEU67       0.0019
    147  CD1       34.7890    7.5800  -32.3120 C.3    67  LEU67       0.0001
    148  CD2       36.3020    6.3420  -33.9590 C.3    67  LEU67       0.0001
    149  N         40.1830   11.3210  -28.7130 N.3    70  ARG70      -0.1245
    150  CA        39.1650   11.1810  -27.6700 C.3    70  ARG70       0.1563
    151  C         39.5230    9.9550  -26.8690 C.2    70  ARG70       0.2260
    152  O         39.9320    8.9570  -27.4360 O.2    70  ARG70      -0.2867
    153  CB        37.7690   10.9830  -28.3130 C.3    70  ARG70       0.0307
    154  CG        37.2070   12.2170  -29.0540 C.3    70  ARG70       0.0489
    155  CD        36.3950   11.8350  -30.3500 C.3    70  ARG70       0.2205
    156  NE        37.2780   11.5090  -31.4870 N.pl3  70  ARG70      -0.0865
    157  CZ        36.8700   11.2080  -32.7220 C.cat  70  ARG70       0.5346
    158  NH1       35.5830   11.2260  -33.0470 N.pl3  70  ARG70       0.1354
    159  NH2       37.7580   10.8830  -33.6400 N.pl3  70  ARG70       0.1354
    160  N         28.1200    7.5110  -27.7050 N.3   119  ILE119     -0.1245
    161  CA        28.0840    7.4660  -29.1670 C.3   119  ILE119      0.1561
    162  C         27.4280    6.1840  -29.7070 C.2   119  ILE119      0.2260
    163  O         27.4250    5.9310  -30.9020 O.2   119  ILE119     -0.2867
    164  CB        29.4790    7.6770  -29.7810 C.3   119  ILE119      0.0252
    165  CG1       30.4030    6.4830  -29.4700 C.3   119  ILE119      0.0019
    166  CG2       30.1210    8.9760  -29.2370 C.3   119  ILE119      0.0019
    167  CD1       31.6830    6.4810  -30.2970 C.3   119  ILE119      0.0001
    168  N         22.0380    3.2840  -26.0220 N.3   125  TYR125     -0.1241
    169  CA        21.1650    4.4770  -26.0320 C.3   125  TYR125      0.1605
    170  C         19.9300    4.3140  -25.1620 C.2   125  TYR125      0.2264
    171  O         19.4700    5.2840  -24.5500 O.2   125  TYR125     -0.2867
    172  CB        20.7150    4.8290  -27.4450 C.3   125  TYR125      0.0534
    173  CG        21.8010    5.3890  -28.3560 C.ar  125  TYR125     -0.0201
    174  CD1       22.7200    6.3460  -27.8980 C.ar  125  TYR125     -0.0009
    175  CD2       21.8370    5.0350  -29.7060 C.ar  125  TYR125     -0.0009
    176  CE1       23.6580    6.9170  -28.7710 C.ar  125  TYR125      0.0417
    177  CE2       22.7640    5.5760  -30.5630 C.ar  125  TYR125      0.0417
    178  CZ        23.6840    6.4990  -30.1040 C.ar  125  TYR125      0.1957
    179  OH        24.5930    7.0180  -30.9960 O.3   125  TYR125     -0.2866
    180  N         21.0130   14.1240  -34.9460 N.3   138  THR138     -0.1218
    181  CA        20.8620   14.4430  -36.3380 C.3   138  THR138      0.1862
    182  C         19.5830   13.7800  -36.8980 C.2   138  THR138      0.2287
    183  O         19.4590   12.5570  -36.9420 O.2   138  THR138     -0.2866
    184  CB        22.1000   14.0380  -37.1440 C.3   138  THR138      0.1770
    185  OG1       23.2830   14.4950  -36.4610 O.3   138  THR138     -0.2211
    186  CG2       22.0510   14.6590  -38.5450 C.3   138  THR138      0.0375
@<TRIPOS>BOND
     1    58    57    1
     2    58    59    2
     3    60    59    1
     4    54    53    2
     5    57    56    1
     6    59    61    1
     7    55    56    1
     8    55    52    1
     9    53    52    1
    10    51    52    1
    11    51    39   am
    12    38    39    1
    13    38    41    1
    14    38    37    1
    15    39    40    2
    16    41    42    1
    17    42    43   ar
    18    42    44   ar
    19   140   139   ar
    20   140   138   ar
    21    32    31    2
    22    43    45   ar
    23    47    44   ar
    24    47    49   ar
    25   139   137   ar
    26    44    46   ar
    27    62    63    1
    28    28    26   am
    29   138   136   ar
    30    31    30    1
    31    49    50   ar
    32    75    76    1
    33    75    72    1
    34    45    46   ar
    35    66    63    1
    36    66    67    1
    37    26    25    1
    38    26    27    2
    39    25    22    1
    40    46    48   ar
    41   137   135   ar
    42    63    64    1
    43   128   127    1
    44   128   129    1
    45    71    72    1
    46    71    64   am
    47    76    77    1
    48   127   124    1
    49    33    30    1
    50    33    34    1
    51   136   135   ar
    52    30    29    1
    53    72    73    1
    54    64    65    2
    55    67    68    1
    56    50    48   ar
    57   135   134    1
    58    29    23   am
    59    78    77    1
    60    35    34    1
    61    73    74    2
    62    23    22    1
    63    23    24    2
    64    22    21    1
    65   129   123    1
    66   124   123    1
    67   124   125    1
    68    34    36    1
    69    79    80    1
    70   123   117   am
    71    69    68   ar
    72    68    70   ar
    73   186   184    1
    74   125   126    2
    75   134   131    1
    76   112   111    2
    77   130   131    1
    78    83    80    1
    79    83    84    1
    80    80    81    1
    81   131   132    1
    82   117   118    2
    83   117   116    1
    84    20    17    1
    85   184   185    1
    86   184   181    1
    87   111   110    1
    88   111   115   am
    89   183   182    2
    90   182   181    1
    91    84    86   ar
    92    84    85   ar
    93   116   115    1
    94   116   119    1
    95    86    88   ar
    96    91    81   am
    97    91    92    1
    98    81    82    2
    99    19    18    2
   100    18    17    1
   101   110   113    1
   102   110   109    1
   103   181   180    1
   104   121   119    1
   105   113   114    1
   106    17    16    1
   107   132   133    2
   108    85    87   ar
   109    95    92    1
   110    95    96    1
   111   119   120    1
   112    88    89   ar
   113    92    93    1
   114    97    96   ar
   115    97    99   ar
   116    16    11   am
   117    93    94    2
   118    87    89   ar
   119    96    98   ar
   120   120   122    1
   121    89    90    1
   122    99   101   ar
   123   148   146    1
   124    12    11    2
   125    11    10    1
   126   159   157    1
   127    98   100   ar
   128   105   104    2
   129   158   157    1
   130   101   100   ar
   131   157   156    2
   132    15    13    1
   133    10    13    1
   134    10     9    1
   135   146   147    1
   136   146   145    1
   137   142   145    1
   138   142   143    1
   139   142   141    1
   140   104   103    1
   141   108   106    1
   142   103   106    1
   143   103   102    1
   144   143   144    2
   145    13    14    1
   146     8     6    1
   147     9     3   am
   148     6     5    1
   149   156   155    1
   150   107   106    1
   151   179   178    1
   152   163   162    2
   153     3     4    2
   154     3     2    1
   155   177   178   ar
   156   177   175   ar
   157   155   154    1
   158   167   165    1
   159     5     7    1
   160     5     2    1
   161   178   176   ar
   162     2     1    1
   163   164   165    1
   164   164   166    1
   165   164   161    1
   166   162   161    1
   167   175   173   ar
   168   161   160    1
   169   154   153    1
   170   176   174   ar
   171   149   150    1
   172   173   174   ar
   173   173   172    1
   174   153   150    1
   175   150   151    1
   176   172   169    1
   177   152   151    2
   178   169   168    1
   179   169   170    1
   180   170   171    2
