@<TRIPOS>MOLECULE
tmp/3qm1A00.pdb
 153 147 0 0 0
SMALL
GASTEIGER

@<TRIPOS>ATOM
      1  N         26.8230   11.4610  -13.8420 N.3    39  GLY39      -0.1210
      2  CA        26.0340   10.2870  -14.1960 C.3    39  GLY39       0.1956
      3  C         26.8320    9.0080  -14.4940 C.2    39  GLY39       0.2612
      4  O         28.0650    8.9150  -14.3320 O.2    39  GLY39      -0.2717
      5  N         26.0810    8.0000  -14.9200 N.am   40  PHE40      -0.1962
      6  CA        26.5770    6.6610  -15.2720 C.3    40  PHE40       0.1771
      7  C         27.5860    6.7390  -16.4390 C.2    40  PHE40       0.2620
      8  O         27.2550    7.2890  -17.4970 O.2    40  PHE40      -0.2715
      9  CB        25.3520    5.8480  -15.6850 C.3    40  PHE40       0.0574
     10  CG        25.6150    4.4160  -16.0940 C.ar   40  PHE40      -0.0200
     11  CD1       25.9070    3.4310  -15.1630 C.ar   40  PHE40      -0.0042
     12  CD2       25.4590    4.0540  -17.4110 C.ar   40  PHE40      -0.0042
     13  CE1       26.0910    2.0890  -15.5530 C.ar   40  PHE40      -0.0003
     14  CE2       25.6540    2.7050  -17.8320 C.ar   40  PHE40      -0.0003
     15  CZ        25.9600    1.7230  -16.8880 C.ar   40  PHE40      -0.0000
     16  N         28.7910    6.2060  -16.2180 N.am   41  THR41      -0.1937
     17  CA        29.9590    6.2600  -17.1460 C.3    41  THR41       0.2028
     18  C         30.5770    7.6450  -17.3820 C.2    41  THR41       0.2642
     19  O         31.4990    7.7780  -18.1810 O.2    41  THR41      -0.2714
     20  CB        29.7040    5.5820  -18.5290 C.3    41  THR41       0.1808
     21  OG1       28.8960    6.4090  -19.3860 O.3    41  THR41      -0.2208
     22  CG2       29.0820    4.2210  -18.3490 C.3    41  THR41       0.0379
     23  N         30.0980    8.6560  -16.6720 N.am   42  ALA42      -0.1977
     24  CA        30.5510   10.0220  -16.8790 C.3    42  ALA42       0.1597
     25  C         31.6700   10.2980  -15.8800 C.2    42  ALA42       0.2287
     26  O         32.3390    9.3690  -15.3950 O.2    42  ALA42      -0.2864
     27  CB        29.3790   11.0020  -16.6800 C.3    42  ALA42       0.0319
     28  N         22.9920   14.8970  -11.8970 N.3   111  HIS111     -0.1226
     29  CA        22.5880   14.6350  -13.2680 C.3   111  HIS111      0.1752
     30  C         22.4100   13.1170  -13.4660 C.2   111  HIS111      0.2596
     31  O         23.3360   12.3320  -13.2190 O.2   111  HIS111     -0.2718
     32  CB        23.6470   15.0870  -14.2550 C.3   111  HIS111      0.0759
     33  CG        23.3020   14.7410  -15.6720 C.ar  111  HIS111      0.0818
     34  ND1       24.1750   14.0680  -16.4940 N.ar  111  HIS111     -0.2268
     35  CD2       22.1860   14.9700  -16.3990 C.ar  111  HIS111      0.1154
     36  CE1       23.6070   13.9010  -17.6770 C.ar  111  HIS111      0.1986
     37  NE2       22.4090   14.4500  -17.6550 N.ar  111  HIS111     -0.2212
     38  N         21.2220   12.7310  -13.9140 N.am  112  ALA112     -0.1966
     39  CA        20.9810   11.3580  -14.4050 C.3   112  ALA112      0.1728
     40  C         21.1630   10.3250  -13.2950 C.2   112  ALA112      0.2616
     41  O         20.4480   10.3890  -12.3180 O.2   112  ALA112     -0.2715
     42  CB        21.8310   11.0550  -15.6930 C.3   112  ALA112      0.0334
     43  N         22.0790    9.3480  -13.4000 N.am  113  GLN113     -0.1977
     44  CA        22.2360    8.4620  -12.2410 C.3   113  GLN113      0.1601
     45  C         22.6650    9.2580  -10.9940 C.2   113  GLN113      0.2287
     46  O         22.3490    8.8810   -9.8760 O.2   113  GLN113     -0.2864
     47  CB        23.2290    7.3180  -12.5250 C.3   113  GLN113      0.0394
     48  CG        23.4140    6.3220  -11.3490 C.3   113  GLN113      0.0908
     49  CD        24.2840    5.1740  -11.7490 C.2   113  GLN113      0.2608
     50  OE1       23.9340    4.4170  -12.6580 O.2   113  GLN113     -0.2717
     51  NE2       25.4060    4.9910  -11.0430 N.am  113  GLN113     -0.0878
     52  N         17.8400    9.6250  -13.2800 N.3   138  ALA138     -0.1245
     53  CA        17.6490    8.3520  -13.9650 C.3   138  ALA138      0.1562
     54  C         16.9180    7.3300  -13.1250 C.2   138  ALA138      0.2260
     55  O         17.3590    6.1970  -13.0390 O.2   138  ALA138     -0.2867
     56  CB        19.0080    7.7780  -14.4170 C.3   138  ALA138      0.0290
     57  N         14.4840    5.7180  -13.8610 N.3   140  THR140     -0.1203
     58  CA        14.0720    4.6360  -14.7400 C.3   140  THR140      0.1994
     59  C         15.1000    3.4940  -14.7640 C.2   140  THR140      0.2617
     60  O         14.7860    2.4290  -15.2660 O.2   140  THR140     -0.2717
     61  CB        13.8370    5.1160  -16.1780 C.3   140  THR140      0.1784
     62  OG1       14.9830    5.8700  -16.5680 O.3   140  THR140     -0.2211
     63  CG2       12.6300    6.0780  -16.2590 C.3   140  THR140      0.0376
     64  N         16.3220    3.6950  -14.2480 N.am  141  LEU141     -0.1979
     65  CA        17.2690    2.5520  -14.1820 C.3   141  LEU141      0.1596
     66  C         16.6610    1.3530  -13.4420 C.2   141  LEU141      0.2287
     67  O         16.9780    0.1920  -13.7640 O.2   141  LEU141     -0.2864
     68  CB        18.6450    2.9420  -13.5940 C.3   141  LEU141      0.0297
     69  CG        18.7180    3.4310  -12.1460 C.3   141  LEU141      0.0022
     70  CD1       18.8870    2.2140  -11.2070 C.3   141  LEU141      0.0001
     71  CD2       19.9040    4.3720  -11.9760 C.3   141  LEU141      0.0001
     72  N         14.0690   -0.2500  -15.8700 N.3   144  ASP144     -0.1239
     73  CA        14.8740   -0.8850  -16.9160 C.3   144  ASP144      0.1674
     74  C         15.4300   -2.2140  -16.4240 C.2   144  ASP144      0.2266
     75  O         15.4190   -3.2150  -17.1640 O.2   144  ASP144     -0.2867
     76  CB        16.0370   -0.0120  -17.3960 C.3   144  ASP144      0.1410
     77  CG        15.5850    1.2610  -18.1510 C.2   144  ASP144      0.3668
     78  OD1       14.3950    1.4470  -18.4600 O.co2 144  ASP144     -0.2456
     79  OD2       16.4640    2.0830  -18.4710 O.co2 144  ASP144     -0.2456
     80  N         18.6470   -2.5800  -20.3700 N.3   150  THR150     -0.1203
     81  CA        19.4140   -1.4650  -19.8200 C.3   150  THR150      0.1994
     82  C         20.1580   -0.8110  -20.9920 C.2   150  THR150      0.2617
     83  O         21.1380   -1.3690  -21.5040 O.2   150  THR150     -0.2717
     84  CB        20.4040   -1.9910  -18.7720 C.3   150  THR150      0.1784
     85  OG1       19.6600   -2.4570  -17.6410 O.3   150  THR150     -0.2211
     86  CG2       21.3720   -0.8920  -18.3040 C.3   150  THR150      0.0376
     87  N         19.6430    0.3270  -21.4500 N.am  151  GLN151     -0.1979
     88  CA        20.2410    1.0810  -22.5740 C.3   151  GLN151      0.1601
     89  C         20.5090    0.1920  -23.8000 C.2   151  GLN151      0.2287
     90  O         21.5970    0.2490  -24.4090 O.2   151  GLN151     -0.2864
     91  CB        21.5010    1.8300  -22.1190 C.3   151  GLN151      0.0394
     92  CG        21.1910    2.8500  -20.9960 C.3   151  GLN151      0.0908
     93  CD        22.2660    3.9090  -20.7850 C.2   151  GLN151      0.2608
     94  OE1       22.3240    4.5510  -19.7240 O.2   151  GLN151     -0.2717
     95  NE2       23.1260    4.0910  -21.7790 N.am  151  GLN151     -0.0878
     96  N         29.5270   -4.1670  -16.8430 N.3   171  LEU171     -0.1245
     97  CA        28.5880   -3.7540  -15.7950 C.3   171  LEU171      0.1561
     98  C         28.4140   -4.9500  -14.8610 C.2   171  LEU171      0.2260
     99  O         28.2400   -6.0670  -15.3200 O.2   171  LEU171     -0.2867
    100  CB        27.2420   -3.3360  -16.4150 C.3   171  LEU171      0.0270
    101  CG        26.1100   -2.8480  -15.4970 C.3   171  LEU171      0.0019
    102  CD1       26.5250   -1.5170  -14.8050 C.3   171  LEU171      0.0001
    103  CD2       24.7810   -2.6300  -16.2500 C.3   171  LEU171      0.0001
    104  N         25.0450   -4.5910   -9.7330 N.3   175  TYR175     -0.1227
    105  CA        24.4640   -3.2780  -10.0120 C.3   175  TYR175      0.1736
    106  C         22.9890   -3.4720  -10.3310 C.2   175  TYR175      0.2595
    107  O         22.1370   -2.7570   -9.8350 O.2   175  TYR175     -0.2718
    108  CB        25.1580   -2.6290  -11.2310 C.3   175  TYR175      0.0548
    109  CG        24.5040   -1.3440  -11.6930 C.ar  175  TYR175     -0.0200
    110  CD1       25.1140   -0.1000  -11.4080 C.ar  175  TYR175     -0.0009
    111  CD2       23.2570   -1.3570  -12.3410 C.ar  175  TYR175     -0.0009
    112  CE1       24.4810    1.0990  -11.7510 C.ar  175  TYR175      0.0417
    113  CE2       22.6340   -0.1780  -12.7310 C.ar  175  TYR175      0.0417
    114  CZ        23.2620    1.0510  -12.4360 C.ar  175  TYR175      0.1957
    115  OH        22.6580    2.2460  -12.7900 O.3   175  TYR175     -0.2866
    116  N         22.7030   -4.4570  -11.1840 N.am  176  LEU176     -0.1980
    117  CA        21.3650   -4.6370  -11.7290 C.3   176  LEU176      0.1596
    118  C         20.4450   -5.2410  -10.6930 C.2   176  LEU176      0.2287
    119  O         19.2700   -4.8640  -10.5890 O.2   176  LEU176     -0.2864
    120  CB        21.4340   -5.4780  -13.0070 C.3   176  LEU176      0.0297
    121  CG        22.1560   -4.8140  -14.1880 C.3   176  LEU176      0.0022
    122  CD1       22.3740   -5.8250  -15.3350 C.3   176  LEU176      0.0001
    123  CD2       21.3210   -3.6080  -14.6970 C.3   176  LEU176      0.0001
    124  N         17.3050    8.6340  -23.1900 N.3   205  VAL205     -0.1231
    125  CA        18.0230    7.7540  -22.2950 C.3   205  VAL205      0.1692
    126  C         17.1450    7.5120  -21.0690 C.2   205  VAL205      0.2591
    127  O         17.0060    6.3780  -20.5730 O.2   205  VAL205     -0.2718
    128  CB        19.3980    8.3780  -21.9310 C.3   205  VAL205      0.0266
    129  CG1       20.1320    7.4610  -20.9470 C.3   205  VAL205      0.0020
    130  CG2       20.2180    8.5850  -23.2350 C.3   205  VAL205      0.0020
    131  N         16.6030    8.6030  -20.5490 N.am  206  VAL206     -0.1980
    132  CA        15.7520    8.5540  -19.3620 C.3   206  VAL206      0.1595
    133  C         14.4800    9.3100  -19.7340 C.2   206  VAL206      0.2287
    134  O         14.5280   10.5030  -20.0240 O.2   206  VAL206     -0.2864
    135  CB        16.3750    9.2890  -18.1470 C.3   206  VAL206      0.0276
    136  CG1       15.3810    9.3050  -17.0140 C.3   206  VAL206      0.0022
    137  CG2       17.6470    8.6210  -17.7100 C.3   206  VAL206      0.0022
    138  N         19.5060   14.2210  -23.3330 N.3   231  HIS231     -0.1226
    139  CA        19.7980   13.6820  -22.0110 C.3   231  HIS231      0.1752
    140  C         20.8670   14.4720  -21.2830 C.2   231  HIS231      0.2596
    141  O         20.8190   14.6520  -20.0690 O.2   231  HIS231     -0.2718
    142  CB        20.2770   12.2490  -22.1330 C.3   231  HIS231      0.0759
    143  CG        20.5450   11.6090  -20.8120 C.ar  231  HIS231      0.0818
    144  ND1       19.6080   11.5990  -19.8040 N.ar  231  HIS231     -0.2268
    145  CD2       21.6270   10.9610  -20.3410 C.ar  231  HIS231      0.1154
    146  CE1       20.1070   10.9550  -18.7590 C.ar  231  HIS231      0.1986
    147  NE2       21.3170   10.5380  -19.0590 N.ar  231  HIS231     -0.2212
    148  N         21.8390   14.9670  -22.0400 N.am  232  CYS232     -0.1970
    149  CA        22.9170   15.7370  -21.4460 C.3   232  CYS232      0.1712
    150  C         22.7800   17.2580  -21.5270 C.2   232  CYS232      0.2296
    151  O         23.7180   17.9830  -21.1370 O.2   232  CYS232     -0.2864
    152  CB        24.2420   15.3160  -22.0840 C.3   232  CYS232      0.0983
    153  SG        24.6750   13.5350  -21.6190 S.3   232  CYS232     -0.0798
@<TRIPOS>BOND
     1    90    89    2
     2    89    88    1
     3   138   139    1
     4   130   128    1
     5   124   125    1
     6    88    91    1
     7    88    87    1
     8   125   128    1
     9   125   126    1
    10   142   139    1
    11   142   143    1
    12    91    92    1
    13   152   153    1
    14   152   149    1
    15   148   149    1
    16   148   140   am
    17   139   140    1
    18   128   129    1
    19    95    93   am
    20   150   149    1
    21   150   151    2
    22    83    82    2
    23    87    82   am
    24   140   141    2
    25   126   127    2
    26   126   131   am
    27    92    93    1
    28    82    81    1
    29   143   145   ar
    30   143   144   ar
    31    93    94    2
    32   131   132    1
    33    80    81    1
    34   145   147   ar
    35   134   133    2
    36    81    84    1
    37   144   146   ar
    38   133   132    1
    39    21    20    1
    40   132   135    1
    41   147   146   ar
    42    84    86    1
    43    84    85    1
    44    20    22    1
    45    20    17    1
    46    79    77   ar
    47    78    77   ar
    48    19    18    2
    49    77    76    1
    50   135   137    1
    51   135   136    1
    52    14    12   ar
    53    14    15   ar
    54    36    37   ar
    55    36    34   ar
    56    37    35   ar
    57     8     7    2
    58    12    10   ar
    59    76    73    1
    60    18    17    1
    61    18    23   am
    62    75    74    2
    63    17    16    1
    64    73    74    1
    65    73    72    1
    66    15    13   ar
    67    24    27    1
    68    24    23    1
    69    24    25    1
    70    96    97    1
    71    62    61    1
    72    34    33   ar
    73     7    16   am
    74     7     6    1
    75   100    97    1
    76   100   101    1
    77    35    33   ar
    78    63    61    1
    79   103   101    1
    80    61    58    1
    81    10     9    1
    82    10    11   ar
    83    25    26    2
    84    97    98    1
    85    42    39    1
    86     9     6    1
    87    33    32    1
    88    13    11   ar
    89   101   102    1
    90   122   121    1
    91    99    98    2
    92     6     5    1
    93    60    59    2
    94     5     3   am
    95    59    58    1
    96    59    64   am
    97    58    57    1
    98   123   121    1
    99     3     4    2
   100     3     2    1
   101    56    53    1
   102    39    38    1
   103    39    40    1
   104    32    29    1
   105    64    65    1
   106     2     1    1
   107   121   120    1
   108    65    68    1
   109    65    66    1
   110    53    52    1
   111    53    54    1
   112    38    30   am
   113    67    66    2
   114    68    69    1
   115    30    29    1
   116    30    31    2
   117    43    40   am
   118    43    44    1
   119    40    41    2
   120    29    28    1
   121    54    55    2
   122   120   117    1
   123   115   114    1
   124   113   114   ar
   125   113   111   ar
   126    50    49    2
   127    47    44    1
   128    47    48    1
   129   114   112   ar
   130   111   109   ar
   131    44    45    1
   132    69    71    1
   133    69    70    1
   134   112   110   ar
   135    49    48    1
   136    49    51   am
   137   117   116    1
   138   117   118    1
   139   109   110   ar
   140   109   108    1
   141   108   105    1
   142   116   106   am
   143    45    46    2
   144   118   119    2
   145   106   105    1
   146   106   107    2
   147   105   104    1
