@<TRIPOS>MOLECULE
tmp/3qm8A00.pdb
 220 211 0 0 0
SMALL
GASTEIGER

@<TRIPOS>ATOM
      1  N          7.2790  -10.0700   10.7410 N.3    28  LEU28      -0.1245
      2  CA         7.2460   -9.7430   12.1670 C.3    28  LEU28       0.1561
      3  C          6.6820  -10.9160   12.9770 C.2    28  LEU28       0.2260
      4  O          7.2620  -11.2940   13.9970 O.2    28  LEU28      -0.2867
      5  CB         6.3760   -8.4790   12.3660 C.3    28  LEU28       0.0270
      6  CG         6.2110   -8.0470   13.8280 C.3    28  LEU28       0.0019
      7  CD1        7.5090   -7.5380   14.4130 C.3    28  LEU28       0.0001
      8  CD2        5.1460   -6.9560   13.9110 C.3    28  LEU28       0.0001
      9  N          4.8110  -10.9940   19.2460 N.3    35  THR35      -0.1218
     10  CA         4.1360   -9.7790   18.8170 C.3    35  THR35       0.1862
     11  C          2.7360  -10.0540   18.2850 C.2    35  THR35       0.2287
     12  O          1.8650   -9.1980   18.3370 O.2    35  THR35      -0.2866
     13  CB         4.9400   -9.0060   17.7590 C.3    35  THR35       0.1770
     14  OG1        5.0180   -9.7490   16.5570 O.3    35  THR35      -0.2211
     15  CG2        6.2680   -8.5540   18.2720 C.3    35  THR35       0.0375
     16  N         -0.3200   -9.4510   20.4160 N.3    38  LEU38      -0.1231
     17  CA        -0.6860   -8.0730   20.6350 C.3    38  LEU38       0.1693
     18  C         -1.7020   -7.5620   19.6570 C.2    38  LEU38       0.2592
     19  O         -2.1830   -6.4480   19.8020 O.2    38  LEU38      -0.2718
     20  CB         0.5930   -7.1890   20.6080 C.3    38  LEU38       0.0284
     21  CG         1.6410   -7.5080   21.6640 C.3    38  LEU38       0.0019
     22  CD1        2.8920   -6.7440   21.3800 C.3    38  LEU38       0.0001
     23  CD2        1.0530   -7.1620   23.0780 C.3    38  LEU38       0.0001
     24  N         -2.0680   -8.3790   18.6140 N.am   39  PHE39      -0.1963
     25  CA        -3.0890   -8.0420   17.6340 C.3    39  PHE39       0.1756
     26  C         -4.2030   -9.0220   17.8610 C.2    39  PHE39       0.2461
     27  O         -4.1820  -10.1250   17.2650 O.2    39  PHE39      -0.2730
     28  CB        -2.5370   -8.2300   16.2120 C.3    39  PHE39       0.0574
     29  CG        -1.4720   -7.2680   15.8130 C.ar   39  PHE39      -0.0200
     30  CD1       -0.1630   -7.4510   16.2060 C.ar   39  PHE39      -0.0042
     31  CD2       -1.7530   -6.1510   15.0290 C.ar   39  PHE39      -0.0042
     32  CE1        0.8430   -6.5740   15.8160 C.ar   39  PHE39      -0.0003
     33  CE2       -0.7610   -5.2730   14.6410 C.ar   39  PHE39      -0.0003
     34  CZ         0.5190   -5.4760   15.0400 C.ar   39  PHE39      -0.0000
     35  N         -5.1730   -8.7740   18.7070 N.am   40  PRO40      -0.2716
     36  CA        -6.1680   -9.8150   18.9630 C.3    40  PRO40       0.1536
     37  C         -6.8880  -10.2940   17.6850 C.2    40  PRO40       0.2598
     38  O         -7.3240  -11.4460   17.6470 O.2    40  PRO40      -0.2715
     39  CB        -7.0940   -9.1700   19.9860 C.3    40  PRO40       0.0310
     40  CG        -6.2670   -8.1860   20.6800 C.3    40  PRO40       0.0237
     41  CD        -5.3490   -7.6450   19.5860 C.3    40  PRO40       0.0939
     42  N         -7.0250   -9.4330   16.6290 N.am   41  LYS41      -0.1964
     43  CA        -7.6470   -9.9030   15.3870 C.3    41  LYS41       0.1728
     44  C         -6.8280  -10.9180   14.6480 C.2    41  LYS41       0.2616
     45  O         -7.3960  -11.7120   13.8710 O.2    41  LYS41      -0.2715
     46  CB        -7.9440   -8.7460   14.5180 C.3    41  LYS41       0.0311
     47  CG        -8.8510   -7.7300   15.1580 C.3    41  LYS41       0.0038
     48  CD        -8.9250   -6.4600   14.3060 C.3    41  LYS41       0.0206
     49  CE        -9.8720   -5.3760   14.8910 C.3    41  LYS41       0.1093
     50  NZ        -9.9110   -4.1940   14.0280 N.3    41  LYS41      -0.1314
     51  N         -5.5340  -10.9340   14.8800 N.am   42  PHE42      -0.1974
     52  CA        -4.6140  -11.8140   14.1710 C.3    42  PHE42       0.1639
     53  C         -4.0010  -12.9010   15.0800 C.2    42  PHE42       0.2290
     54  O         -3.4480  -13.8770   14.5440 O.2    42  PHE42      -0.2864
     55  CB        -3.4580  -11.0540   13.5430 C.3    42  PHE42       0.0560
     56  CG        -3.8660   -9.9490   12.6200 C.ar   42  PHE42      -0.0200
     57  CD1       -5.0320   -9.9990   11.8590 C.ar   42  PHE42      -0.0042
     58  CD2       -3.0510   -8.8110   12.4940 C.ar   42  PHE42      -0.0042
     59  CE1       -5.4010   -8.9790   10.9670 C.ar   42  PHE42      -0.0003
     60  CE2       -3.3410   -7.7900   11.6050 C.ar   42  PHE42      -0.0003
     61  CZ        -4.5070   -7.8500   10.8710 C.ar   42  PHE42      -0.0000
     62  N         -3.8380   -4.1380    6.9600 N.3    59  HIS59      -0.1241
     63  CA        -3.3630   -3.4500    8.1230 C.3    59  HIS59       0.1621
     64  C         -1.8810   -3.0150    7.9380 C.2    59  HIS59       0.2264
     65  O         -1.4900   -1.9180    8.3140 O.2    59  HIS59      -0.2867
     66  CB        -3.4870   -4.3310    9.4110 C.3    59  HIS59       0.0745
     67  CG        -3.0850   -3.5470   10.5950 C.ar   59  HIS59       0.0817
     68  ND1       -3.7940   -2.4130   10.9480 N.ar   59  HIS59      -0.2268
     69  CD2       -1.9960   -3.5540   11.3440 C.ar   59  HIS59       0.1154
     70  CE1       -3.1670   -1.8290   11.9500 C.ar   59  HIS59       0.1986
     71  NE2       -2.0900   -2.5050   12.2360 N.ar   59  HIS59      -0.2212
     72  N         -1.7850    0.1490    6.1420 N.3    62  THR62      -0.1203
     73  CA        -2.0740    1.2900    7.0290 C.3    62  THR62       0.1994
     74  C         -0.8610    1.7400    7.7900 C.2    62  THR62       0.2617
     75  O         -0.5660    2.9370    7.9390 O.2    62  THR62      -0.2717
     76  CB        -3.2140    0.8710    8.0470 C.3    62  THR62       0.1784
     77  OG1       -4.3820    0.5760    7.2520 O.3    62  THR62      -0.2211
     78  CG2       -3.4670    1.8910    9.1030 C.3    62  THR62       0.0376
     79  N         -0.0970    0.7620    8.3320 N.am   63  VAL63      -0.1979
     80  CA         1.0880    1.0590    9.0620 C.3    63  VAL63       0.1595
     81  C          2.1140    1.7670    8.1880 C.2    63  VAL63       0.2287
     82  O          2.6910    2.7960    8.5730 O.2    63  VAL63      -0.2864
     83  CB         1.7120   -0.2490    9.6260 C.3    63  VAL63       0.0276
     84  CG1        3.0880   -0.0170   10.2290 C.3    63  VAL63       0.0022
     85  CG2        0.7520   -0.8690   10.6190 C.3    63  VAL63       0.0022
     86  N          1.2300    5.3210    7.2630 N.3    66  LYS66      -0.1231
     87  CA         1.5100    6.2260    8.3880 C.3    66  LYS66       0.1693
     88  C          2.9610    6.5100    8.5090 C.2    66  LYS66       0.2591
     89  O          3.3750    7.6610    8.7440 O.2    66  LYS66      -0.2718
     90  CB         0.9400    5.6210    9.6360 C.3    66  LYS66       0.0285
     91  CG         1.0940    6.4590   10.9100 C.3    66  LYS66       0.0035
     92  CD         0.4870    7.8260   10.8640 C.3    66  LYS66       0.0206
     93  CE        -0.9620    7.7210   10.6450 C.3    66  LYS66       0.1093
     94  NZ        -1.6140    9.0710   10.6220 N.3    66  LYS66      -0.1314
     95  N          3.7840    5.4670    8.3730 N.am   67  LEU67      -0.1980
     96  CA         5.2190    5.6930    8.4730 C.3    67  LEU67       0.1596
     97  C          5.6700    6.5640    7.2980 C.2    67  LEU67       0.2287
     98  O          6.5520    7.4270    7.5120 O.2    67  LEU67      -0.2864
     99  CB         5.9070    4.3110    8.5540 C.3    67  LEU67       0.0297
    100  CG         7.3740    4.3730    8.6070 C.3    67  LEU67       0.0022
    101  CD1        7.8440    5.2110    9.8100 C.3    67  LEU67       0.0001
    102  CD2        7.9590    2.9760    8.6210 C.3    67  LEU67       0.0001
    103  N          4.7510   10.2990    7.9550 N.3    70  LEU70      -0.1245
    104  CA         5.7530   10.8330    8.8370 C.3    70  LEU70       0.1561
    105  C          7.0920   11.1690    8.1040 C.2    70  LEU70       0.2260
    106  O          7.7210   12.2040    8.3300 O.2    70  LEU70      -0.2867
    107  CB         6.1010    9.7780    9.8940 C.3    70  LEU70       0.0270
    108  CG         5.1550    9.4680   11.0220 C.3    70  LEU70       0.0019
    109  CD1        5.6240    8.2070   11.7640 C.3    70  LEU70       0.0001
    110  CD2        5.1220   10.7270   11.9040 C.3    70  LEU70       0.0001
    111  N         -0.3840    8.6010   17.5980 N.3    84  LEU84      -0.1245
    112  CA         0.0480    7.2250   17.4880 C.3    84  LEU84       0.1561
    113  C          0.5560    6.7160   18.8640 C.2    84  LEU84       0.2260
    114  O          0.2600    5.5930   19.2570 O.2    84  LEU84      -0.2867
    115  CB         1.1220    7.1690   16.4190 C.3    84  LEU84       0.0270
    116  CG         1.5380    5.8500   15.9060 C.3    84  LEU84       0.0019
    117  CD1        0.3980    5.2730   15.0350 C.3    84  LEU84       0.0001
    118  CD2        2.9610    5.9360   15.1230 C.3    84  LEU84       0.0001
    119  N         -2.6340    6.1050   21.0200 N.3    87  SER87      -0.1202
    120  CA        -3.3940    4.9030   20.7210 C.3    87  SER87       0.2020
    121  C         -2.5880    3.6400   21.0950 C.2    87  SER87       0.2618
    122  O         -3.1550    2.6620   21.5670 O.2    87  SER87      -0.2717
    123  CB        -3.8340    4.8480   19.2930 C.3    87  SER87       0.2103
    124  OG        -2.7490    4.7400   18.4180 O.3    87  SER87      -0.2182
    125  N         -1.2980    3.6600   20.7980 N.am   88  HIS88      -0.1975
    126  CA        -0.5030    2.4420   21.0450 C.3    88  HIS88       0.1656
    127  C         -0.2800    2.1930   22.5310 C.2    88  HIS88       0.2291
    128  O         -0.3130    1.0360   22.9470 O.2    88  HIS88      -0.2864
    129  CB         0.7880    2.4480   20.2080 C.3    88  HIS88       0.0771
    130  CG         0.5090    2.1490   18.7720 C.ar   88  HIS88       0.0820
    131  ND1       -0.2730    2.9480   17.9460 N.ar   88  HIS88      -0.2267
    132  CD2        0.8270    1.0850   18.0000 C.ar   88  HIS88       0.1154
    133  CE1       -0.3800    2.3430   16.7420 C.ar   88  HIS88       0.1986
    134  NE2        0.2810    1.2280   16.7240 N.ar   88  HIS88      -0.2212
    135  N         -4.7800    2.2360   23.9300 N.3    91  LYS91      -0.1231
    136  CA        -5.7990    1.3970   23.2650 C.3    91  LYS91       0.1693
    137  C         -5.2330    0.0330   22.9730 C.2    91  LYS91       0.2592
    138  O         -5.7460   -1.0010   23.3910 O.2    91  LYS91      -0.2718
    139  CB        -6.3650    2.0510   22.0150 C.3    91  LYS91       0.0285
    140  CG        -7.1360    3.3200   22.2600 C.3    91  LYS91       0.0035
    141  CD        -7.7090    3.8630   21.0000 C.3    91  LYS91       0.0206
    142  CE        -8.6090    5.0560   21.2380 C.3    91  LYS91       0.1093
    143  NZ        -9.2930    5.6000   20.0590 N.3    91  LYS91      -0.1314
    144  N         -4.0790   -0.0130   22.2800 N.am   92  HIS92      -0.1976
    145  CA        -3.5160   -1.2670   21.8390 C.3    92  HIS92       0.1656
    146  C         -2.6270   -1.8920   22.9030 C.2    92  HIS92       0.2291
    147  O         -2.3980   -3.1150   22.8880 O.2    92  HIS92      -0.2864
    148  CB        -2.7510   -1.0900   20.5250 C.3    92  HIS92       0.0771
    149  CG        -3.5250   -0.3040   19.4970 C.ar   92  HIS92       0.0820
    150  ND1       -4.8710   -0.4600   19.3160 N.ar   92  HIS92      -0.2267
    151  CD2       -3.1180    0.6910   18.7020 C.ar   92  HIS92       0.1154
    152  CE1       -5.2600    0.4150   18.3820 C.ar   92  HIS92       0.1986
    153  NE2       -4.2120    1.1240   18.0100 N.ar   92  HIS92      -0.2212
    154  N          0.7530   -1.5480   23.6490 N.3    94  ILE94      -0.1245
    155  CA         1.9420   -2.0980   23.0510 C.3    94  ILE94       0.1561
    156  C          3.1700   -1.6880   23.8140 C.2    94  ILE94       0.2260
    157  O          3.5600   -0.5030   23.8080 O.2    94  ILE94      -0.2867
    158  CB         2.0840   -1.6400   21.5740 C.3    94  ILE94       0.0252
    159  CG1        0.8290   -1.9500   20.7830 C.3    94  ILE94       0.0019
    160  CG2        3.3470   -2.2720   20.9390 C.3    94  ILE94       0.0019
    161  CD1        0.3310   -3.3900   20.8720 C.3    94  ILE94       0.0001
    162  N          8.5370   -3.3310   21.3550 N.3    98  ASN98      -0.1225
    163  CA         8.0610   -3.9400   20.1160 C.3    98  ASN98       0.1785
    164  C          8.2790   -3.0620   18.8860 C.2    98  ASN98       0.2597
    165  O          8.3810   -3.5670   17.7780 O.2    98  ASN98      -0.2718
    166  CB         6.5530   -4.2650   20.2470 C.3    98  ASN98       0.1169
    167  CG         6.3620   -5.3540   21.2510 C.2    98  ASN98       0.2627
    168  OD1        5.8570   -5.0230   22.4150 O.2    98  ASN98      -0.2716
    169  ND2        6.6830   -6.5200   20.9490 N.am   98  ASN98      -0.0877
    170  N          8.3630   -1.7160   19.0570 N.am   99  PHE99      -0.1976
    171  CA         8.6420   -0.8850   17.9290 C.3    99  PHE99       0.1639
    172  C         10.0160   -1.1390   17.3110 C.2    99  PHE99       0.2290
    173  O         10.1970   -0.9930   16.1220 O.2    99  PHE99      -0.2864
    174  CB         8.4640    0.6080   18.2940 C.3    99  PHE99       0.0560
    175  CG         7.0300    0.9780   18.5760 C.ar   99  PHE99      -0.0200
    176  CD1        6.5810    1.0430   19.8710 C.ar   99  PHE99      -0.0042
    177  CD2        6.1780    1.2930   17.5760 C.ar   99  PHE99      -0.0042
    178  CE1        5.2100    1.3440   20.1510 C.ar   99  PHE99      -0.0003
    179  CE2        4.8550    1.6040   17.8560 C.ar   99  PHE99      -0.0003
    180  CZ         4.3740    1.6490   19.1310 C.ar   99  PHE99      -0.0000
    181  N          9.5840   -4.2490   14.8840 N.3   102  ILE102     -0.1245
    182  CA         9.0390   -3.9840   13.5660 C.3   102  ILE102      0.1561
    183  C          9.9960   -3.1270   12.7160 C.2   102  ILE102      0.2260
    184  O         10.0820   -3.2770   11.4950 O.2   102  ILE102     -0.2867
    185  CB         7.6140   -3.3900   13.6410 C.3   102  ILE102      0.0252
    186  CG1        6.9230   -3.5420   12.2690 C.3   102  ILE102      0.0019
    187  CG2        7.5860   -1.9280   14.0970 C.3   102  ILE102      0.0019
    188  CD1        5.4580   -3.1130   12.2980 C.3   102  ILE102      0.0001
    189  N         14.1460    5.4500   12.5170 N.3   128  MET128     -0.1245
    190  CA        13.2780    4.7290   13.4270 C.3   128  MET128      0.1570
    191  C         13.6280    4.9870   14.8700 C.2   128  MET128      0.2261
    192  O         12.7410    5.0550   15.7310 O.2   128  MET128     -0.2867
    193  CB        13.2430    3.2200   13.1300 C.3   128  MET128      0.0387
    194  CG        12.6780    2.9040   11.7140 C.3   128  MET128      0.0595
    195  SD        11.1280    3.6700   11.2720 S.3   128  MET128     -0.1393
    196  CE        10.0670    2.9710   12.6060 C.3   128  MET128      0.0692
    197  N         11.8990    8.1770   15.8220 N.3   131  ILE131     -0.1231
    198  CA        10.4530    7.9410   16.0110 C.3   131  ILE131      0.1692
    199  C         10.2130    7.2050   17.3410 C.2   131  ILE131      0.2591
    200  O          9.3040    7.6100   18.0910 O.2   131  ILE131     -0.2718
    201  CB         9.9340    7.1760   14.7630 C.3   131  ILE131      0.0266
    202  CG1        9.8870    8.0880   13.5500 C.3   131  ILE131      0.0019
    203  CG2        8.5480    6.6120   15.0780 C.3   131  ILE131      0.0020
    204  CD1        9.7170    7.3580   12.2040 C.3   131  ILE131      0.0001
    205  N         10.9840    6.1730   17.6110 N.am  132  ILE132     -0.1980
    206  CA        10.7560    5.4020   18.7990 C.3   132  ILE132      0.1595
    207  C         11.0470    6.2200   20.0670 C.2   132  ILE132      0.2287
    208  O         10.3180    6.1130   21.0620 O.2   132  ILE132     -0.2864
    209  CB        11.5650    4.1110   18.7660 C.3   132  ILE132      0.0276
    210  CG1       11.0460    3.2170   17.6260 C.3   132  ILE132      0.0022
    211  CG2       11.5320    3.3690   20.0810 C.3   132  ILE132      0.0022
    212  CD1       11.8850    2.0220   17.3200 C.3   132  ILE132      0.0001
    213  N          8.0200    8.3580   20.5310 N.3   135  LEU135     -0.1245
    214  CA         6.9350    7.5510   21.0800 C.3   135  LEU135      0.1561
    215  C          7.1790    7.3070   22.5510 C.2   135  LEU135      0.2260
    216  O          6.2180    7.4390   23.3520 O.2   135  LEU135     -0.2867
    217  CB         6.8270    6.2030   20.3260 C.3   135  LEU135      0.0270
    218  CG         6.3150    6.2780   18.9050 C.3   135  LEU135      0.0019
    219  CD1        6.5390    4.9080   18.1990 C.3   135  LEU135      0.0001
    220  CD2        4.8170    6.6780   18.8500 C.3   135  LEU135      0.0001
@<TRIPOS>BOND
     1    72    73    1
     2    62    63    1
     3    73    74    1
     4    73    76    1
     5    77    76    1
     6    86    87    1
     7    97    98    2
     8    97    96    1
     9    74    75    2
    10    74    79   am
    11    64    63    1
    12    64    65    2
    13   103   104    1
    14    76    78    1
    15   105   106    2
    16   105   104    1
    17    63    66    1
    18    81    82    2
    19    81    80    1
    20    79    80    1
    21    95    96    1
    22    95    88   am
    23    87    88    1
    24    87    90    1
    25    96    99    1
    26    88    89    2
    27    99   100    1
    28   100   102    1
    29   100   101    1
    30   104   107    1
    31    80    83    1
    32    66    67    1
    33    83    84    1
    34    83    85    1
    35    90    91    1
    36   107   108    1
    37    67    68   ar
    38    67    69   ar
    39    94    93    1
    40    93    92    1
    41     1     2    1
    42    92    91    1
    43    61    59   ar
    44    61    60   ar
    45    68    70   ar
    46    59    57   ar
    47   108   109    1
    48   108   110    1
    49   195   194    1
    50   195   196    1
    51    69    71   ar
    52   184   183    2
    53    60    58   ar
    54   194   193    1
    55    57    56   ar
    56    70    71   ar
    57     2     5    1
    58     2     3    1
    59   204   202    1
    60   186   188    1
    61   186   185    1
    62     5     6    1
    63    58    56   ar
    64   189   190    1
    65    56    55    1
    66   183   182    1
    67     3     4    2
    68   193   190    1
    69   190   191    1
    70    55    52    1
    71   202   201    1
    72   182   185    1
    73   182   181    1
    74   185   187    1
    75     6     8    1
    76     6     7    1
    77    45    44    2
    78    50    49    1
    79    52    51    1
    80    52    53    1
    81    48    49    1
    82    48    47    1
    83    46    47    1
    84    46    43    1
    85    54    53    2
    86    33    31   ar
    87    33    34   ar
    88    44    51   am
    89    44    43    1
    90   201   203    1
    91   201   198    1
    92   191   192    2
    93    31    29   ar
    94   117   116    1
    95    34    32   ar
    96   118   116    1
    97    43    42    1
    98    29    30   ar
    99    29    28    1
   100    32    30   ar
   101   197   198    1
   102   116   115    1
   103   198   199    1
   104   173   172    2
   105    28    25    1
   106   115   112    1
   107    14    13    1
   108    42    37   am
   109   134   133   ar
   110   134   132   ar
   111   133   131   ar
   112    27    26    2
   113   172   171    1
   114   212   210    1
   115   199   205   am
   116   199   200    2
   117   112   111    1
   118   112   113    1
   119   177   179   ar
   120   177   175   ar
   121   205   206    1
   122   210   209    1
   123    25    26    1
   124    25    24    1
   125    38    37    2
   126    37    36    1
   127    13    15    1
   128    13    10    1
   129   165   164    2
   130   179   180   ar
   131    26    35   am
   132   171   174    1
   133   171   170    1
   134   131   130   ar
   135   132   130   ar
   136   153   152   ar
   137   153   151   ar
   138   219   218    1
   139    11    12    2
   140    11    10    1
   141   174   175    1
   142   152   150   ar
   143   124   123    1
   144   175   176   ar
   145    24    18   am
   146   151   149   ar
   147    35    36    1
   148    35    41    1
   149   209   206    1
   150   209   211    1
   151   130   129    1
   152   206   207    1
   153    10     9    1
   154   220   218    1
   155   113   114    2
   156   164   170   am
   157   164   163    1
   158   218   217    1
   159    36    39    1
   160   180   178   ar
   161   123   120    1
   162   150   149   ar
   163   149   148    1
   164    41    40    1
   165    18    19    2
   166    18    17    1
   167   176   178   ar
   168    39    40    1
   169   143   142    1
   170   207   208    2
   171   163   166    1
   172   163   162    1
   173   129   126    1
   174   166   167    1
   175   217   214    1
   176    16    17    1
   177   148   145    1
   178   213   214    1
   179    20    17    1
   180    20    21    1
   181   120   119    1
   182   120   121    1
   183   159   161    1
   184   159   158    1
   185   125   126    1
   186   125   121   am
   187   160   158    1
   188   169   167   am
   189   141   142    1
   190   141   140    1
   191   126   127    1
   192   214   215    1
   193   121   122    2
   194   167   168    2
   195    22    21    1
   196   158   155    1
   197    21    23    1
   198   145   144    1
   199   145   146    1
   200   139   140    1
   201   139   136    1
   202   144   137   am
   203   127   128    2
   204   215   216    2
   205   147   146    2
   206   137   136    1
   207   137   138    2
   208   155   154    1
   209   155   156    1
   210   136   135    1
   211   157   156    2
