@<TRIPOS>MOLECULE
tmp/3qmeA00.pdb
 106 100 0 0 0
SMALL
GASTEIGER

@<TRIPOS>ATOM
      1  N         13.3970   35.7790   31.1750 N.3    38  VAL38      -0.1231
      2  CA        14.6970   35.1770   31.4250 C.3    38  VAL38       0.1692
      3  C         14.8700   33.8990   30.6220 C.2    38  VAL38       0.2591
      4  O         15.9110   33.6910   30.0200 O.2    38  VAL38      -0.2718
      5  CB        14.8960   34.9020   32.9080 C.3    38  VAL38       0.0266
      6  CG1       16.0860   33.9320   33.1350 C.3    38  VAL38       0.0020
      7  CG2       15.0780   36.2340   33.6510 C.3    38  VAL38       0.0020
      8  N         13.8470   33.0490   30.5990 N.am   39  ARG39      -0.1980
      9  CA        13.9020   31.8620   29.7540 C.3    39  ARG39       0.1597
     10  C         14.1330   32.2230   28.2850 C.2    39  ARG39       0.2287
     11  O         14.9320   31.5910   27.5990 O.2    39  ARG39      -0.2864
     12  CB        12.6230   31.0370   29.8780 C.3    39  ARG39       0.0334
     13  CG        12.5340   29.9510   28.8180 C.3    39  ARG39       0.0492
     14  CD        11.3480   29.0250   29.0630 C.3    39  ARG39       0.2205
     15  NE        11.2630   28.0000   28.0220 N.pl3  39  ARG39      -0.0865
     16  CZ        10.5250   28.1210   26.9200 C.cat  39  ARG39       0.5346
     17  NH1        9.7990   29.2120   26.7190 N.pl3  39  ARG39       0.1354
     18  NH2       10.5000   27.1500   26.0240 N.pl3  39  ARG39       0.1354
     19  N         15.5160   34.9270   26.8340 N.3    41  ILE41      -0.1231
     20  CA        16.8830   35.4130   26.6390 C.3    41  ILE41       0.1692
     21  C         17.8790   34.2500   26.6550 C.2    41  ILE41       0.2592
     22  O         18.7550   34.1470   25.7910 O.2    41  ILE41      -0.2718
     23  CB        17.2820   36.4110   27.7670 C.3    41  ILE41       0.0266
     24  CG1       16.3840   37.6520   27.7490 C.3    41  ILE41       0.0019
     25  CG2       18.7480   36.8110   27.6500 C.3    41  ILE41       0.0020
     26  CD1       16.3660   38.3710   26.4550 C.3    41  ILE41       0.0001
     27  N         17.7560   33.3710   27.6460 N.am   42  GLY42      -0.1957
     28  CA        18.6450   32.2210   27.7040 C.3    42  GLY42       0.1869
     29  C         18.5330   31.3510   26.4610 C.2    42  GLY42       0.2309
     30  O         19.5310   30.8330   25.9420 O.2    42  GLY42      -0.2863
     31  N         22.2200   30.2190   25.8460 N.3    47  LEU47      -0.1231
     32  CA        22.8350   30.0520   27.1560 C.3    47  LEU47       0.1693
     33  C         22.1110   28.9730   27.9420 C.2    47  LEU47       0.2592
     34  O         22.5790   28.5300   28.9900 O.2    47  LEU47      -0.2718
     35  CB        22.7350   31.3530   27.9510 C.3    47  LEU47       0.0284
     36  CG        23.4520   32.5570   27.3680 C.3    47  LEU47       0.0019
     37  CD1       23.1660   33.7930   28.2240 C.3    47  LEU47       0.0001
     38  CD2       24.9330   32.2680   27.2880 C.3    47  LEU47       0.0001
     39  N         20.9560   28.5640   27.4400 N.am   48  TYR48      -0.1976
     40  CA        20.0530   27.7120   28.2140 C.3    48  TYR48       0.1639
     41  C         19.1750   26.9510   27.2590 C.2    48  TYR48       0.2290
     42  O         18.9530   27.3890   26.1320 O.2    48  TYR48      -0.2864
     43  CB        19.1790   28.5390   29.1860 C.3    48  TYR48       0.0560
     44  CG        18.1370   27.7120   29.9390 C.ar   48  TYR48      -0.0198
     45  CD1       18.4690   27.0360   31.1120 C.ar   48  TYR48      -0.0009
     46  CD2       16.8260   27.6100   29.4740 C.ar   48  TYR48      -0.0009
     47  CE1       17.5260   26.2660   31.7980 C.ar   48  TYR48       0.0417
     48  CE2       15.8690   26.8480   30.1600 C.ar   48  TYR48       0.0417
     49  CZ        16.2260   26.1840   31.3150 C.ar   48  TYR48       0.1957
     50  OH        15.2890   25.4350   31.9830 O.3    48  TYR48      -0.2866
     51  N         21.6570   24.4790   31.4900 N.3    54  VAL54      -0.1245
     52  CA        22.5480   25.6100   31.2780 C.3    54  VAL54       0.1561
     53  C         23.8210   25.2240   30.5290 C.2    54  VAL54       0.2260
     54  O         24.5270   24.3090   30.9450 O.2    54  VAL54      -0.2867
     55  CB        22.9470   26.2420   32.6400 C.3    54  VAL54       0.0252
     56  CG1       24.0230   27.3140   32.4550 C.3    54  VAL54       0.0019
     57  CG2       21.7090   26.8100   33.3620 C.3    54  VAL54       0.0019
     58  N         28.0590   30.3800   29.0370 N.3    59  ASN59      -0.1240
     59  CA        27.8610   31.4250   30.0410 C.3    59  ASN59       0.1653
     60  C         29.1990   31.9920   30.5000 C.2    59  ASN59       0.2266
     61  O         29.3470   33.1980   30.6980 O.2    59  ASN59      -0.2867
     62  CB        27.0120   30.9210   31.2200 C.3    59  ASN59       0.1155
     63  CG        25.5190   30.9700   30.9280 C.2    59  ASN59       0.2627
     64  OD1       24.8680   31.9820   31.1860 O.2    59  ASN59      -0.2716
     65  ND2       24.9690   29.8800   30.3830 N.am   59  ASN59      -0.0877
     66  N         13.6030   27.7160   34.1500 N.3    96  ALA96      -0.1245
     67  CA        14.6910   28.5060   33.5670 C.3    96  ALA96       0.1562
     68  C         15.1860   29.5760   34.5280 C.2    96  ALA96       0.2260
     69  O         16.3850   29.8100   34.6510 O.2    96  ALA96      -0.2867
     70  CB        14.2400   29.1540   32.2390 C.3    96  ALA96       0.0290
     71  N         17.1350   27.9870   37.2800 N.3    99  ALA99      -0.1231
     72  CA        18.4630   27.6640   36.7580 C.3    99  ALA99       0.1694
     73  C         19.3650   28.8900   36.7830 C.2    99  ALA99       0.2592
     74  O         20.4740   28.8410   37.3180 O.2    99  ALA99      -0.2718
     75  CB        18.3490   27.1240   35.3380 C.3    99  ALA99       0.0304
     76  N         18.8780   29.9860   36.1940 N.am  100  PHE100     -0.1976
     77  CA        19.5860   31.2670   36.1600 C.3   100  PHE100      0.1639
     78  C         20.0660   31.7340   37.5360 C.2   100  PHE100      0.2290
     79  O         21.1150   32.3700   37.6440 O.2   100  PHE100     -0.2864
     80  CB        18.6900   32.3550   35.5470 C.3   100  PHE100      0.0560
     81  CG        19.2900   33.7470   35.6120 C.ar  100  PHE100     -0.0200
     82  CD1       18.7850   34.7010   36.4940 C.ar  100  PHE100     -0.0042
     83  CD2       20.3760   34.0870   34.8160 C.ar  100  PHE100     -0.0042
     84  CE1       19.3500   35.9660   36.5750 C.ar  100  PHE100     -0.0003
     85  CE2       20.9480   35.3560   34.8850 C.ar  100  PHE100     -0.0003
     86  CZ        20.4310   36.2970   35.7660 C.ar  100  PHE100     -0.0000
     87  N         23.6340   31.3630   38.5390 N.3   103  LEU103     -0.1245
     88  CA        24.6560   32.1970   37.8850 C.3   103  LEU103      0.1561
     89  C         24.5640   33.6870   38.2360 C.2   103  LEU103      0.2260
     90  O         25.3650   34.4970   37.7660 O.2   103  LEU103     -0.2867
     91  CB        24.5630   32.0260   36.3640 C.3   103  LEU103      0.0270
     92  CG        24.9760   30.6660   35.7940 C.3   103  LEU103      0.0019
     93  CD1       24.1710   30.3540   34.5530 C.3   103  LEU103      0.0001
     94  CD2       26.4600   30.6590   35.4850 C.3   103  LEU103      0.0001
     95  N         27.2120   36.8080   37.2380 N.3   107  TYR107     -0.1241
     96  CA        26.8190   37.9360   36.4030 C.3   107  TYR107      0.1605
     97  C         26.9800   39.2690   37.1380 C.2   107  TYR107      0.2264
     98  O         27.4550   40.2460   36.5590 O.2   107  TYR107     -0.2867
     99  CB        25.3990   37.7510   35.8250 C.3   107  TYR107      0.0534
    100  CG        25.4200   36.8950   34.5680 C.ar  107  TYR107     -0.0201
    101  CD1       25.9710   37.3840   33.3910 C.ar  107  TYR107     -0.0009
    102  CD2       24.9390   35.5870   34.5720 C.ar  107  TYR107     -0.0009
    103  CE1       26.0370   36.6050   32.2460 C.ar  107  TYR107      0.0417
    104  CE2       24.9950   34.7950   33.4220 C.ar  107  TYR107      0.0417
    105  CZ        25.5480   35.3130   32.2660 C.ar  107  TYR107      0.1957
    106  OH        25.6150   34.5440   31.1220 O.3   107  TYR107     -0.2866
@<TRIPOS>BOND
     1    22    21    2
     2    31    32    1
     3    30    29    2
     4    18    16    1
     5    42    41    2
     6    26    24    1
     7    29    28    1
     8    20    21    1
     9    20    19    1
    10    20    23    1
    11    21    27   am
    12    17    16    1
    13    16    15    2
    14    32    33    1
    15    32    35    1
    16    41    40    1
    17    38    36    1
    18    36    35    1
    19    36    37    1
    20    39    33   am
    21    39    40    1
    22    11    10    2
    23    27    28    1
    24    25    23    1
    25    24    23    1
    26    33    34    2
    27    15    14    1
    28    40    43    1
    29    10     9    1
    30    13    14    1
    31    13    12    1
    32    58    59    1
    33    43    44    1
    34    46    44   ar
    35    46    48   ar
    36     9    12    1
    37     9     8    1
    38    44    45   ar
    39     4     3    2
    40    59    60    1
    41    59    62    1
    42    48    49   ar
    43    65    63   am
    44    60    61    2
    45    53    54    2
    46    53    52    1
    47     8     3   am
    48     3     2    1
    49    63    64    2
    50    63    62    1
    51    45    47   ar
    52   106   105    1
    53     1     2    1
    54    52    51    1
    55    52    55    1
    56    49    47   ar
    57    49    50    1
    58     2     5    1
    59    70    67    1
    60   103   105   ar
    61   103   101   ar
    62   105   104   ar
    63    56    55    1
    64    55    57    1
    65     5     6    1
    66     5     7    1
    67   101   100   ar
    68   104   102   ar
    69    67    66    1
    70    67    68    1
    71    68    69    2
    72    93    92    1
    73   100   102   ar
    74   100    99    1
    75    83    85   ar
    76    83    81   ar
    77    85    86   ar
    78    75    72    1
    79    94    92    1
    80    80    81    1
    81    80    77    1
    82    81    82   ar
    83    86    84   ar
    84    92    91    1
    85    99    96    1
    86    77    76    1
    87    77    78    1
    88    76    73   am
    89    91    88    1
    90    96    97    1
    91    96    95    1
    92    82    84   ar
    93    98    97    2
    94    72    73    1
    95    72    71    1
    96    73    74    2
    97    78    79    2
    98    90    89    2
    99    88    89    1
   100    88    87    1
