@<TRIPOS>MOLECULE
tmp/3qmkA00.pdb
 171 164 0 0 0
SMALL
GASTEIGER

@<TRIPOS>ATOM
      1  N         16.1030  -46.7180   44.4300 N.3    14  SER14      -0.1202
      2  CA        17.5610  -46.7740   44.3370 C.3    14  SER14       0.2020
      3  C         18.1680  -45.3710   44.2880 C.2    14  SER14       0.2619
      4  O         17.4560  -44.3810   44.0880 O.2    14  SER14      -0.2717
      5  CB        17.9830  -47.5390   43.0870 C.3    14  SER14       0.2103
      6  OG        17.7090  -46.7610   41.9350 O.3    14  SER14      -0.2182
      7  N         19.4870  -45.2980   44.4580 N.am   15  GLU15      -0.1965
      8  CA        20.1930  -44.0190   44.4240 C.3    15  GLU15       0.1733
      9  C         20.0810  -43.3870   43.0370 C.2    15  GLU15       0.2616
     10  O         19.8950  -42.1770   42.9100 O.2    15  GLU15      -0.2715
     11  CB        21.6610  -44.2190   44.8070 C.3    15  GLU15       0.0429
     12  CG        22.6250  -43.0870   44.4240 C.3    15  GLU15       0.1163
     13  CD        22.2770  -41.7330   45.0250 C.2    15  GLU15       0.3649
     14  OE1       21.6430  -41.6920   46.1070 O.co2  15  GLU15      -0.2457
     15  OE2       22.6700  -40.7050   44.4210 O.co2  15  GLU15      -0.2457
     16  N         20.1590  -44.2150   42.0060 N.am   16  HIS16      -0.1973
     17  CA        20.0910  -43.7230   40.6500 C.3    16  HIS16       0.1656
     18  C         18.7710  -43.0390   40.3230 C.2    16  HIS16       0.2291
     19  O         18.7660  -41.9320   39.7820 O.2    16  HIS16      -0.2864
     20  CB        20.3410  -44.8580   39.6440 C.3    16  HIS16       0.0771
     21  CG        20.3580  -44.3990   38.2170 C.ar   16  HIS16       0.0820
     22  ND1       21.3210  -43.5430   37.7210 N.ar   16  HIS16      -0.2267
     23  CD2       19.5090  -44.6440   37.1910 C.ar   16  HIS16       0.1154
     24  CE1       21.0630  -43.2800   36.4550 C.ar   16  HIS16       0.1986
     25  NE2       19.9700  -43.9340   36.1080 N.ar   16  HIS16      -0.2212
     26  N         18.2430  -39.8540   42.4120 N.3    19  PHE19      -0.1227
     27  CA        19.0550  -38.7810   41.8270 C.3    19  PHE19       0.1736
     28  C         18.3230  -38.1450   40.6350 C.2    19  PHE19       0.2595
     29  O         18.1320  -36.9300   40.5910 O.2    19  PHE19      -0.2718
     30  CB        20.4070  -39.3660   41.3950 C.3    19  PHE19       0.0547
     31  CG        21.2140  -38.4810   40.4700 C.ar   19  PHE19      -0.0202
     32  CD1       21.8330  -37.3290   40.9420 C.ar   19  PHE19      -0.0042
     33  CD2       21.3870  -38.8470   39.1400 C.ar   19  PHE19      -0.0042
     34  CE1       22.6270  -36.5470   40.1000 C.ar   19  PHE19      -0.0003
     35  CE2       22.1800  -38.0760   38.2780 C.ar   19  PHE19      -0.0003
     36  CZ        22.8060  -36.9230   38.7550 C.ar   19  PHE19      -0.0000
     37  N         17.8970  -38.9690   39.6810 N.am   20  LEU20      -0.1980
     38  CA        17.1970  -38.4620   38.5050 C.3    20  LEU20       0.1596
     39  C         15.9240  -37.7010   38.8920 C.2    20  LEU20       0.2287
     40  O         15.6470  -36.6340   38.3530 O.2    20  LEU20      -0.2864
     41  CB        16.8510  -39.6090   37.5450 C.3    20  LEU20       0.0297
     42  CG        18.0180  -40.3810   36.9100 C.3    20  LEU20       0.0022
     43  CD1       17.4660  -41.4850   35.9960 C.3    20  LEU20       0.0001
     44  CD2       18.9040  -39.4300   36.1090 C.3    20  LEU20       0.0001
     45  N         16.9270  -34.4040   40.2230 N.3    23  LYS23      -0.1245
     46  CA        17.4250  -33.5910   39.1230 C.3    23  LYS23       0.1561
     47  C         16.2540  -33.0570   38.2910 C.2    23  LYS23       0.2260
     48  O         16.2530  -31.9060   37.8680 O.2    23  LYS23      -0.2867
     49  CB        18.3840  -34.4170   38.2510 C.3    23  LYS23       0.0271
     50  CG        19.0630  -33.6350   37.1360 C.3    23  LYS23       0.0035
     51  CD        20.3890  -34.2770   36.7180 C.3    23  LYS23       0.0206
     52  CE        20.2210  -35.6490   36.0780 C.3    23  LYS23       0.1093
     53  NZ        19.9080  -35.5520   34.6210 N.3    23  LYS23      -0.1314
     54  N         23.3140  -27.7800   40.7690 N.3    78  ARG78      -0.1245
     55  CA        23.6510  -28.9560   39.9770 C.3    78  ARG78       0.1563
     56  C         24.9520  -29.6090   40.4920 C.2    78  ARG78       0.2260
     57  O         25.0360  -30.8300   40.5940 O.2    78  ARG78      -0.2867
     58  CB        23.8100  -28.5560   38.5030 C.3    78  ARG78       0.0307
     59  CG        24.3830  -29.6420   37.5990 C.3    78  ARG78       0.0489
     60  CD        23.5350  -30.8920   37.6620 C.3    78  ARG78       0.2205
     61  NE        22.1790  -30.7050   37.1400 N.pl3  78  ARG78      -0.0865
     62  CZ        21.8490  -30.8180   35.8540 C.cat  78  ARG78       0.5346
     63  NH1       22.7780  -31.1150   34.9530 N.pl3  78  ARG78       0.1354
     64  NH2       20.5880  -30.6550   35.4700 N.pl3  78  ARG78       0.1354
     65  N         25.4230  -33.4550   41.7070 N.3    82  VAL82      -0.1245
     66  CA        26.3880  -34.3590   41.0640 C.3    82  VAL82       0.1561
     67  C         27.4390  -34.8740   42.0650 C.2    82  VAL82       0.2260
     68  O         27.9240  -36.0010   41.9560 O.2    82  VAL82      -0.2867
     69  CB        27.1050  -33.6280   39.8890 C.3    82  VAL82       0.0252
     70  CG1       28.3420  -34.3930   39.4350 C.3    82  VAL82       0.0019
     71  CG2       26.1170  -33.4410   38.7250 C.3    82  VAL82       0.0019
     72  N         25.7880  -37.4790   44.4660 N.3    85  HIS85      -0.1226
     73  CA        25.5480  -38.6860   43.6930 C.3    85  HIS85       0.1752
     74  C         26.8240  -39.4800   43.4250 C.2    85  HIS85       0.2595
     75  O         26.8370  -40.7030   43.5810 O.2    85  HIS85      -0.2718
     76  CB        24.8860  -38.3310   42.3650 C.3    85  HIS85       0.0759
     77  CG        24.5890  -39.5200   41.5080 C.ar   85  HIS85       0.0818
     78  ND1       23.7260  -40.5190   41.9010 N.ar   85  HIS85      -0.2268
     79  CD2       25.0330  -39.8690   40.2750 C.ar   85  HIS85       0.1154
     80  CE1       23.6510  -41.4310   40.9510 C.ar   85  HIS85       0.1986
     81  NE2       24.4330  -41.0620   39.9540 N.ar   85  HIS85      -0.2212
     82  N         27.8870  -38.7920   43.0180 N.am   86  ALA86      -0.1980
     83  CA        29.1500  -39.4650   42.7100 C.3    86  ALA86       0.1597
     84  C         29.7500  -40.1400   43.9330 C.2    86  ALA86       0.2287
     85  O         30.2480  -41.2640   43.8520 O.2    86  ALA86      -0.2864
     86  CB        30.1570  -38.4690   42.1200 C.3    86  ALA86       0.0319
     87  N         27.6880  -43.2630   44.6800 N.3    89  VAL89      -0.1245
     88  CA        27.8930  -44.3490   43.7350 C.3    89  VAL89       0.1561
     89  C         29.1920  -45.0870   44.0770 C.2    89  VAL89       0.2260
     90  O         29.2290  -46.3150   44.0850 O.2    89  VAL89      -0.2867
     91  CB        27.9310  -43.8200   42.2700 C.3    89  VAL89       0.0252
     92  CG1       28.4400  -44.9020   41.3230 C.3    89  VAL89       0.0019
     93  CG2       26.5290  -43.3840   41.8470 C.3    89  VAL89       0.0019
     94  N         28.6650  -47.2010   47.2270 N.3    92  LEU92      -0.1231
     95  CA        27.8870  -48.4040   46.9710 C.3    92  LEU92       0.1693
     96  C         28.7270  -49.4740   46.2450 C.2    92  LEU92       0.2591
     97  O         28.5890  -50.6700   46.5090 O.2    92  LEU92      -0.2718
     98  CB        26.6510  -48.0510   46.1460 C.3    92  LEU92       0.0284
     99  CG        25.6640  -49.1690   45.8150 C.3    92  LEU92       0.0019
    100  CD1       25.1140  -49.8190   47.0800 C.3    92  LEU92       0.0001
    101  CD2       24.5330  -48.5560   45.0120 C.3    92  LEU92       0.0001
    102  N         29.5940  -49.0390   45.3370 N.am   93  ILE93      -0.1980
    103  CA        30.4300  -49.9820   44.6150 C.3    93  ILE93       0.1595
    104  C         31.4160  -50.6490   45.5680 C.2    93  ILE93       0.2287
    105  O         31.6250  -51.8540   45.5010 O.2    93  ILE93      -0.2864
    106  CB        31.1950  -49.2840   43.4550 C.3    93  ILE93       0.0276
    107  CG1       30.1860  -48.8910   42.3540 C.3    93  ILE93       0.0022
    108  CG2       32.3310  -50.2080   42.9390 C.3    93  ILE93       0.0022
    109  CD1       30.7590  -47.9860   41.2450 C.3    93  ILE93       0.0001
    110  N         32.1560  -54.1620   37.9610 N.3   131  LYS131     -0.1245
    111  CA        31.3280  -52.9650   38.0590 C.3   131  LYS131      0.1561
    112  C         32.2110  -51.7550   38.3570 C.2   131  LYS131      0.2260
    113  O         32.0050  -50.6750   37.8040 O.2   131  LYS131     -0.2867
    114  CB        30.2780  -53.1350   39.1580 C.3   131  LYS131      0.0271
    115  CG        29.2490  -52.0280   39.2130 C.3   131  LYS131      0.0035
    116  CD        28.1320  -52.3710   40.1920 C.3   131  LYS131      0.0206
    117  CE        27.0050  -51.3480   40.1170 C.3   131  LYS131      0.1093
    118  NZ        26.4290  -51.2690   38.7280 N.3   131  LYS131     -0.1314
    119  N         32.9040  -48.6870   35.8160 N.3   135  HIS135     -0.1241
    120  CA        32.6560  -47.3390   36.3090 C.3   135  HIS135      0.1621
    121  C         33.8520  -46.4350   36.0870 C.2   135  HIS135      0.2264
    122  O         33.7010  -45.2640   35.7560 O.2   135  HIS135     -0.2867
    123  CB        32.3420  -47.3460   37.8050 C.3   135  HIS135      0.0745
    124  CG        32.2200  -45.9710   38.3970 C.ar  135  HIS135      0.0817
    125  ND1       31.0350  -45.2680   38.4050 N.ar  135  HIS135     -0.2268
    126  CD2       33.1300  -45.1780   39.0080 C.ar  135  HIS135      0.1154
    127  CE1       31.2190  -44.1030   39.0020 C.ar  135  HIS135      0.1986
    128  NE2       32.4840  -44.0220   39.3780 N.ar  135  HIS135     -0.2212
    129  N         34.1060  -45.8900   32.1500 N.3   138  ARG138     -0.1231
    130  CA        32.9860  -45.0570   31.7240 C.3   138  ARG138      0.1694
    131  C         33.1280  -43.6010   32.1530 C.2   138  ARG138      0.2592
    132  O         32.9500  -42.6980   31.3420 O.2   138  ARG138     -0.2718
    133  CB        31.6660  -45.6440   32.2470 C.3   138  ARG138      0.0321
    134  CG        30.4280  -44.9460   31.6840 C.3   138  ARG138      0.0489
    135  CD        29.1450  -45.4570   32.3080 C.3   138  ARG138      0.2205
    136  NE        28.9160  -46.8650   32.0190 N.pl3 138  ARG138     -0.0865
    137  CZ        28.9850  -47.8460   32.9150 C.cat 138  ARG138      0.5346
    138  NH1       29.2760  -47.5930   34.1900 N.pl3 138  ARG138      0.1354
    139  NH2       28.7570  -49.0950   32.5290 N.pl3 138  ARG138      0.1354
    140  N         33.4550  -43.3640   33.4190 N.am  139  HIS139     -0.1976
    141  CA        33.6200  -41.9910   33.8920 C.3   139  HIS139      0.1656
    142  C         34.7140  -41.2350   33.1250 C.2   139  HIS139      0.2291
    143  O         34.5770  -40.0510   32.8200 O.2   139  HIS139     -0.2864
    144  CB        33.9600  -41.9820   35.3700 C.3   139  HIS139      0.0771
    145  CG        34.2360  -40.6140   35.9030 C.ar  139  HIS139      0.0820
    146  ND1       33.2980  -39.6020   35.8690 N.ar  139  HIS139     -0.2267
    147  CD2       35.3490  -40.0810   36.4610 C.ar  139  HIS139      0.1154
    148  CE1       33.8220  -38.5050   36.3880 C.ar  139  HIS139      0.1986
    149  NE2       35.0650  -38.7690   36.7540 N.ar  139  HIS139     -0.2212
    150  N         33.5260  -40.6330   29.7490 N.3   142  HIS142     -0.1241
    151  CA        32.5410  -39.5630   29.8210 C.3   142  HIS142      0.1621
    152  C         33.1670  -38.1670   29.9170 C.2   142  HIS142      0.2264
    153  O         32.6980  -37.2190   29.2920 O.2   142  HIS142     -0.2867
    154  CB        31.6070  -39.7930   31.0120 C.3   142  HIS142      0.0745
    155  CG        30.5730  -38.7250   31.1690 C.ar  142  HIS142      0.0817
    156  ND1       30.7550  -37.6260   31.9800 N.ar  142  HIS142     -0.2268
    157  CD2       29.3570  -38.5710   30.5900 C.ar  142  HIS142      0.1154
    158  CE1       29.6970  -36.8410   31.8950 C.ar  142  HIS142      0.1986
    159  NE2       28.8340  -37.3910   31.0590 N.ar  142  HIS142     -0.2212
    160  N         34.3930  -37.2190   26.6580 N.3   145  ALA145     -0.1231
    161  CA        33.3060  -36.8660   25.7590 C.3   145  ALA145      0.1694
    162  C         32.7440  -35.4700   25.9700 C.2   145  ALA145      0.2591
    163  O         32.0880  -34.9390   25.0750 O.2   145  ALA145     -0.2718
    164  CB        32.1880  -37.8950   25.8660 C.3   145  ALA145      0.0304
    165  N         33.0080  -34.8650   27.1300 N.am  146  VAL146     -0.1980
    166  CA        32.4790  -33.5310   27.4030 C.3   146  VAL146      0.1595
    167  C         33.4380  -32.5470   28.0640 C.2   146  VAL146      0.2287
    168  O         33.0130  -31.4670   28.4660 O.2   146  VAL146     -0.2864
    169  CB        31.1900  -33.6060   28.2770 C.3   146  VAL146      0.0276
    170  CG1       30.1810  -34.5650   27.6490 C.3   146  VAL146      0.0022
    171  CG2       31.5360  -34.0490   29.6900 C.3   146  VAL146      0.0022
@<TRIPOS>BOND
     1   163   162    2
     2   161   164    1
     3   161   162    1
     4   161   160    1
     5   162   165   am
     6   165   166    1
     7   166   167    1
     8   166   169    1
     9   170   169    1
    10   167   168    2
    11   169   171    1
    12   153   152    2
    13   150   151    1
    14   151   152    1
    15   151   154    1
    16   157   159   ar
    17   157   155   ar
    18   154   155    1
    19   159   158   ar
    20   155   156   ar
    21   132   131    2
    22   134   133    1
    23   134   135    1
    24   130   129    1
    25   130   131    1
    26   130   133    1
    27   158   156   ar
    28   136   135    1
    29   136   137    2
    30   131   140   am
    31   139   137    1
    32   143   142    2
    33   137   138    1
    34   142   141    1
    35   140   141    1
    36   141   144    1
    37    53    52    1
    38    63    62    1
    39   144   145    1
    40    64    62    1
    41   122   121    2
    42   119   120    1
    43    62    61    2
    44   146   145   ar
    45   146   148   ar
    46   145   147   ar
    47    43    42    1
    48    52    51    1
    49   121   120    1
    50    25    24   ar
    51    25    23   ar
    52    44    42    1
    53   120   123    1
    54   148   149   ar
    55    24    22   ar
    56   147   149   ar
    57    51    50    1
    58    42    41    1
    59    50    49    1
    60    61    60    1
    61    23    21   ar
    62    41    38    1
    63    59    60    1
    64    59    58    1
    65    22    21   ar
    66   113   112    2
    67   123   124    1
    68    48    47    2
    69   110   111    1
    70   111   112    1
    71   111   114    1
    72    21    20    1
    73    49    46    1
    74    35    36   ar
    75    35    33   ar
    76    47    46    1
    77    40    39    2
    78   124   125   ar
    79   124   126   ar
    80   125   127   ar
    81    58    55    1
    82    38    39    1
    83    38    37    1
    84    71    69    1
    85   118   117    1
    86    36    34   ar
    87   127   128   ar
    88   126   128   ar
    89    46    45    1
    90    33    31   ar
    91   114   115    1
    92   115   116    1
    93    70    69    1
    94    20    17    1
    95    37    28   am
    96    19    18    2
    97    69    66    1
    98    81    79   ar
    99    81    80   ar
   100    55    56    1
   101    55    54    1
   102    34    32   ar
   103   117   116    1
   104    79    77   ar
   105    18    17    1
   106    31    32   ar
   107    31    30    1
   108    56    57    2
   109    29    28    2
   110    28    27    1
   111    17    16    1
   112    80    78   ar
   113    66    65    1
   114    66    67    1
   115   109   107    1
   116    92    91    1
   117    30    27    1
   118    77    78   ar
   119    77    76    1
   120    27    26    1
   121    93    91    1
   122     6     5    1
   123    68    67    2
   124    16     9   am
   125    86    83    1
   126    91    88    1
   127   107   106    1
   128    76    73    1
   129    83    82    1
   130    83    84    1
   131    10     9    2
   132   108   106    1
   133    82    74   am
   134     9     8    1
   135     5     2    1
   136    74    75    2
   137    74    73    1
   138   106   103    1
   139    73    72    1
   140    88    89    1
   141    88    87    1
   142    85    84    2
   143    89    90    2
   144     4     3    2
   145     3     2    1
   146     3     7   am
   147     2     1    1
   148    15    13   ar
   149     8     7    1
   150     8    11    1
   151    12    11    1
   152    12    13    1
   153   103   102    1
   154   103   104    1
   155   101    99    1
   156    13    14   ar
   157   102    96   am
   158   105   104    2
   159    99    98    1
   160    99   100    1
   161    98    95    1
   162    96    97    2
   163    96    95    1
   164    95    94    1
