@<TRIPOS>MOLECULE
tmp/3qmnO03.pdb
 114 110 0 0 0
SMALL
GASTEIGER

@<TRIPOS>ATOM
      1  N         19.7290   -7.7540   86.9790 N.3    44  GLN44      -0.1245
      2  CA        20.9490   -7.1260   87.4950 C.3    44  GLN44       0.1566
      3  C         22.1040   -7.9540   86.9310 C.2    44  GLN44       0.2260
      4  O         22.9360   -8.4890   87.6590 O.2    44  GLN44      -0.2867
      5  CB        20.9210   -7.0660   89.0350 C.3    44  GLN44       0.0367
      6  CG        20.8690   -8.4100   89.7860 C.3    44  GLN44       0.0905
      7  CD        20.6590   -8.2350   91.3030 C.2    44  GLN44       0.2608
      8  OE1       21.3830   -8.8100   92.1170 O.2    44  GLN44      -0.2717
      9  NE2       19.7040   -7.3850   91.6760 N.am   44  GLN44      -0.0878
     10  N         25.2900   -9.9740   88.5790 N.3    48  PHE48      -0.1241
     11  CA        25.2580  -11.4290   88.4470 C.3    48  PHE48       0.1605
     12  C         26.5860  -11.9140   87.8610 C.2    48  PHE48       0.2264
     13  O         27.2500  -12.7900   88.4040 O.2    48  PHE48      -0.2867
     14  CB        24.1150  -11.7890   87.5060 C.3    48  PHE48       0.0534
     15  CG        23.9360  -13.2730   87.2540 C.ar   48  PHE48      -0.0203
     16  CD1       22.8730  -13.9600   87.8300 C.ar   48  PHE48      -0.0042
     17  CD2       24.8060  -13.9670   86.4130 C.ar   48  PHE48      -0.0042
     18  CE1       22.6900  -15.3260   87.5900 C.ar   48  PHE48      -0.0003
     19  CE2       24.6190  -15.3370   86.1730 C.ar   48  PHE48      -0.0003
     20  CZ        23.5640  -16.0060   86.7650 C.ar   48  PHE48      -0.0000
     21  N         29.8170  -11.5490   90.1060 N.3    51  LYS51      -0.1231
     22  CA        29.9040  -12.6440   91.0760 C.3    51  LYS51       0.1693
     23  C         30.4330  -13.9290   90.4530 C.2    51  LYS51       0.2591
     24  O         31.2760  -14.5750   91.0540 O.2    51  LYS51      -0.2718
     25  CB        28.5810  -12.8560   91.8040 C.3    51  LYS51       0.0285
     26  CG        28.3270  -11.7900   92.8490 C.3    51  LYS51       0.0035
     27  CD        27.0060  -11.9320   93.5800 C.3    51  LYS51       0.0206
     28  CE        25.8220  -11.7080   92.6460 C.3    51  LYS51       0.1093
     29  NZ        24.5330  -11.8860   93.3620 N.3    51  LYS51      -0.1314
     30  N         29.9600  -14.2930   89.2560 N.am   52  ARG52      -0.1980
     31  CA        30.4390  -15.4980   88.5870 C.3    52  ARG52       0.1597
     32  C         31.9000  -15.3480   88.1860 C.2    52  ARG52       0.2287
     33  O         32.7100  -16.2710   88.3030 O.2    52  ARG52      -0.2864
     34  CB        29.5920  -15.8030   87.3240 C.3    52  ARG52       0.0334
     35  CG        28.1320  -16.0910   87.6200 C.3    52  ARG52       0.0492
     36  CD        27.9700  -17.3280   88.4650 C.3    52  ARG52       0.2205
     37  NE        26.5890  -17.6010   88.8690 N.pl3  52  ARG52      -0.0865
     38  CZ        25.7520  -18.4440   88.2530 C.cat  52  ARG52       0.5346
     39  NH1       24.5290  -18.6130   88.7420 N.pl3  52  ARG52       0.1354
     40  NH2       26.1220  -19.1360   87.1710 N.pl3  52  ARG52       0.1354
     41  N         28.8010  -22.6540   88.0600 N.3    78  ILE78      -0.1245
     42  CA        28.3100  -22.2780   89.3810 C.3    78  ILE78       0.1561
     43  C         26.8250  -22.6060   89.4320 C.2    78  ILE78       0.2260
     44  O         26.0700  -22.2700   88.5170 O.2    78  ILE78      -0.2867
     45  CB        28.5470  -20.7830   89.7360 C.3    78  ILE78       0.0252
     46  CG1       30.0350  -20.4590   89.9870 C.3    78  ILE78       0.0019
     47  CG2       27.8130  -20.4170   91.0270 C.3    78  ILE78       0.0019
     48  CD1       30.9210  -20.5500   88.8230 C.3    78  ILE78       0.0001
     49  N         23.4870  -23.6770   92.5920 N.3    80  HIS80      -0.1241
     50  CA        23.1210  -23.4280   93.9860 C.3    80  HIS80       0.1621
     51  C         22.3060  -24.5420   94.6010 C.2    80  HIS80       0.2264
     52  O         21.6230  -25.2590   93.8770 O.2    80  HIS80      -0.2867
     53  CB        22.3020  -22.1420   94.0890 C.3    80  HIS80       0.0745
     54  CG        23.0550  -20.9280   93.6610 C.ar   80  HIS80       0.0817
     55  ND1       23.1330  -20.5330   92.3390 N.ar   80  HIS80      -0.2268
     56  CD2       23.7930  -20.0450   94.3690 C.ar   80  HIS80       0.1154
     57  CE1       23.8950  -19.4560   92.2600 C.ar   80  HIS80       0.1986
     58  NE2       24.2940  -19.1320   93.4750 N.ar   80  HIS80      -0.2212
     59  N         18.9080  -23.8030   99.4460 N.3    83  LEU83      -0.1231
     60  CA        18.9240  -22.7010  100.4020 C.3    83  LEU83       0.1693
     61  C         19.6850  -21.5030   99.8560 C.2    83  LEU83       0.2593
     62  O         19.7770  -20.4700  100.5220 O.2    83  LEU83      -0.2718
     63  CB        19.5430  -23.1390  101.7320 C.3    83  LEU83       0.0284
     64  CG        18.8560  -24.3250  102.4160 C.3    83  LEU83       0.0019
     65  CD1       19.4560  -24.6060  103.7970 C.3    83  LEU83       0.0001
     66  CD2       17.3660  -24.0460  102.5360 C.3    83  LEU83       0.0001
     67  N         20.2480  -21.6430   98.6580 N.am   84  GLY84      -0.1942
     68  CA        20.9920  -20.5620   98.0530 C.3    84  GLY84       0.2014
     69  C         22.4980  -20.6650   98.1210 C.2    84  GLY84       0.2639
     70  O         23.1780  -19.8160   97.5550 O.2    84  GLY84      -0.2714
     71  N         23.0340  -21.6860   98.8050 N.am   85  LYS85      -0.1963
     72  CA        24.4940  -21.8330   98.9130 C.3    85  LYS85       0.1713
     73  C         25.0690  -22.1130   97.5250 C.2    85  LYS85       0.2458
     74  O         24.5310  -22.9600   96.7910 O.2    85  LYS85      -0.2730
     75  CB        24.8640  -22.9550   99.8690 C.3    85  LYS85       0.0311
     76  CG        26.3370  -23.0840  100.0670 C.3    85  LYS85       0.0038
     77  CD        26.7400  -24.2310  100.9740 C.3    85  LYS85       0.0206
     78  CE        26.5570  -25.5460  100.2980 C.3    85  LYS85       0.1093
     79  NZ        26.9800  -26.6800  101.1650 N.3    85  LYS85      -0.1314
     80  N         26.1410  -21.3950   97.1310 N.am   86  PRO86      -0.2727
     81  CA        26.6800  -21.6350   95.7860 C.3    86  PRO86       0.1402
     82  C         27.5060  -22.9180   95.7550 C.2    86  PRO86       0.2269
     83  O         28.1600  -23.2620   96.7510 O.2    86  PRO86      -0.2865
     84  CB        27.5470  -20.3890   95.5230 C.3    86  PRO86       0.0296
     85  CG        27.9710  -19.9650   96.8540 C.3    86  PRO86       0.0237
     86  CD        26.8340  -20.2840   97.7970 C.3    86  PRO86       0.0939
     87  N         32.3910  -19.6700   98.3680 N.3   109  SER109     -0.1202
     88  CA        31.5860  -18.6450   98.9980 C.3   109  SER109      0.2020
     89  C         31.7550  -17.3800   98.1430 C.2   109  SER109      0.2619
     90  O         32.8360  -17.0920   97.6100 O.2   109  SER109     -0.2717
     91  CB        31.9260  -18.3450  100.4640 C.3   109  SER109      0.2103
     92  OG        30.9920  -17.3750  101.0030 O.3   109  SER109     -0.2182
     93  N         30.6590  -16.6490   98.0330 N.am  110  ILE110     -0.1965
     94  CA        30.5610  -15.4370   97.2770 C.3   110  ILE110      0.1727
     95  C         29.8320  -14.3810   98.0860 C.2   110  ILE110      0.2617
     96  O         28.8980  -14.6850   98.8350 O.2   110  ILE110     -0.2715
     97  CB        29.6780  -15.6780   96.0070 C.3   110  ILE110      0.0290
     98  CG1       30.2440  -16.7530   95.0770 C.3   110  ILE110      0.0022
     99  CG2       29.4470  -14.3760   95.2090 C.3   110  ILE110      0.0023
    100  CD1       29.2730  -17.1660   93.9210 C.3   110  ILE110      0.0001
    101  N         30.2450  -13.1310   97.9150 N.am  111  SER111     -0.1936
    102  CA        29.6040  -11.9920   98.5590 C.3   111  SER111      0.2055
    103  C         29.7070  -10.8150   97.6230 C.2   111  SER111      0.2643
    104  O         30.4810  -10.8270   96.6540 O.2   111  SER111     -0.2714
    105  CB        30.3190  -11.5960   99.8510 C.3   111  SER111      0.2130
    106  OG        29.7430  -10.4160  100.4220 O.3   111  SER111     -0.2179
    107  N         28.8720   -9.8270   97.8630 N.am  112  ASP112     -0.1971
    108  CA        28.9780   -8.5890   97.1260 C.3   112  ASP112      0.1709
    109  C         28.3960   -7.4600   97.9450 C.2   112  ASP112      0.2293
    110  O         27.6230   -7.6870   98.8800 O.2   112  ASP112     -0.2864
    111  CB        28.2830   -8.6240   95.7830 C.3   112  ASP112      0.1436
    112  CG        26.7790   -8.8800   95.9060 C.2   112  ASP112      0.3671
    113  OD1       26.3670   -9.9170   96.4780 O.co2 112  ASP112     -0.2456
    114  OD2       26.0180   -8.1000   95.3550 O.co2 112  ASP112     -0.2456
@<TRIPOS>BOND
     1    19    17   ar
     2    19    20   ar
     3    17    15   ar
     4    20    18   ar
     5     3     2    1
     6     3     4    2
     7     1     2    1
     8    40    38    1
     9    15    14    1
    10    15    16   ar
    11    34    35    1
    12    34    31    1
    13     2     5    1
    14    14    11    1
    15    18    16   ar
    16    35    36    1
    17    12    13    2
    18    12    11    1
    19    41    42    1
    20    32    33    2
    21    32    31    1
    22    38    39    1
    23    38    37    2
    24    11    10    1
    25    36    37    1
    26    44    43    2
    27    31    30    1
    28    48    46    1
    29     5     6    1
    30    30    23   am
    31    42    43    1
    32    42    45    1
    33    45    46    1
    34    45    47    1
    35     6     7    1
    36    21    22    1
    37    23    24    2
    38    23    22    1
    39    22    25    1
    40     7     9   am
    41     7     8    2
    42    25    26    1
    43    57    55   ar
    44    57    58   ar
    45    55    54   ar
    46    49    50    1
    47    28    29    1
    48    28    27    1
    49    26    27    1
    50    58    56   ar
    51    54    53    1
    52    54    56   ar
    53    52    51    2
    54   100    98    1
    55    50    53    1
    56    50    51    1
    57    98    97    1
    58    99    97    1
    59   114   112   ar
    60    84    81    1
    61    84    85    1
    62    82    81    1
    63    82    83    2
    64   111   112    1
    65   111   108    1
    66    81    80    1
    67   112   113   ar
    68    97    94    1
    69   104   103    2
    70    74    73    2
    71    85    86    1
    72   108   107    1
    73   108   109    1
    74    80    73   am
    75    80    86    1
    76    94    93    1
    77    94    95    1
    78    73    72    1
    79    70    69    2
    80    90    89    2
    81   103   107   am
    82   103   102    1
    83   101    95   am
    84   101   102    1
    85   109   110    2
    86    93    89   am
    87    68    69    1
    88    68    67    1
    89    95    96    2
    90    69    71   am
    91    89    88    1
    92    87    88    1
    93   102   105    1
    94    67    61   am
    95    71    72    1
    96    72    75    1
    97    88    91    1
    98    59    60    1
    99   105   106    1
   100    61    60    1
   101    61    62    2
   102    75    76    1
   103    76    77    1
   104    78    77    1
   105    78    79    1
   106    60    63    1
   107    91    92    1
   108    63    64    1
   109    64    66    1
   110    64    65    1
