@<TRIPOS>MOLECULE
tmp/3qmnO01.pdb
 128 122 0 0 0
SMALL
GASTEIGER

@<TRIPOS>ATOM
      1  N         43.6730  -23.0740   97.4890 N.3     5  LEU5       -0.1245
      2  CA        42.9820  -21.9320   98.0190 C.3     5  LEU5        0.1561
      3  C         43.0440  -20.8310   96.9420 C.2     5  LEU5        0.2260
      4  O         44.1220  -20.5390   96.4060 O.2     5  LEU5       -0.2867
      5  CB        43.6770  -21.4350   99.2900 C.3     5  LEU5        0.0270
      6  CG        43.2130  -20.1010   99.8620 C.3     5  LEU5        0.0019
      7  CD1       41.7450  -20.1560  100.2650 C.3     5  LEU5        0.0001
      8  CD2       44.1280  -19.7370  101.0640 C.3     5  LEU5        0.0001
      9  N         39.2570  -13.8620   94.9600 N.3     8  ASP8       -0.1225
     10  CA        39.2100  -12.8730   93.9080 C.3     8  ASP8        0.1805
     11  C         38.2300  -11.7710   94.2480 C.2     8  ASP8        0.2597
     12  O         37.2220  -12.0100   94.8990 O.2     8  ASP8       -0.2718
     13  CB        38.7140  -13.4790   92.6070 C.3     8  ASP8        0.1424
     14  CG        39.0050  -12.5930   91.4110 C.2     8  ASP8        0.3668
     15  OD1       40.1890  -12.3920   91.1470 O.co2   8  ASP8       -0.2456
     16  OD2       38.0680  -12.1800   90.6900 O.co2   8  ASP8       -0.2456
     17  N         38.5560  -10.5600   93.8120 N.am    9  ILE9       -0.1980
     18  CA        37.6780   -9.4080   94.0050 C.3     9  ILE9        0.1595
     19  C         37.4510   -8.8030   92.6160 C.2     9  ILE9        0.2287
     20  O         38.3830   -8.6860   91.8390 O.2     9  ILE9       -0.2864
     21  CB        38.2560   -8.3770   95.0300 C.3     9  ILE9        0.0276
     22  CG1       37.2690   -7.2060   95.2240 C.3     9  ILE9        0.0022
     23  CG2       39.6570   -7.8640   94.6120 C.3     9  ILE9        0.0022
     24  CD1       37.7560   -6.1920   96.2390 C.3     9  ILE9        0.0001
     25  N         30.7730  -10.8420   75.6260 N.3    26  PHE26      -0.1241
     26  CA        31.5380  -10.9000   76.8650 C.3    26  PHE26       0.1605
     27  C         30.9470  -11.9340   77.8250 C.2    26  PHE26       0.2264
     28  O         31.6740  -12.7880   78.3640 O.2    26  PHE26      -0.2867
     29  CB        31.6420   -9.5030   77.4780 C.3    26  PHE26       0.0534
     30  CG        32.2100   -9.4840   78.8550 C.ar   26  PHE26      -0.0203
     31  CD1       33.5180   -9.8830   79.0850 C.ar   26  PHE26      -0.0042
     32  CD2       31.4780   -8.9840   79.9070 C.ar   26  PHE26      -0.0042
     33  CE1       34.0490   -9.8450   80.3610 C.ar   26  PHE26      -0.0003
     34  CE2       32.0160   -8.9330   81.1820 C.ar   26  PHE26      -0.0003
     35  CZ        33.2950   -9.3700   81.4030 C.ar   26  PHE26      -0.0000
     36  N         31.8270  -15.5720   77.0600 N.3    29  ARG29      -0.1231
     37  CA        33.2010  -15.9960   77.2780 C.3    29  ARG29       0.1694
     38  C         33.3380  -16.5060   78.7130 C.2    29  ARG29       0.2591
     39  O         34.1070  -17.4180   78.9770 O.2    29  ARG29      -0.2718
     40  CB        34.1890  -14.8390   77.0860 C.3    29  ARG29       0.0321
     41  CG        34.2000  -14.2770   75.6780 C.3    29  ARG29       0.0489
     42  CD        35.3160  -13.2710   75.4870 C.3    29  ARG29       0.2205
     43  NE        35.3890  -12.8080   74.0990 N.pl3  29  ARG29      -0.0865
     44  CZ        36.3540  -12.0230   73.6200 C.cat  29  ARG29       0.5346
     45  NH1       37.3510  -11.6220   74.4110 N.pl3  29  ARG29       0.1354
     46  NH2       36.3420  -11.6540   72.3400 N.pl3  29  ARG29       0.1354
     47  N         32.5700  -15.9260   79.6240 N.am   30  ILE30      -0.1980
     48  CA        32.6450  -16.2760   81.0540 C.3    30  ILE30       0.1595
     49  C         31.6950  -17.3720   81.5170 C.2    30  ILE30       0.2287
     50  O         32.0760  -18.2200   82.3220 O.2    30  ILE30      -0.2864
     51  CB        32.3630  -15.0370   81.9300 C.3    30  ILE30       0.0276
     52  CG1       33.2360  -13.8400   81.5200 C.3    30  ILE30       0.0022
     53  CG2       32.4770  -15.3670   83.4280 C.3    30  ILE30       0.0022
     54  CD1       34.7160  -14.1300   81.4650 C.3    30  ILE30       0.0001
     55  N         32.2460  -14.1590   87.7190 N.3    53  PHE53      -0.1241
     56  CA        33.6020  -13.8870   87.3190 C.3    53  PHE53       0.1605
     57  C         34.5600  -14.0790   88.4960 C.2    53  PHE53       0.2264
     58  O         35.5800  -14.7630   88.3810 O.2    53  PHE53      -0.2867
     59  CB        33.6690  -12.4620   86.7800 C.3    53  PHE53       0.0534
     60  CG        34.9830  -12.1140   86.1780 C.ar   53  PHE53      -0.0203
     61  CD1       35.2120  -12.3360   84.8350 C.ar   53  PHE53      -0.0042
     62  CD2       35.9840  -11.5750   86.9470 C.ar   53  PHE53      -0.0042
     63  CE1       36.4120  -11.9940   84.2600 C.ar   53  PHE53      -0.0003
     64  CE2       37.1990  -11.2320   86.3800 C.ar   53  PHE53      -0.0003
     65  CZ        37.4130  -11.4450   85.0370 C.ar   53  PHE53      -0.0000
     66  N         37.4160  -17.0430   88.8250 N.3    57  GLU57      -0.1245
     67  CA        38.8200  -16.6800   88.9740 C.3    57  GLU57       0.1567
     68  C         39.3780  -17.2660   90.2680 C.2    57  GLU57       0.2260
     69  O         40.4980  -17.8130   90.2930 O.2    57  GLU57      -0.2867
     70  CB        39.0630  -15.1710   88.8800 C.3    57  GLU57       0.0388
     71  CG        38.7850  -14.6460   87.4700 C.3    57  GLU57       0.1160
     72  CD        39.6180  -13.4280   87.1180 C.2    57  GLU57       0.3649
     73  OE1       40.0590  -12.7060   88.0490 O.co2  57  GLU57      -0.2457
     74  OE2       39.8520  -13.2150   85.8960 O.co2  57  GLU57      -0.2457
     75  N         40.0000  -20.9220   89.7390 N.3    60  SER60      -0.1202
     76  CA        41.1710  -21.1670   88.8890 C.3    60  SER60       0.2020
     77  C         42.4600  -21.0050   89.6970 C.2    60  SER60       0.2618
     78  O         43.4660  -21.6930   89.4460 O.2    60  SER60      -0.2717
     79  CB        41.1640  -20.2600   87.6550 C.3    60  SER60       0.2103
     80  OG        41.5490  -18.9200   87.9460 O.3    60  SER60      -0.2182
     81  N         42.4420  -20.1190   90.6910 N.am   61  LYS61      -0.1979
     82  CA        43.6270  -19.9440   91.5340 C.3    61  LYS61       0.1596
     83  C         43.7490  -21.1130   92.5050 C.2    61  LYS61       0.2287
     84  O         44.8550  -21.5450   92.8210 O.2    61  LYS61      -0.2864
     85  CB        43.5900  -18.6310   92.3170 C.3    61  LYS61       0.0298
     86  CG        43.6350  -17.3940   91.4660 C.3    61  LYS61       0.0038
     87  CD        43.4800  -16.1410   92.3430 C.3    61  LYS61       0.0206
     88  CE        43.3310  -14.8920   91.4860 C.3    61  LYS61       0.1093
     89  NZ        43.2230  -13.6150   92.2740 N.3    61  LYS61      -0.1314
     90  N         45.6920  -23.7280   91.0910 N.3    64  GLY64      -0.1210
     91  CA        47.1070  -23.4640   90.9420 C.3    64  GLY64       0.1956
     92  C         47.5610  -23.0330   89.5660 C.2    64  GLY64       0.2613
     93  O         48.7470  -22.8340   89.3420 O.2    64  GLY64      -0.2717
     94  N         46.6110  -22.8150   88.6690 N.am   65  THR65      -0.1938
     95  CA        46.9120  -22.4260   87.2980 C.3    65  THR65       0.2028
     96  C         46.4010  -21.0670   86.8550 C.2    65  THR65       0.2643
     97  O         46.9970  -20.4290   85.9770 O.2    65  THR65      -0.2714
     98  CB        46.2200  -23.4170   86.3190 C.3    65  THR65       0.1808
     99  OG1       44.8020  -23.3740   86.5140 O.3    65  THR65      -0.2208
    100  CG2       46.7270  -24.8480   86.5320 C.3    65  THR65       0.0379
    101  N         45.3030  -20.6260   87.4540 N.am   66  GLY66      -0.1939
    102  CA        44.6620  -19.3850   87.0210 C.3    66  GLY66       0.2014
    103  C         43.9540  -19.7580   85.7230 C.2    66  GLY66       0.2639
    104  O         43.7830  -20.9520   85.4270 O.2    66  GLY66      -0.2714
    105  N         43.5340  -18.7560   84.9500 N.am   67  ILE67      -0.1963
    106  CA        42.8620  -18.9770   83.6770 C.3    67  ILE67       0.1727
    107  C         44.0150  -19.0130   82.6840 C.2    67  ILE67       0.2616
    108  O         44.3890  -18.0010   82.0880 O.2    67  ILE67      -0.2715
    109  CB        41.8340  -17.8660   83.3450 C.3    67  ILE67       0.0290
    110  CG1       40.7550  -17.7480   84.4400 C.3    67  ILE67       0.0022
    111  CG2       41.1510  -18.1480   82.0060 C.3    67  ILE67       0.0023
    112  CD1       39.7800  -18.9540   84.5440 C.3    67  ILE67       0.0001
    113  N         44.5930  -20.2060   82.5770 N.am   68  ALA68      -0.1977
    114  CA        45.7410  -20.4850   81.7460 C.3    68  ALA68       0.1597
    115  C         46.0140  -21.9840   81.8030 C.2    68  ALA68       0.2287
    116  O         45.3390  -22.7190   82.5190 O.2    68  ALA68      -0.2864
    117  CB        46.9540  -19.7150   82.2750 C.3    68  ALA68       0.0319
    118  N         37.2370  -20.3450   81.4520 N.3    73  PHE73      -0.1241
    119  CA        36.0640  -19.9960   82.2300 C.3    73  PHE73       0.1605
    120  C         34.9850  -21.0430   82.1100 C.2    73  PHE73       0.2264
    121  O         34.2270  -21.2700   83.0520 O.2    73  PHE73      -0.2867
    122  CB        35.5090  -18.6300   81.8400 C.3    73  PHE73       0.0534
    123  CG        36.2920  -17.4760   82.4130 C.ar   73  PHE73      -0.0203
    124  CD1       37.1820  -16.7470   81.6330 C.ar   73  PHE73      -0.0042
    125  CD2       36.1630  -17.1600   83.7410 C.ar   73  PHE73      -0.0042
    126  CE1       37.8980  -15.7060   82.1750 C.ar   73  PHE73      -0.0003
    127  CE2       36.8730  -16.1130   84.2930 C.ar   73  PHE73      -0.0003
    128  CZ        37.7360  -15.3790   83.5090 C.ar   73  PHE73      -0.0000
@<TRIPOS>BOND
     1    46    44    1
     2    44    43    2
     3    44    45    1
     4    43    42    1
     5    42    41    1
     6    25    26    1
     7    41    40    1
     8    26    29    1
     9    26    27    1
    10    36    37    1
    11    40    37    1
    12    37    38    1
    13    29    30    1
    14    27    28    2
    15    38    39    2
    16    38    47   am
    17    30    31   ar
    18    30    32   ar
    19    31    33   ar
    20    47    48    1
    21    32    34   ar
    22    33    35   ar
    23    48    49    1
    24    48    51    1
    25    34    35   ar
    26   118   119    1
    27    54    52    1
    28    49    50    2
    29    52    51    1
    30   124   126   ar
    31   124   123   ar
    32   114   115    1
    33   114   117    1
    34   114   113    1
    35   115   116    2
    36   122   119    1
    37   122   123    1
    38    51    53    1
    39   111   109    1
    40   108   107    2
    41   120   119    1
    42   120   121    2
    43   126   128   ar
    44   123   125   ar
    45   113   107   am
    46   107   106    1
    47   109   106    1
    48   109   110    1
    49   128   127   ar
    50   106   105    1
    51   125   127   ar
    52    63    61   ar
    53    63    65   ar
    54   110   112    1
    55    61    60   ar
    56   105   103   am
    57    65    64   ar
    58   104   103    2
    59   103   102    1
    60    74    72   ar
    61    97    96    2
    62    60    59    1
    63    60    62   ar
    64    98    99    1
    65    98   100    1
    66    98    95    1
    67    64    62   ar
    68    59    56    1
    69    96    95    1
    70    96   101   am
    71   102   101    1
    72    72    71    1
    73    72    73   ar
    74    95    94    1
    75    56    55    1
    76    56    57    1
    77    71    70    1
    78    79    80    1
    79    79    76    1
    80    58    57    2
    81    94    92   am
    82    66    67    1
    83    70    67    1
    84    76    77    1
    85    76    75    1
    86    67    68    1
    87    93    92    2
    88    78    77    2
    89    92    91    1
    90    77    81   am
    91    68    69    2
    92    16    14   ar
    93    81    82    1
    94    91    90    1
    95    15    14   ar
    96    14    13    1
    97    86    85    1
    98    86    87    1
    99    88    89    1
   100    88    87    1
   101    82    85    1
   102    82    83    1
   103    20    19    2
   104    83    84    2
   105    13    10    1
   106    19    18    1
   107    17    18    1
   108    17    11   am
   109    10    11    1
   110    10     9    1
   111    18    21    1
   112    11    12    2
   113    23    21    1
   114    21    22    1
   115    22    24    1
   116     4     3    2
   117     3     2    1
   118     1     2    1
   119     2     5    1
   120     5     6    1
   121     6     7    1
   122     6     8    1
