@<TRIPOS>MOLECULE
tmp/3qmnO00.pdb
 113 110 0 0 0
SMALL
GASTEIGER

@<TRIPOS>ATOM
      1  N         25.2900   -9.9740   88.5790 N.3    48  PHE48      -0.1241
      2  CA        25.2580  -11.4290   88.4470 C.3    48  PHE48       0.1605
      3  C         26.5860  -11.9140   87.8610 C.2    48  PHE48       0.2264
      4  O         27.2500  -12.7900   88.4040 O.2    48  PHE48      -0.2867
      5  CB        24.1150  -11.7890   87.5060 C.3    48  PHE48       0.0534
      6  CG        23.9360  -13.2730   87.2540 C.ar   48  PHE48      -0.0203
      7  CD1       22.8730  -13.9600   87.8300 C.ar   48  PHE48      -0.0042
      8  CD2       24.8060  -13.9670   86.4130 C.ar   48  PHE48      -0.0042
      9  CE1       22.6900  -15.3260   87.5900 C.ar   48  PHE48      -0.0003
     10  CE2       24.6190  -15.3370   86.1730 C.ar   48  PHE48      -0.0003
     11  CZ        23.5640  -16.0060   86.7650 C.ar   48  PHE48      -0.0000
     12  N         29.8170  -11.5490   90.1060 N.3    51  LYS51      -0.1231
     13  CA        29.9040  -12.6440   91.0760 C.3    51  LYS51       0.1693
     14  C         30.4330  -13.9290   90.4530 C.2    51  LYS51       0.2591
     15  O         31.2760  -14.5750   91.0540 O.2    51  LYS51      -0.2718
     16  CB        28.5810  -12.8560   91.8040 C.3    51  LYS51       0.0285
     17  CG        28.3270  -11.7900   92.8490 C.3    51  LYS51       0.0035
     18  CD        27.0060  -11.9320   93.5800 C.3    51  LYS51       0.0206
     19  CE        25.8220  -11.7080   92.6460 C.3    51  LYS51       0.1093
     20  NZ        24.5330  -11.8860   93.3620 N.3    51  LYS51      -0.1314
     21  N         29.9600  -14.2930   89.2560 N.am   52  ARG52      -0.1980
     22  CA        30.4390  -15.4980   88.5870 C.3    52  ARG52       0.1597
     23  C         31.9000  -15.3480   88.1860 C.2    52  ARG52       0.2287
     24  O         32.7100  -16.2710   88.3030 O.2    52  ARG52      -0.2864
     25  CB        29.5920  -15.8030   87.3240 C.3    52  ARG52       0.0334
     26  CG        28.1320  -16.0910   87.6200 C.3    52  ARG52       0.0492
     27  CD        27.9700  -17.3280   88.4650 C.3    52  ARG52       0.2205
     28  NE        26.5890  -17.6010   88.8690 N.pl3  52  ARG52      -0.0865
     29  CZ        25.7520  -18.4440   88.2530 C.cat  52  ARG52       0.5346
     30  NH1       24.5290  -18.6130   88.7420 N.pl3  52  ARG52       0.1354
     31  NH2       26.1220  -19.1360   87.1710 N.pl3  52  ARG52       0.1354
     32  N         28.8010  -22.6540   88.0600 N.3    78  ILE78      -0.1245
     33  CA        28.3100  -22.2780   89.3810 C.3    78  ILE78       0.1561
     34  C         26.8250  -22.6060   89.4320 C.2    78  ILE78       0.2260
     35  O         26.0700  -22.2700   88.5170 O.2    78  ILE78      -0.2867
     36  CB        28.5470  -20.7830   89.7360 C.3    78  ILE78       0.0252
     37  CG1       30.0350  -20.4590   89.9870 C.3    78  ILE78       0.0019
     38  CG2       27.8130  -20.4170   91.0270 C.3    78  ILE78       0.0019
     39  CD1       30.9210  -20.5500   88.8230 C.3    78  ILE78       0.0001
     40  N         23.4870  -23.6770   92.5920 N.3    80  HIS80      -0.1241
     41  CA        23.1210  -23.4280   93.9860 C.3    80  HIS80       0.1621
     42  C         22.3060  -24.5420   94.6010 C.2    80  HIS80       0.2264
     43  O         21.6230  -25.2590   93.8770 O.2    80  HIS80      -0.2867
     44  CB        22.3020  -22.1420   94.0890 C.3    80  HIS80       0.0745
     45  CG        23.0550  -20.9280   93.6610 C.ar   80  HIS80       0.0817
     46  ND1       23.1330  -20.5330   92.3390 N.ar   80  HIS80      -0.2268
     47  CD2       23.7930  -20.0450   94.3690 C.ar   80  HIS80       0.1154
     48  CE1       23.8950  -19.4560   92.2600 C.ar   80  HIS80       0.1986
     49  NE2       24.2940  -19.1320   93.4750 N.ar   80  HIS80      -0.2212
     50  N         18.9080  -23.8030   99.4460 N.3    83  LEU83      -0.1231
     51  CA        18.9240  -22.7010  100.4020 C.3    83  LEU83       0.1693
     52  C         19.6850  -21.5030   99.8560 C.2    83  LEU83       0.2593
     53  O         19.7770  -20.4700  100.5220 O.2    83  LEU83      -0.2718
     54  CB        19.5430  -23.1390  101.7320 C.3    83  LEU83       0.0284
     55  CG        18.8560  -24.3250  102.4160 C.3    83  LEU83       0.0019
     56  CD1       19.4560  -24.6060  103.7970 C.3    83  LEU83       0.0001
     57  CD2       17.3660  -24.0460  102.5360 C.3    83  LEU83       0.0001
     58  N         20.2480  -21.6430   98.6580 N.am   84  GLY84      -0.1942
     59  CA        20.9920  -20.5620   98.0530 C.3    84  GLY84       0.2014
     60  C         22.4980  -20.6650   98.1210 C.2    84  GLY84       0.2639
     61  O         23.1780  -19.8160   97.5550 O.2    84  GLY84      -0.2714
     62  N         23.0340  -21.6860   98.8050 N.am   85  LYS85      -0.1963
     63  CA        24.4940  -21.8330   98.9130 C.3    85  LYS85       0.1713
     64  C         25.0690  -22.1130   97.5250 C.2    85  LYS85       0.2458
     65  O         24.5310  -22.9600   96.7910 O.2    85  LYS85      -0.2730
     66  CB        24.8640  -22.9550   99.8690 C.3    85  LYS85       0.0311
     67  CG        26.3370  -23.0840  100.0670 C.3    85  LYS85       0.0038
     68  CD        26.7400  -24.2310  100.9740 C.3    85  LYS85       0.0206
     69  CE        26.5570  -25.5460  100.2980 C.3    85  LYS85       0.1093
     70  NZ        26.9800  -26.6800  101.1650 N.3    85  LYS85      -0.1314
     71  N         26.1410  -21.3950   97.1310 N.am   86  PRO86      -0.2727
     72  CA        26.6800  -21.6350   95.7860 C.3    86  PRO86       0.1402
     73  C         27.5060  -22.9180   95.7550 C.2    86  PRO86       0.2269
     74  O         28.1600  -23.2620   96.7510 O.2    86  PRO86      -0.2865
     75  CB        27.5470  -20.3890   95.5230 C.3    86  PRO86       0.0296
     76  CG        27.9710  -19.9650   96.8540 C.3    86  PRO86       0.0237
     77  CD        26.8340  -20.2840   97.7970 C.3    86  PRO86       0.0939
     78  N         32.9020  -23.1690   97.9740 N.3   108  LEU108     -0.1231
     79  CA        32.8150  -21.8580   97.3860 C.3   108  LEU108      0.1693
     80  C         31.9330  -20.9140   98.2050 C.2   108  LEU108      0.2593
     81  O         30.8660  -21.3060   98.7000 O.2   108  LEU108     -0.2718
     82  CB        32.1930  -21.9800   95.9640 C.3   108  LEU108      0.0284
     83  CG        31.7640  -20.6620   95.2530 C.3   108  LEU108      0.0019
     84  CD1       32.9430  -19.7050   94.9940 C.3   108  LEU108      0.0001
     85  CD2       30.9910  -20.9920   93.9370 C.3   108  LEU108      0.0001
     86  N         32.3910  -19.6700   98.3680 N.am  109  SER109     -0.1938
     87  CA        31.5860  -18.6450   98.9980 C.3   109  SER109      0.2055
     88  C         31.7550  -17.3800   98.1430 C.2   109  SER109      0.2643
     89  O         32.8360  -17.0920   97.6100 O.2   109  SER109     -0.2714
     90  CB        31.9260  -18.3450  100.4640 C.3   109  SER109      0.2130
     91  OG        30.9920  -17.3750  101.0030 O.3   109  SER109     -0.2179
     92  N         30.6590  -16.6490   98.0330 N.am  110  ILE110     -0.1963
     93  CA        30.5610  -15.4370   97.2770 C.3   110  ILE110      0.1727
     94  C         29.8320  -14.3810   98.0860 C.2   110  ILE110      0.2617
     95  O         28.8980  -14.6850   98.8350 O.2   110  ILE110     -0.2715
     96  CB        29.6780  -15.6780   96.0070 C.3   110  ILE110      0.0290
     97  CG1       30.2440  -16.7530   95.0770 C.3   110  ILE110      0.0022
     98  CG2       29.4470  -14.3760   95.2090 C.3   110  ILE110      0.0023
     99  CD1       29.2730  -17.1660   93.9210 C.3   110  ILE110      0.0001
    100  N         30.2450  -13.1310   97.9150 N.am  111  SER111     -0.1936
    101  CA        29.6040  -11.9920   98.5590 C.3   111  SER111      0.2055
    102  C         29.7070  -10.8150   97.6230 C.2   111  SER111      0.2643
    103  O         30.4810  -10.8270   96.6540 O.2   111  SER111     -0.2714
    104  CB        30.3190  -11.5960   99.8510 C.3   111  SER111      0.2130
    105  OG        29.7430  -10.4160  100.4220 O.3   111  SER111     -0.2179
    106  N         28.8720   -9.8270   97.8630 N.am  112  ASP112     -0.1971
    107  CA        28.9780   -8.5890   97.1260 C.3   112  ASP112      0.1709
    108  C         28.3960   -7.4600   97.9450 C.2   112  ASP112      0.2293
    109  O         27.6230   -7.6870   98.8800 O.2   112  ASP112     -0.2864
    110  CB        28.2830   -8.6240   95.7830 C.3   112  ASP112      0.1436
    111  CG        26.7790   -8.8800   95.9060 C.2   112  ASP112      0.3671
    112  OD1       26.3670   -9.9170   96.4780 O.co2 112  ASP112     -0.2456
    113  OD2       26.0180   -8.1000   95.3550 O.co2 112  ASP112     -0.2456
@<TRIPOS>BOND
     1    10     8   ar
     2    10    11   ar
     3     8     6   ar
     4    11     9   ar
     5    31    29    1
     6     6     5    1
     7     6     7   ar
     8    25    26    1
     9    25    22    1
    10     5     2    1
    11     9     7   ar
    12    26    27    1
    13     3     4    2
    14     3     2    1
    15    32    33    1
    16    23    24    2
    17    23    22    1
    18    29    30    1
    19    29    28    2
    20     2     1    1
    21    27    28    1
    22    35    34    2
    23    22    21    1
    24    39    37    1
    25    21    14   am
    26    33    34    1
    27    33    36    1
    28    36    37    1
    29    36    38    1
    30    12    13    1
    31    14    15    2
    32    14    13    1
    33    13    16    1
    34    16    17    1
    35    48    46   ar
    36    48    49   ar
    37    46    45   ar
    38    40    41    1
    39    19    20    1
    40    19    18    1
    41    17    18    1
    42    49    47   ar
    43    45    44    1
    44    45    47   ar
    45    43    42    2
    46    99    97    1
    47    85    83    1
    48    41    44    1
    49    41    42    1
    50    84    83    1
    51    97    96    1
    52    98    96    1
    53    83    82    1
    54   113   111   ar
    55    75    72    1
    56    75    76    1
    57    73    72    1
    58    73    74    2
    59   110   111    1
    60   110   107    1
    61    72    71    1
    62   111   112   ar
    63    82    79    1
    64    96    93    1
    65   103   102    2
    66    65    64    2
    67    76    77    1
    68   107   106    1
    69   107   108    1
    70    71    64   am
    71    71    77    1
    72    93    92    1
    73    93    94    1
    74    79    78    1
    75    79    80    1
    76    64    63    1
    77    61    60    2
    78    89    88    2
    79   102   106   am
    80   102   101    1
    81   100    94   am
    82   100   101    1
    83   108   109    2
    84    92    88   am
    85    59    60    1
    86    59    58    1
    87    94    95    2
    88    60    62   am
    89    88    87    1
    90    80    86   am
    91    80    81    2
    92    86    87    1
    93   101   104    1
    94    58    52   am
    95    62    63    1
    96    63    66    1
    97    87    90    1
    98    50    51    1
    99   104   105    1
   100    52    51    1
   101    52    53    2
   102    66    67    1
   103    67    68    1
   104    69    68    1
   105    69    70    1
   106    51    54    1
   107    90    91    1
   108    54    55    1
   109    55    57    1
   110    55    56    1
