@<TRIPOS>MOLECULE
tmp/3qmoA01.pdb
 192 184 0 0 0
SMALL
GASTEIGER

@<TRIPOS>ATOM
      1  N         50.0020   55.8220   72.2150 N.3    58  HIS58      -0.1241
      2  CA        48.7130   56.0150   72.8990 C.3    58  HIS58       0.1621
      3  C         48.7520   57.2170   73.8440 C.2    58  HIS58       0.2264
      4  O         47.9070   58.1130   73.7520 O.2    58  HIS58      -0.2867
      5  CB        48.2670   54.7490   73.6430 C.3    58  HIS58       0.0745
      6  CG        46.9030   54.8570   74.2550 C.ar   58  HIS58       0.0817
      7  ND1       46.7000   54.9610   75.6160 N.ar   58  HIS58      -0.2268
      8  CD2       45.6720   54.8880   73.6910 C.ar   58  HIS58       0.1154
      9  CE1       45.4050   55.0450   75.8660 C.ar   58  HIS58       0.1986
     10  NE2       44.7580   55.0010   74.7140 N.ar   58  HIS58      -0.2212
     11  N         47.6230   56.8050   60.8850 N.3    85  VAL85      -0.1245
     12  CA        46.7630   55.8860   61.6450 C.3    85  VAL85       0.1561
     13  C         46.1960   54.8040   60.7210 C.2    85  VAL85       0.2260
     14  O         46.3020   53.6190   61.0220 O.2    85  VAL85      -0.2867
     15  CB        45.6100   56.6380   62.3920 C.3    85  VAL85       0.0252
     16  CG1       44.6210   55.6620   63.0360 C.3    85  VAL85       0.0019
     17  CG2       46.1760   57.5820   63.4450 C.3    85  VAL85       0.0019
     18  N         48.0060   50.7000   60.8030 N.3    89  ARG89      -0.1245
     19  CA        47.0510   49.6630   61.2110 C.3    89  ARG89       0.1563
     20  C         46.7950   48.6570   60.0800 C.2    89  ARG89       0.2260
     21  O         46.7480   47.4450   60.3030 O.2    89  ARG89      -0.2867
     22  CB        45.7090   50.2880   61.6310 C.3    89  ARG89       0.0307
     23  CG        45.7560   51.2220   62.8260 C.3    89  ARG89       0.0489
     24  CD        46.1260   50.4970   64.0850 C.3    89  ARG89       0.2205
     25  NE        46.0810   51.3730   65.2450 N.pl3  89  ARG89      -0.0865
     26  CZ        46.5960   51.0580   66.4270 C.cat  89  ARG89       0.5346
     27  NH1       47.1970   49.8930   66.6080 N.pl3  89  ARG89       0.1354
     28  NH2       46.5130   51.9100   67.4300 N.pl3  89  ARG89       0.1354
     29  N         35.8930   55.3790   81.2730 N.3   161  GLN161     -0.1245
     30  CA        35.7350   56.2990   80.1480 C.3   161  GLN161      0.1566
     31  C         34.2960   56.7980   80.0410 C.2   161  GLN161      0.2260
     32  O         34.0140   57.7140   79.2700 O.2   161  GLN161     -0.2867
     33  CB        36.1750   55.6590   78.8220 C.3   161  GLN161      0.0367
     34  CG        37.6860   55.5210   78.6690 C.3   161  GLN161      0.0905
     35  CD        38.1030   54.9210   77.3360 C.2   161  GLN161      0.2608
     36  OE1       38.5710   53.7750   77.2680 O.2   161  GLN161     -0.2717
     37  NE2       37.9440   55.6990   76.2630 N.am  161  GLN161     -0.0878
     38  N         32.0270   56.7470   67.3300 N.3   317  TYR317     -0.1227
     39  CA        32.1670   55.4660   68.0140 C.3   317  TYR317      0.1736
     40  C         33.6230   55.1230   68.3170 C.2   317  TYR317      0.2595
     41  O         33.9750   54.8300   69.4590 O.2   317  TYR317     -0.2718
     42  CB        31.4990   54.3920   67.1710 C.3   317  TYR317      0.0548
     43  CG        31.6360   52.9750   67.6500 C.ar  317  TYR317     -0.0200
     44  CD1       30.7740   52.4580   68.6030 C.ar  317  TYR317     -0.0009
     45  CD2       32.5820   52.1260   67.0880 C.ar  317  TYR317     -0.0009
     46  CE1       30.8770   51.1370   69.0140 C.ar  317  TYR317      0.0417
     47  CE2       32.6970   50.8190   67.4840 C.ar  317  TYR317      0.0417
     48  CZ        31.8450   50.3260   68.4480 C.ar  317  TYR317      0.1957
     49  OH        31.9630   49.0150   68.8520 O.3   317  TYR317     -0.2866
     50  N         34.4730   55.1760   67.2980 N.am  318  VAL318     -0.1980
     51  CA        35.8680   54.8300   67.5010 C.3   318  VAL318      0.1595
     52  C         36.4990   55.9460   68.3050 C.2   318  VAL318      0.2287
     53  O         37.1940   55.6820   69.2940 O.2   318  VAL318     -0.2864
     54  CB        36.6140   54.5590   66.1930 C.3   318  VAL318      0.0276
     55  CG1       38.1050   54.3710   66.4740 C.3   318  VAL318      0.0022
     56  CG2       36.0220   53.3270   65.5030 C.3   318  VAL318      0.0022
     57  N         35.8910   55.5050   71.9040 N.3   321  LEU321     -0.1231
     58  CA        36.7120   54.4160   72.4190 C.3   321  LEU321      0.1693
     59  C         38.1700   54.8490   72.6070 C.2   321  LEU321      0.2592
     60  O         38.7930   54.5620   73.6420 O.2   321  LEU321     -0.2718
     61  CB        36.6160   53.1860   71.5100 C.3   321  LEU321      0.0284
     62  CG        35.4130   52.2920   71.7790 C.3   321  LEU321      0.0019
     63  CD1       35.3950   51.1470   70.7970 C.3   321  LEU321      0.0001
     64  CD2       35.4280   51.7720   73.2140 C.3   321  LEU321      0.0001
     65  N         38.6910   55.5720   71.6160 N.am  322  SER322     -0.1952
     66  CA        40.1000   55.9220   71.5850 C.3   322  SER322      0.1924
     67  C         40.5220   56.7100   72.8170 C.2   322  SER322      0.2314
     68  O         41.5650   56.4300   73.4080 O.2   322  SER322     -0.2863
     69  CB        40.4530   56.6650   70.2940 C.3   322  SER322      0.2116
     70  OG        39.9060   57.9630   70.2420 O.3   322  SER322     -0.2180
     71  N         41.2820   59.6570   72.5240 N.3   324  TYR324     -0.1241
     72  CA        42.2220   60.6000   71.9020 C.3   324  TYR324      0.1605
     73  C         41.7550   62.0370   71.9790 C.2   324  TYR324      0.2264
     74  O         40.5690   62.2960   71.9900 O.2   324  TYR324     -0.2867
     75  CB        42.4200   60.2790   70.4150 C.3   324  TYR324      0.0534
     76  CG        43.0760   58.9580   70.0750 C.ar  324  TYR324     -0.0201
     77  CD1       43.6190   58.1270   71.0610 C.ar  324  TYR324     -0.0009
     78  CD2       43.1840   58.5560   68.7470 C.ar  324  TYR324     -0.0009
     79  CE1       44.2290   56.9110   70.7270 C.ar  324  TYR324      0.0417
     80  CE2       43.7930   57.3420   68.4000 C.ar  324  TYR324      0.0417
     81  CZ        44.3110   56.5270   69.3890 C.ar  324  TYR324      0.1957
     82  OH        44.9010   55.3380   69.0310 O.3   324  TYR324     -0.2866
     83  N         39.6860   61.9840   64.8210 N.3   328  LEU328     -0.1245
     84  CA        39.7150   61.0750   63.6800 C.3   328  LEU328      0.1561
     85  C         38.8330   61.5860   62.5550 C.2   328  LEU328      0.2260
     86  O         37.8680   62.3140   62.8030 O.2   328  LEU328     -0.2867
     87  CB        39.2490   59.6960   64.1070 C.3   328  LEU328      0.0270
     88  CG        39.9720   59.0950   65.3010 C.3   328  LEU328      0.0019
     89  CD1       39.1260   57.9810   65.9060 C.3   328  LEU328      0.0001
     90  CD2       41.3690   58.5990   64.9120 C.3   328  LEU328      0.0001
     91  N         37.3590   38.8490   69.8920 N.3   353  LEU353     -0.1231
     92  CA        37.7440   39.9980   70.7080 C.3   353  LEU353      0.1693
     93  C         36.5950   40.9870   70.8880 C.2   353  LEU353      0.2592
     94  O         36.6500   41.8570   71.7610 O.2   353  LEU353     -0.2718
     95  CB        38.9860   40.6970   70.1360 C.3   353  LEU353      0.0284
     96  CG        38.8830   41.4740   68.8280 C.3   353  LEU353      0.0019
     97  CD1       38.3460   42.8600   69.0600 C.3   353  LEU353      0.0001
     98  CD2       40.2530   41.5760   68.2280 C.3   353  LEU353      0.0001
     99  N         35.5580   40.8490   70.0640 N.am  354  TYR354     -0.1976
    100  CA        34.4560   41.7870   70.1080 C.3   354  TYR354      0.1639
    101  C         33.3320   41.3300   71.0230 C.2   354  TYR354      0.2290
    102  O         32.2790   41.9490   71.0520 O.2   354  TYR354     -0.2864
    103  CB        33.9260   42.0400   68.7100 C.3   354  TYR354      0.0560
    104  CG        33.8810   43.5060   68.3200 C.ar  354  TYR354     -0.0198
    105  CD1       34.6130   43.9690   67.2250 C.ar  354  TYR354     -0.0009
    106  CD2       33.1170   44.4320   69.0370 C.ar  354  TYR354     -0.0009
    107  CE1       34.5760   45.3050   66.8360 C.ar  354  TYR354      0.0417
    108  CE2       33.0830   45.7750   68.6590 C.ar  354  TYR354      0.0417
    109  CZ        33.8180   46.2020   67.5530 C.ar  354  TYR354      0.1957
    110  OH        33.8130   47.5250   67.1500 O.3   354  TYR354     -0.2866
    111  N         32.1510   41.8160   73.9420 N.3   356  TRP356     -0.1241
    112  CA        32.2890   42.8090   74.9890 C.3   356  TRP356      0.1605
    113  C         31.1480   42.7690   75.9700 C.2   356  TRP356      0.2264
    114  O         30.5490   43.7980   76.2580 O.2   356  TRP356     -0.2867
    115  CB        32.3430   44.2040   74.3770 C.3   356  TRP356      0.0550
    116  CG        33.5560   44.4480   73.5570 C.ar  356  TRP356      0.0003
    117  CD1       34.6710   43.6540   73.4720 C.ar  356  TRP356      0.0946
    118  CD2       33.8050   45.5850   72.7290 C.ar  356  TRP356      0.0152
    119  NE1       35.5870   44.2210   72.6240 N.ar  356  TRP356     -0.2442
    120  CE2       35.0880   45.4080   72.1540 C.ar  356  TRP356      0.0810
    121  CE3       33.0710   46.7400   72.4170 C.ar  356  TRP356      0.0012
    122  CZ2       35.6590   46.3500   71.2710 C.ar  356  TRP356      0.0191
    123  CZ3       33.6370   47.6820   71.5340 C.ar  356  TRP356      0.0001
    124  CH2       34.9220   47.4790   70.9740 C.ar  356  TRP356      0.0015
    125  N         44.7220   50.2810   79.8750 N.3   482  ARG482     -0.1245
    126  CA        45.4040   51.5650   79.8090 C.3   482  ARG482      0.1563
    127  C         44.8140   52.4440   80.9080 C.2   482  ARG482      0.2260
    128  O         43.6710   52.2190   81.3300 O.2   482  ARG482     -0.2867
    129  CB        45.2280   52.2100   78.4370 C.3   482  ARG482      0.0307
    130  CG        46.3470   51.9090   77.4630 C.3   482  ARG482      0.0489
    131  CD        46.2610   50.5300   76.8090 C.3   482  ARG482      0.2205
    132  NE        47.3490   50.3250   75.8480 N.pl3 482  ARG482     -0.0865
    133  CZ        47.2950   50.6490   74.5580 C.cat 482  ARG482      0.5346
    134  NH1       46.2060   51.2000   74.0310 N.pl3 482  ARG482      0.1354
    135  NH2       48.3370   50.4230   73.7790 N.pl3 482  ARG482      0.1354
    136  N         39.0080   51.7200   78.9280 N.3   486  ILE486     -0.1231
    137  CA        38.0580   50.6190   78.9170 C.3   486  ILE486      0.1692
    138  C         38.7230   49.3150   78.5240 C.2   486  ILE486      0.2592
    139  O         38.3020   48.2560   78.9740 O.2   486  ILE486     -0.2718
    140  CB        36.8170   50.9190   78.0200 C.3   486  ILE486      0.0266
    141  CG1       35.7260   49.8780   78.2560 C.3   486  ILE486      0.0019
    142  CG2       37.1860   51.0300   76.5360 C.3   486  ILE486      0.0020
    143  CD1       34.4390   50.1700   77.5480 C.3   486  ILE486      0.0001
    144  N         39.7650   49.4020   77.7000 N.am  487  PHE487     -0.1976
    145  CA        40.4340   48.2240   77.1660 C.3   487  PHE487      0.1639
    146  C         41.8720   48.1590   77.5960 C.2   487  PHE487      0.2290
    147  O         42.4660   49.1710   77.9600 O.2   487  PHE487     -0.2864
    148  CB        40.4460   48.2560   75.6450 C.3   487  PHE487      0.0560
    149  CG        39.0950   48.2570   75.0200 C.ar  487  PHE487     -0.0200
    150  CD1       38.0600   47.4760   75.5420 C.ar  487  PHE487     -0.0042
    151  CD2       38.8600   49.0100   73.8720 C.ar  487  PHE487     -0.0042
    152  CE1       36.8000   47.4720   74.9420 C.ar  487  PHE487     -0.0003
    153  CE2       37.6030   48.9960   73.2610 C.ar  487  PHE487     -0.0003
    154  CZ        36.5730   48.2340   73.8030 C.ar  487  PHE487     -0.0000
    155  N         43.6550   44.1920   73.2110 N.3   491  MET491     -0.1230
    156  CA        42.3480   44.5110   72.6670 C.3   491  MET491      0.1702
    157  C         42.3870   45.5730   71.5650 C.2   491  MET491      0.2592
    158  O         41.7710   45.3920   70.5160 O.2   491  MET491     -0.2718
    159  CB        41.4220   44.9540   73.7940 C.3   491  MET491      0.0401
    160  CG        40.0270   45.3140   73.3320 C.3   491  MET491      0.0596
    161  SD        39.0380   43.8770   72.8750 S.3   491  MET491     -0.1393
    162  CE        38.5430   43.2480   74.4920 C.3   491  MET491      0.0692
    163  N         43.1040   46.6650   71.8090 N.am  492  VAL492     -0.1980
    164  CA        43.2020   47.7520   70.8460 C.3   492  VAL492      0.1595
    165  C         44.1000   47.3600   69.6880 C.2   492  VAL492      0.2287
    166  O         43.7350   47.5190   68.5300 O.2   492  VAL492     -0.2864
    167  CB        43.7300   49.0490   71.4920 C.3   492  VAL492      0.0276
    168  CG1       44.0530   50.0850   70.4420 C.3   492  VAL492      0.0022
    169  CG2       42.7150   49.6030   72.4570 C.3   492  VAL492      0.0022
    170  N         42.4400   44.7650   67.6260 N.3   495  GLY495     -0.1210
    171  CA        41.1280   45.2290   67.1900 C.3   495  GLY495      0.1956
    172  C         41.1300   46.3320   66.1630 C.2   495  GLY495      0.2611
    173  O         40.4040   46.2600   65.1620 O.2   495  GLY495     -0.2717
    174  N         41.9400   47.3540   66.4080 N.am  496  ALA496     -0.1979
    175  CA        42.0030   48.4920   65.5030 C.3   496  ALA496      0.1597
    176  C         42.2810   48.1210   64.0300 C.2   496  ALA496      0.2287
    177  O         41.5970   48.6620   63.1430 O.2   496  ALA496     -0.2864
    178  CB        42.9780   49.5150   65.9990 C.3   496  ALA496      0.0319
    179  N         39.1920   46.5420   62.5070 N.3   499  SER499     -0.1202
    180  CA        38.1530   47.5410   62.4820 C.3   499  SER499      0.2020
    181  C         38.3020   48.4820   61.2900 C.2   499  SER499      0.2618
    182  O         37.3740   48.6300   60.4880 O.2   499  SER499     -0.2717
    183  CB        38.1840   48.3240   63.7810 C.3   499  SER499      0.2103
    184  OG        37.5060   49.5450   63.6130 O.3   499  SER499     -0.2182
    185  N         39.4750   49.1040   61.1730 N.am  500  LEU500     -0.1979
    186  CA        39.7340   50.0840   60.1260 C.3   500  LEU500      0.1596
    187  C         39.6570   49.4930   58.7280 C.2   500  LEU500      0.2287
    188  O         39.1740   50.1420   57.8010 O.2   500  LEU500     -0.2864
    189  CB        41.0970   50.7300   60.3330 C.3   500  LEU500      0.0297
    190  CG        41.2810   51.7150   61.4800 C.3   500  LEU500      0.0022
    191  CD1       42.5500   52.4730   61.2100 C.3   500  LEU500      0.0001
    192  CD2       40.1260   52.6930   61.5930 C.3   500  LEU500      0.0001
@<TRIPOS>BOND
     1   188   187    2
     2   187   186    1
     3    20    21    2
     4    20    19    1
     5   186   189    1
     6   186   185    1
     7   189   190    1
     8   182   181    2
     9    13    14    2
    10    13    12    1
    11    18    19    1
    12    11    12    1
    13   185   181   am
    14   191   190    1
    15    19    22    1
    16   181   180    1
    17   190   192    1
    18    22    23    1
    19    12    15    1
    20    15    16    1
    21    15    17    1
    22   180   179    1
    23   180   183    1
    24    85    86    2
    25    85    84    1
    26    23    24    1
    27   177   176    2
    28   184   183    1
    29    84    87    1
    30    84    83    1
    31   176   175    1
    32    24    25    1
    33    87    88    1
    34    90    88    1
    35   173   172    2
    36    25    26    2
    37    88    89    1
    38    56    54    1
    39   175   178    1
    40   175   174    1
    41   172   174   am
    42   172   171    1
    43    54    55    1
    44    54    51    1
    45    26    27    1
    46    26    28    1
    47   107   105   ar
    48   107   109   ar
    49    45    47   ar
    50    45    43   ar
    51   110   109    1
    52    42    43    1
    53    42    39    1
    54   171   170    1
    55   105   104   ar
    56    50    51    1
    57    50    40   am
    58    38    39    1
    59    47    48   ar
    60    51    52    1
    61   109   108   ar
    62    43    44   ar
    63    39    40    1
    64    98    96    1
    65    52    53    2
    66    40    41    2
    67   104   103    1
    68   104   106   ar
    69    80    78   ar
    70    80    81   ar
    71    48    49    1
    72    48    46   ar
    73   166   165    2
    74    44    46   ar
    75   108   106   ar
    76   103   100    1
    77    78    76   ar
    78    96    97    1
    79    96    95    1
    80    82    81    1
    81    81    79   ar
    82   165   164    1
    83    91    92    1
    84    99   100    1
    85    99    93   am
    86    76    75    1
    87    76    77   ar
    88   100   101    1
    89    95    92    1
    90    70    69    1
    91    69    66    1
    92    75    72    1
    93   168   167    1
    94   158   157    2
    95    92    93    1
    96    79    77   ar
    97    63    62    1
    98   164   167    1
    99   164   163    1
   100    93    94    2
   101   124   122   ar
   102   124   123   ar
   103   101   102    2
   104   122   120   ar
   105   167   169    1
   106    61    62    1
   107    61    58    1
   108   123   121   ar
   109   157   163   am
   110   157   156    1
   111    66    65    1
   112    66    67    1
   113    65    59   am
   114    62    64    1
   115    72    73    1
   116    72    71    1
   117    57    58    1
   118    73    74    2
   119   120   119   ar
   120   120   118   ar
   121     1     2    1
   122   121   118   ar
   123    58    59    1
   124    59    60    2
   125   119   117   ar
   126   156   155    1
   127   156   159    1
   128   118   116   ar
   129    67    68    2
   130   161   160    1
   131   161   162    1
   132     2     5    1
   133     2     3    1
   134   153   154   ar
   135   153   151   ar
   136   160   159    1
   137   117   116   ar
   138   116   115    1
   139     5     6    1
   140     8     6   ar
   141     8    10   ar
   142     4     3    2
   143   135   133    1
   144   154   152   ar
   145   151   149   ar
   146   111   112    1
   147   134   133    1
   148     6     7   ar
   149   115   112    1
   150   133   132    2
   151    10     9   ar
   152   152   150   ar
   153   112   113    1
   154   149   150   ar
   155   149   148    1
   156     7     9   ar
   157   148   145    1
   158   132   131    1
   159   113   114    2
   160    37    35   am
   161   142   140    1
   162   131   130    1
   163   145   146    1
   164   145   144    1
   165    36    35    2
   166    35    34    1
   167   130   129    1
   168   143   141    1
   169   146   147    2
   170   144   138   am
   171   140   141    1
   172   140   137    1
   173   129   126    1
   174   138   137    1
   175   138   139    2
   176    34    33    1
   177    33    30    1
   178   137   136    1
   179    32    31    2
   180   126   125    1
   181   126   127    1
   182    31    30    1
   183    30    29    1
   184   127   128    2
