@<TRIPOS>MOLECULE
tmp/3qmwB00.pdb
 145 134 0 0 0
SMALL
GASTEIGER

@<TRIPOS>ATOM
      1  N        -36.7310  -10.4730   12.5170 N.3    26  ALA26      -0.1245
      2  CA       -37.0910  -11.0310   11.2060 C.3    26  ALA26       0.1562
      3  C        -37.7700  -12.3730   11.4460 C.2    26  ALA26       0.2260
      4  O        -37.2880  -13.1920   12.2040 O.2    26  ALA26      -0.2867
      5  CB       -35.8760  -11.1950   10.3130 C.3    26  ALA26       0.0290
      6  N        -32.9560   -6.9420   16.5850 N.3    92  SER92      -0.1202
      7  CA       -32.3800   -7.4090   15.3370 C.3    92  SER92       0.2020
      8  C        -32.9780   -6.5920   14.2000 C.2    92  SER92       0.2618
      9  O        -32.8710   -5.3690   14.2200 O.2    92  SER92      -0.2717
     10  CB       -32.6000   -8.9220   15.1810 C.3    92  SER92       0.2103
     11  OG       -31.8030   -9.4780   14.1370 O.3    92  SER92      -0.2182
     12  N        -33.6120   -7.2360   13.2250 N.am   93  MET93      -0.1979
     13  CA       -34.2690   -6.5010   12.1170 C.3    93  MET93       0.1605
     14  C        -35.1610   -5.3540   12.6360 C.2    93  MET93       0.2287
     15  O        -35.1350   -4.2460   12.0920 O.2    93  MET93      -0.2864
     16  CB       -35.0560   -7.4910   11.2540 C.3    93  MET93       0.0413
     17  CG       -36.0200   -6.9110   10.2300 C.3    93  MET93       0.0598
     18  SD       -37.7770   -6.9390   10.7530 S.3    93  MET93      -0.1393
     19  CE       -38.5860   -6.8200    9.1340 C.3    93  MET93       0.0692
     20  N        -26.6730   -4.9890   14.4600 N.3   122  ARG122     -0.1245
     21  CA       -25.6350   -4.0900   13.9780 C.3   122  ARG122      0.1563
     22  C        -26.2090   -2.7030   13.6300 C.2   122  ARG122      0.2260
     23  O        -27.4300   -2.4960   13.5410 O.2   122  ARG122     -0.2867
     24  CB       -24.9350   -4.6950   12.7790 C.3   122  ARG122      0.0307
     25  CG       -25.8120   -4.7890   11.5640 C.3   122  ARG122      0.0489
     26  CD       -25.2380   -5.7360   10.5670 C.3   122  ARG122      0.2205
     27  NE       -25.2230   -7.1150   11.0410 N.pl3 122  ARG122     -0.0865
     28  CZ       -24.5080   -8.0930   10.4830 C.cat 122  ARG122      0.5346
     29  NH1      -23.7640   -7.8470    9.4100 N.pl3 122  ARG122      0.1354
     30  NH2      -24.5470   -9.3290   10.9780 N.pl3 122  ARG122      0.1354
     31  N        -25.5710   -2.9380    7.6970 N.3   127  TYR127     -0.1241
     32  CA       -26.4670   -3.7650    6.8930 C.3   127  TYR127      0.1605
     33  C        -26.1700   -3.5410    5.3970 C.2   127  TYR127      0.2264
     34  O        -25.4890   -2.5860    4.9960 O.2   127  TYR127     -0.2867
     35  CB       -27.9540   -3.4300    7.1630 C.3   127  TYR127      0.0534
     36  CG       -28.5630   -3.9980    8.4380 C.ar  127  TYR127     -0.0201
     37  CD1      -29.0810   -5.2920    8.4710 C.ar  127  TYR127     -0.0009
     38  CD2      -28.6430   -3.2300    9.6020 C.ar  127  TYR127     -0.0009
     39  CE1      -29.6390   -5.8030    9.6250 C.ar  127  TYR127      0.0417
     40  CE2      -29.1970   -3.7360   10.7520 C.ar  127  TYR127      0.0417
     41  CZ       -29.7010   -5.0140   10.7590 C.ar  127  TYR127      0.1957
     42  OH       -30.2660   -5.5050   11.9110 O.3   127  TYR127     -0.2866
     43  N        -26.0930  -11.3640    1.1950 N.3   131  ALA131     -0.1231
     44  CA       -26.4200  -12.5800    1.9200 C.3   131  ALA131      0.1694
     45  C        -26.7060  -13.6810    0.9150 C.2   131  ALA131      0.2592
     46  O        -26.7870  -13.4370   -0.2900 O.2   131  ALA131     -0.2718
     47  CB       -27.6380  -12.3550    2.8130 C.3   131  ALA131      0.0304
     48  N        -26.8720  -14.8890    1.4360 N.am  132  ASP132     -0.1974
     49  CA       -27.2740  -16.0390    0.6580 C.3   132  ASP132      0.1709
     50  C        -28.7970  -16.1480    0.7430 C.2   132  ASP132      0.2293
     51  O        -29.3200  -16.5710    1.7650 O.2   132  ASP132     -0.2864
     52  CB       -26.6000  -17.2820    1.2470 C.3   132  ASP132      0.1436
     53  CG       -26.8160  -18.5340    0.4220 C.2   132  ASP132      0.3671
     54  OD1      -25.9960  -19.4740    0.5500 O.co2 132  ASP132     -0.2456
     55  OD2      -27.8000  -18.5920   -0.3430 O.co2 132  ASP132     -0.2456
     56  N        -30.8350  -20.3480    0.5760 N.3   135  LEU135     -0.1245
     57  CA       -30.8980  -21.4300    1.5580 C.3   135  LEU135      0.1561
     58  C        -32.2310  -22.1360    1.4550 C.2   135  LEU135      0.2260
     59  O        -33.2730  -21.4920    1.3870 O.2   135  LEU135     -0.2867
     60  CB       -30.7400  -20.9200    2.9930 C.3   135  LEU135      0.0270
     61  CG       -29.3330  -20.5240    3.4160 C.3   135  LEU135      0.0019
     62  CD1      -29.3340  -20.0170    4.8420 C.3   135  LEU135      0.0001
     63  CD2      -28.4090  -21.7320    3.2540 C.3   135  LEU135      0.0001
     64  N        -32.1760  -23.0920    6.1710 N.3   140  LEU140     -0.1245
     65  CA       -32.5350  -21.8520    6.8250 C.3   140  LEU140      0.1561
     66  C        -32.9750  -22.1340    8.2510 C.2   140  LEU140      0.2260
     67  O        -32.5440  -21.4720    9.1860 O.2   140  LEU140     -0.2867
     68  CB       -33.6500  -21.1560    6.0710 C.3   140  LEU140      0.0270
     69  CG       -33.9980  -19.7610    6.5740 C.3   140  LEU140      0.0019
     70  CD1      -32.7690  -18.8810    6.6210 C.3   140  LEU140      0.0001
     71  CD2      -35.0370  -19.1760    5.6540 C.3   140  LEU140      0.0001
     72  N        -30.1420  -22.6860   10.4380 N.3   143  VAL143     -0.1231
     73  CA       -29.5120  -21.4220   10.8450 C.3   143  VAL143      0.1692
     74  C        -30.2460  -20.7710   12.0170 C.2   143  VAL143      0.2591
     75  O        -29.6200  -20.3590   12.9790 O.2   143  VAL143     -0.2718
     76  CB       -29.4140  -20.4140    9.6800 C.3   143  VAL143      0.0266
     77  CG1      -29.1890  -18.9850   10.2230 C.3   143  VAL143      0.0020
     78  CG2      -28.2950  -20.8310    8.7270 C.3   143  VAL143      0.0020
     79  N        -31.5720  -20.6840   11.9160 N.am  144  ILE144     -0.1980
     80  CA       -32.4060  -20.1340   12.9840 C.3   144  ILE144      0.1595
     81  C        -32.1740  -20.8530   14.3130 C.2   144  ILE144      0.2287
     82  O        -31.9890  -20.2420   15.3600 O.2   144  ILE144     -0.2864
     83  CB       -33.8860  -20.3180   12.6700 C.3   144  ILE144      0.0276
     84  CG1      -34.3050  -19.5120   11.4270 C.3   144  ILE144      0.0022
     85  CG2      -34.7110  -19.8980   13.8700 C.3   144  ILE144      0.0022
     86  CD1      -33.7100  -18.0770   11.3660 C.3   144  ILE144      0.0001
     87  N        -28.8540  -20.2970   16.0330 N.3   147  LEU147     -0.1245
     88  CA       -28.7940  -18.9860   16.6880 C.3   147  LEU147      0.1561
     89  C        -29.6300  -18.9810   17.9600 C.2   147  LEU147      0.2260
     90  O        -29.5260  -18.0510   18.7550 O.2   147  LEU147     -0.2867
     91  CB       -29.3070  -17.8890   15.7580 C.3   147  LEU147      0.0270
     92  CG       -28.4390  -17.5360   14.5560 C.3   147  LEU147      0.0019
     93  CD1      -29.2450  -16.7580   13.5360 C.3   147  LEU147      0.0001
     94  CD2      -27.2350  -16.7590   15.0020 C.3   147  LEU147      0.0001
     95  N        -40.0740  -14.7590    6.8600 N.3   168  LEU168     -0.1245
     96  CA       -38.7030  -14.5040    7.2750 C.3   168  LEU168      0.1561
     97  C        -37.8720  -14.0730    6.0930 C.2   168  LEU168      0.2260
     98  O        -37.0630  -13.1550    6.1920 O.2   168  LEU168     -0.2867
     99  CB       -38.0730  -15.7520    7.8660 C.3   168  LEU168      0.0270
    100  CG       -36.6320  -15.5670    8.3250 C.3   168  LEU168      0.0019
    101  CD1      -36.5850  -14.6250    9.5170 C.3   168  LEU168      0.0001
    102  CD2      -36.0310  -16.9280    8.6580 C.3   168  LEU168      0.0001
    103  N        -35.8060  -10.6670    5.7280 N.3   172  LEU172     -0.1245
    104  CA       -34.3790  -10.7080    5.4490 C.3   172  LEU172      0.1561
    105  C        -34.0180   -9.9540    4.1920 C.2   172  LEU172      0.2260
    106  O        -33.0050   -9.2900    4.1470 O.2   172  LEU172     -0.2867
    107  CB       -33.8800  -12.1560    5.3770 C.3   172  LEU172      0.0270
    108  CG       -33.8190  -12.9030    6.7300 C.3   172  LEU172      0.0019
    109  CD1      -33.2870  -14.3190    6.5530 C.3   172  LEU172      0.0001
    110  CD2      -32.9790  -12.1600    7.7880 C.3   172  LEU172      0.0001
    111  N        -33.5400   -6.3410    4.9250 N.3   175  CYS175     -0.1235
    112  CA       -32.2280   -6.1030    5.5140 C.3   175  CYS175      0.1677
    113  C        -31.1610   -6.0920    4.4400 C.2   175  CYS175      0.2270
    114  O        -30.3660   -5.1750    4.4080 O.2   175  CYS175     -0.2867
    115  CB       -31.9010   -7.1600    6.5690 C.3   175  CYS175      0.0956
    116  SG       -33.0590   -7.1850    7.9630 S.3   175  CYS175     -0.0801
    117  N        -24.2160  -12.8160   15.0980 N.3   200  ILE200     -0.1245
    118  CA       -24.8920  -11.9540   14.1240 C.3   200  ILE200      0.1561
    119  C        -24.8140  -10.4730   14.4440 C.2   200  ILE200      0.2260
    120  O        -24.9520   -9.6510   13.5520 O.2   200  ILE200     -0.2867
    121  CB       -26.4020  -12.3210   14.0220 C.3   200  ILE200      0.0252
    122  CG1      -26.5800  -13.6040   13.1920 C.3   200  ILE200      0.0019
    123  CG2      -27.2150  -11.1470   13.4690 C.3   200  ILE200      0.0019
    124  CD1      -25.7170  -13.6580   11.9390 C.3   200  ILE200      0.0001
    125  N        -28.4860  -14.7250   20.2900 N.3   226  HIS226     -0.1226
    126  CA       -29.2000  -13.7860   19.4780 C.3   226  HIS226      0.1752
    127  C        -30.6430  -13.6370   19.8690 C.2   226  HIS226      0.2596
    128  O        -31.1750  -12.5720   19.8550 O.2   226  HIS226     -0.2718
    129  CB       -29.0870  -14.1860   18.0230 C.3   226  HIS226      0.0759
    130  CG       -29.6550  -13.1750   17.0950 C.ar  226  HIS226      0.0818
    131  ND1      -29.1000  -11.9400   16.9320 N.ar  226  HIS226     -0.2268
    132  CD2      -30.7620  -13.1890   16.3360 C.ar  226  HIS226      0.1154
    133  CE1      -29.8250  -11.2430   16.1000 C.ar  226  HIS226      0.1986
    134  NE2      -30.8430  -11.9760   15.7310 N.ar  226  HIS226     -0.2212
    135  N        -31.2780  -14.7230   20.2220 N.am  227  PHE227     -0.1976
    136  CA       -32.6450  -14.6970   20.6620 C.3   227  PHE227      0.1639
    137  C        -32.8190  -14.5380   22.1530 C.2   227  PHE227      0.2290
    138  O        -33.7610  -14.9880   22.7030 O.2   227  PHE227     -0.2864
    139  CB       -33.3660  -15.9000   20.0920 C.3   227  PHE227      0.0560
    140  CG       -33.4090  -15.9080   18.6250 C.ar  227  PHE227     -0.0200
    141  CD1      -34.2750  -15.1220   17.9410 C.ar  227  PHE227     -0.0042
    142  CD2      -32.5630  -16.6690   17.9160 C.ar  227  PHE227     -0.0042
    143  CE1      -34.2720  -15.1350   16.6020 C.ar  227  PHE227     -0.0003
    144  CE2      -32.5810  -16.6520   16.6110 C.ar  227  PHE227     -0.0003
    145  CZ       -33.4230  -15.9030   15.9510 C.ar  227  PHE227     -0.0000
@<TRIPOS>BOND
     1    55    53   ar
     2    46    45    2
     3    53    54   ar
     4    53    52    1
     5    56    57    1
     6    49    50    1
     7    49    52    1
     8    49    48    1
     9    50    51    2
    10    45    48   am
    11    45    44    1
    12    43    44    1
    13    59    58    2
    14    58    57    1
    15    57    60    1
    16    44    47    1
    17    60    61    1
    18    63    61    1
    19    61    62    1
    20   106   105    2
    21   105   104    1
    22   114   113    2
    23   113   112    1
    24   111   112    1
    25    34    33    2
    26   107   104    1
    27   107   108    1
    28    33    32    1
    29   104   103    1
    30   112   115    1
    31    71    69    1
    32    68    69    1
    33    68    65    1
    34    97    98    2
    35    97    96    1
    36    64    65    1
    37   109   108    1
    38   115   116    1
    39    69    70    1
    40   108   110    1
    41    65    66    1
    42    95    96    1
    43    32    35    1
    44    32    31    1
    45    35    36    1
    46    96    99    1
    47    99   100    1
    48    66    67    2
    49   100   102    1
    50   100   101    1
    51    36    37   ar
    52    36    38   ar
    53    37    39   ar
    54    78    76    1
    55    19    18    1
    56    29    28    1
    57    38    40   ar
    58    39    41   ar
    59    76    77    1
    60    76    73    1
    61    17    18    1
    62    17    16    1
    63     5     2    1
    64    72    73    1
    65    28    30    1
    66    28    27    2
    67    26    27    1
    68    26    25    1
    69    40    41   ar
    70    41    42    1
    71    73    74    1
    72     2     3    1
    73     2     1    1
    74    16    13    1
    75    86    84    1
    76    84    83    1
    77     3     4    2
    78    25    24    1
    79    79    74   am
    80    79    80    1
    81   124   122    1
    82    74    75    2
    83    15    14    2
    84    13    14    1
    85    13    12    1
    86    83    80    1
    87    83    85    1
    88    24    21    1
    89    80    81    1
    90   122   121    1
    91    12     8   am
    92   123   121    1
    93    93    92    1
    94    23    22    2
    95   120   119    2
    96    22    21    1
    97    21    20    1
    98   121   118    1
    99   118   119    1
   100   118   117    1
   101    11    10    1
   102     8     9    2
   103     8     7    1
   104    81    82    2
   105    92    94    1
   106    92    91    1
   107    10     7    1
   108     7     6    1
   109   134   133   ar
   110   134   132   ar
   111    91    88    1
   112   145   143   ar
   113   145   144   ar
   114    87    88    1
   115   133   131   ar
   116   132   130   ar
   117   143   141   ar
   118   144   142   ar
   119    88    89    1
   120   131   130   ar
   121   130   129    1
   122   142   140   ar
   123   141   140   ar
   124    89    90    2
   125   129   126    1
   126   140   139    1
   127   126   127    1
   128   126   125    1
   129   128   127    2
   130   127   135   am
   131   139   136    1
   132   135   136    1
   133   136   137    1
   134   137   138    2
