@<TRIPOS>MOLECULE
tmp/3qnfA00.pdb
 86 84 0 0 0
SMALL
GASTEIGER

@<TRIPOS>ATOM
      1  N         28.7830    3.6870   32.6690 N.3    23  HIS23      -0.1226
      2  CA        28.2790    3.6050   34.0350 C.3    23  HIS23       0.1752
      3  C         28.8420    4.8150   34.7530 C.2    23  HIS23       0.2596
      4  O         30.0500    4.9100   34.9380 O.2    23  HIS23      -0.2718
      5  CB        28.7370    2.2980   34.6860 C.3    23  HIS23       0.0759
      6  CG        28.3370    2.1460   36.1200 C.ar   23  HIS23       0.0818
      7  ND1       28.7750    1.1010   36.8990 N.ar   23  HIS23      -0.2268
      8  CD2       27.5620    2.9110   36.9210 C.ar   23  HIS23       0.1154
      9  CE1       28.2810    1.2220   38.1160 C.ar   23  HIS23       0.1986
     10  NE2       27.5440    2.3150   38.1560 N.ar   23  HIS23      -0.2212
     11  N         27.9600    5.7410   35.1220 N.am   24  ALA24      -0.1966
     12  CA        28.3630    7.0060   35.7060 C.3    24  ALA24       0.1728
     13  C         27.7540    7.1730   37.0760 C.2    24  ALA24       0.2616
     14  O         26.5400    7.0850   37.2250 O.2    24  ALA24      -0.2715
     15  CB        27.9210    8.1250   34.8160 C.3    24  ALA24       0.0334
     16  N         28.6010    7.4170   38.0710 N.am   25  ASN25      -0.1958
     17  CA        28.1480    7.6690   39.4380 C.3    25  ASN25       0.1819
     18  C         28.0350    9.1620   39.7100 C.2    25  ASN25       0.2621
     19  O         29.0290    9.8810   39.7290 O.2    25  ASN25      -0.2715
     20  CB        29.0990    7.0280   40.4540 C.3    25  ASN25       0.1195
     21  CG        28.4730    6.8950   41.8140 C.2    25  ASN25       0.2630
     22  OD1       28.3160    7.8750   42.5450 O.2    25  ASN25      -0.2716
     23  ND2       28.1020    5.6630   42.1600 N.am   25  ASN25      -0.0877
     24  N         26.8190    9.6250   39.9360 N.am   26  LEU26      -0.1963
     25  CA        26.6040   11.0430   40.1570 C.3    26  LEU26       0.1728
     26  C         26.8230   11.4660   41.6120 C.2    26  LEU26       0.2617
     27  O         26.8110   12.6580   41.9050 O.2    26  LEU26      -0.2715
     28  CB        25.2100   11.4390   39.6870 C.3    26  LEU26       0.0311
     29  CG        25.0910   11.6160   38.1700 C.3    26  LEU26       0.0022
     30  CD1       25.8760   10.5530   37.3910 C.3    26  LEU26       0.0001
     31  CD2       23.6220   11.6180   37.7620 C.3    26  LEU26       0.0001
     32  N         27.0260   10.5050   42.5160 N.am   27  THR27      -0.1937
     33  CA        27.3900   10.8170   43.8960 C.3    27  THR27       0.2028
     34  C         28.8920   11.0620   44.0220 C.2    27  THR27       0.2642
     35  O         29.3020   12.0840   44.5690 O.2    27  THR27      -0.2714
     36  CB        26.9950    9.7000   44.8690 C.3    27  THR27       0.1808
     37  OG1       25.6470    9.2950   44.6170 O.3    27  THR27      -0.2208
     38  CG2       27.1100   10.1870   46.3070 C.3    27  THR27       0.0379
     39  N         29.7020   10.1300   43.5130 N.am   28  THR28      -0.1950
     40  CA        31.1670   10.2360   43.5770 C.3    28  THR28       0.1897
     41  C         31.7770   10.9460   42.3620 C.2    28  THR28       0.2313
     42  O         32.9970   11.1240   42.2900 O.2    28  THR28      -0.2863
     43  CB        31.8270    8.8520   43.7020 C.3    28  THR28       0.1794
     44  OG1       31.7190    8.1520   42.4610 O.3    28  THR28      -0.2208
     45  CG2       31.1680    8.0370   44.8010 C.3    28  THR28       0.0378
     46  N         22.5800    3.2340   35.5150 N.3   160  ARG160     -0.1231
     47  CA        22.1720    4.2330   36.4960 C.3   160  ARG160      0.1694
     48  C         21.3710    3.6280   37.6460 C.2   160  ARG160      0.2591
     49  O         20.8870    2.4990   37.5560 O.2   160  ARG160     -0.2718
     50  CB        21.3750    5.3530   35.8110 C.3   160  ARG160      0.0321
     51  CG        20.3290    4.8970   34.7910 C.3   160  ARG160      0.0489
     52  CD        18.9670    4.6640   35.4040 C.3   160  ARG160      0.2205
     53  NE        18.0590    3.9970   34.4720 N.pl3 160  ARG160     -0.0865
     54  CZ        16.8570    3.5160   34.7970 C.cat 160  ARG160      0.5346
     55  NH1       16.3870    3.6130   36.0410 N.pl3 160  ARG160      0.1354
     56  NH2       16.1130    2.9280   33.8720 N.pl3 160  ARG160      0.1354
     57  N         21.2510    4.4030   38.7240 N.am  161  GLU161     -0.1979
     58  CA        20.4210    4.0540   39.8790 C.3   161  GLU161      0.1602
     59  C         18.9390    4.1350   39.4900 C.2   161  GLU161      0.2287
     60  O         18.5720    4.8930   38.5980 O.2   161  GLU161     -0.2864
     61  CB        20.7110    5.0090   41.0550 C.3   161  GLU161      0.0415
     62  CG        22.1930    5.1220   41.4590 C.3   161  GLU161      0.1163
     63  CD        22.4520    6.1380   42.5720 C.2   161  GLU161      0.3649
     64  OE1       21.4970    6.5510   43.2640 O.co2 161  GLU161     -0.2457
     65  OE2       23.6270    6.5210   42.7610 O.co2 161  GLU161     -0.2457
     66  N         23.0260   -5.0900   42.0090 N.3   180  GLU180     -0.1231
     67  CA        22.2440   -4.5770   43.1310 C.3   180  GLU180      0.1699
     68  C         22.1710   -3.0650   43.0260 C.2   180  GLU180      0.2593
     69  O         23.1860   -2.3750   43.1660 O.2   180  GLU180     -0.2718
     70  CB        22.8370   -4.9830   44.4870 C.3   180  GLU180      0.0402
     71  CG        22.0440   -4.4670   45.7120 C.3   180  GLU180      0.1161
     72  CD        20.5220   -4.6120   45.5610 C.2   180  GLU180      0.3649
     73  OE1       20.0350   -5.7280   45.2720 O.co2 180  GLU180     -0.2457
     74  OE2       19.8080   -3.6000   45.7320 O.co2 180  GLU180     -0.2457
     75  N         20.9680   -2.5640   42.7630 N.am  181  GLY181     -0.1942
     76  CA        20.7460   -1.1350   42.6230 C.3   181  GLY181      0.2014
     77  C         21.4670   -0.5210   41.4360 C.2   181  GLY181      0.2638
     78  O         21.9560    0.6120   41.5190 O.2   181  GLY181     -0.2714
     79  N         21.5370   -1.2740   40.3380 N.am  182  LEU182     -0.1977
     80  CA        22.1410   -0.7880   39.1040 C.3   182  LEU182      0.1596
     81  C         21.3220   -1.2780   37.9180 C.2   182  LEU182      0.2287
     82  O         21.2840   -2.4780   37.6390 O.2   182  LEU182     -0.2864
     83  CB        23.5940   -1.2550   38.9840 C.3   182  LEU182      0.0297
     84  CG        24.4020   -0.5470   37.8980 C.3   182  LEU182      0.0022
     85  CD1       24.5520    0.9210   38.2440 C.3   182  LEU182      0.0001
     86  CD2       25.7510   -1.2020   37.7260 C.3   182  LEU182      0.0001
@<TRIPOS>BOND
     1     1     2    1
     2    56    54    1
     3     2     5    1
     4     2     3    1
     5    53    54    2
     6    53    52    1
     7     5     6    1
     8     3     4    2
     9     3    11   am
    10    51    52    1
    11    51    50    1
    12    54    55    1
    13    15    12    1
    14    11    12    1
    15    46    47    1
    16    12    13    1
    17    50    47    1
    18     6     7   ar
    19     6     8   ar
    20    47    48    1
    21     7     9   ar
    22     8    10   ar
    23    13    14    2
    24    13    16   am
    25    30    29    1
    26    49    48    2
    27    82    81    2
    28    48    57   am
    29    86    84    1
    30    31    29    1
    31    84    85    1
    32    84    83    1
    33    81    80    1
    34    16    17    1
    35     9    10   ar
    36    29    28    1
    37    60    59    2
    38    57    58    1
    39    83    80    1
    40    80    79    1
    41    17    18    1
    42    17    20    1
    43    59    58    1
    44    28    25    1
    45    18    19    2
    46    18    24   am
    47    58    61    1
    48    24    25    1
    49    25    26    1
    50    79    77   am
    51    20    21    1
    52    61    62    1
    53    77    78    2
    54    77    76    1
    55    62    63    1
    56    26    27    2
    57    26    32   am
    58    21    23   am
    59    21    22    2
    60    66    67    1
    61    42    41    2
    62    41    40    1
    63    44    43    1
    64    32    33    1
    65    63    65   ar
    66    63    64   ar
    67    76    75    1
    68    75    68   am
    69    68    67    1
    70    68    69    2
    71    67    70    1
    72    39    40    1
    73    39    34   am
    74    40    43    1
    75    43    45    1
    76    33    34    1
    77    33    36    1
    78    34    35    2
    79    70    71    1
    80    37    36    1
    81    36    38    1
    82    73    72   ar
    83    72    71    1
    84    72    74   ar
