@<TRIPOS>MOLECULE
tmp/3qnfB00.pdb
 78 75 0 0 0
SMALL
GASTEIGER

@<TRIPOS>ATOM
      1  N         74.3870   -4.0090   36.5940 N.3    23  HIS23      -0.1226
      2  CA        73.7730   -5.1620   37.2330 C.3    23  HIS23       0.1752
      3  C         74.3290   -5.1790   38.6440 C.2    23  HIS23       0.2596
      4  O         75.5270   -5.3870   38.8360 O.2    23  HIS23      -0.2718
      5  CB        74.1310   -6.4400   36.4650 C.3    23  HIS23       0.0759
      6  CG        73.6110   -7.7070   37.0730 C.ar   23  HIS23       0.0818
      7  ND1       73.9750   -8.9510   36.6060 N.ar   23  HIS23      -0.2268
      8  CD2       72.7690   -7.9250   38.1110 C.ar   23  HIS23       0.1154
      9  CE1       73.3730   -9.8800   37.3260 C.ar   23  HIS23       0.1986
     10  NE2       72.6350   -9.2840   38.2450 N.ar   23  HIS23      -0.2212
     11  N         73.4540   -4.9390   39.6180 N.am   24  ALA24      -0.1966
     12  CA        73.8510   -4.8160   41.0080 C.3    24  ALA24       0.1728
     13  C         73.1270   -5.8500   41.8470 C.2    24  ALA24       0.2616
     14  O         71.9010   -5.9070   41.8240 O.2    24  ALA24      -0.2715
     15  CB        73.5320   -3.4240   41.5060 C.3    24  ALA24       0.0334
     16  N         73.8890   -6.6470   42.5930 N.am   25  ASN25      -0.1972
     17  CA        73.3280   -7.6300   43.5200 C.3    25  ASN25       0.1688
     18  C         73.2350   -7.0860   44.9540 C.2    25  ASN25       0.2292
     19  O         74.2590   -6.8100   45.5840 O.2    25  ASN25      -0.2864
     20  CB        74.1590   -8.9180   43.4950 C.3    25  ASN25       0.1181
     21  CG        73.4170  -10.0890   44.1060 C.2    25  ASN25       0.2629
     22  OD1       73.3090  -10.1870   45.3300 O.2    25  ASN25      -0.2716
     23  ND2       72.8970  -10.9860   43.2550 N.am   25  ASN25      -0.0877
     24  N         72.0260   -8.7290   47.5420 N.3    27  THR27      -0.1203
     25  CA        72.2870   -9.8010   48.5040 C.3    27  THR27       0.1994
     26  C         73.7820   -9.8620   48.8070 C.2    27  THR27       0.2618
     27  O         74.1810   -9.8290   49.9700 O.2    27  THR27      -0.2717
     28  CB        71.8120  -11.1800   47.9940 C.3    27  THR27       0.1784
     29  OG1       70.4730  -11.0830   47.4830 O.3    27  THR27      -0.2211
     30  CG2       71.8520  -12.1980   49.1160 C.3    27  THR27       0.0376
     31  N         74.6040   -9.9340   47.7590 N.am   28  THR28      -0.1952
     32  CA        76.0630  -10.0290   47.9140 C.3    28  THR28       0.1897
     33  C         76.7540   -8.6650   47.9660 C.2    28  THR28       0.2313
     34  O         77.9700   -8.6020   48.1410 O.2    28  THR28      -0.2863
     35  CB        76.7090  -10.8620   46.7760 C.3    28  THR28       0.1794
     36  OG1       76.6940  -10.1220   45.5490 O.3    28  THR28      -0.2208
     37  CG2       75.9650  -12.1660   46.5720 C.3    28  THR28       0.0378
     38  N         67.8590   -6.0720   37.7810 N.3   159  ARG159     -0.1231
     39  CA        67.4100   -6.3320   39.1450 C.3   159  ARG159      0.1694
     40  C         66.4810   -7.5390   39.2320 C.2   159  ARG159      0.2591
     41  O         65.9280   -7.9830   38.2190 O.2   159  ARG159     -0.2718
     42  CB        66.7250   -5.0900   39.7260 C.3   159  ARG159      0.0321
     43  CG        65.7420   -4.3870   38.7890 C.3   159  ARG159      0.0489
     44  CD        64.3160   -4.9080   38.9150 C.3   159  ARG159      0.2205
     45  NE        63.4440   -4.3780   37.8640 N.pl3 159  ARG159     -0.0865
     46  CZ        62.2100   -4.8100   37.6050 C.cat 159  ARG159      0.5346
     47  NH1       61.6610   -5.7790   38.3280 N.pl3 159  ARG159      0.1354
     48  NH2       61.5190   -4.2710   36.6120 N.pl3 159  ARG159      0.1354
     49  N         66.3220   -8.0490   40.4580 N.am  160  GLU160     -0.1979
     50  CA        65.4000   -9.1430   40.7590 C.3   160  GLU160      0.1602
     51  C         63.9580   -8.6370   40.6260 C.2   160  GLU160      0.2287
     52  O         63.7010   -7.4460   40.8030 O.2   160  GLU160     -0.2864
     53  CB        65.6320   -9.6620   42.1810 C.3   160  GLU160      0.0415
     54  CG        67.0910  -10.0770   42.5000 C.3   160  GLU160      0.1163
     55  CD        67.3060  -10.5220   43.9560 C.2   160  GLU160      0.3649
     56  OE1       66.3170  -10.7960   44.6720 O.co2 160  GLU160     -0.2457
     57  OE2       68.4760  -10.5970   44.3880 O.co2 160  GLU160     -0.2457
     58  N         65.9580  -16.3080   34.5640 N.3   179  GLU179     -0.1231
     59  CA        65.0590  -16.6870   35.6600 C.3   179  GLU179      0.1699
     60  C         65.2900  -15.7150   36.8080 C.2   179  GLU179      0.2593
     61  O         66.3710  -15.6990   37.4110 O.2   179  GLU179     -0.2718
     62  CB        65.3000  -18.1360   36.1260 C.3   179  GLU179      0.0402
     63  CG        64.7710  -19.2330   35.1980 C.3   179  GLU179      0.1161
     64  CD        65.7240  -19.6310   34.1320 C.2   179  GLU179      0.3649
     65  OE1       66.7800  -19.0040   34.0040 O.co2 179  GLU179     -0.2457
     66  OE2       65.4420  -20.5710   33.4350 O.co2 179  GLU179     -0.2457
     67  N         64.2840  -14.8900   37.0840 N.am  180  GLY180     -0.1942
     68  CA        64.3700  -13.9130   38.1690 C.3   180  GLY180      0.2014
     69  C         65.4540  -12.8720   37.9560 C.2   180  GLY180      0.2638
     70  O         66.1320  -12.4770   38.9070 O.2   180  GLY180     -0.2714
     71  N         65.6210  -12.4450   36.7040 N.am  181  LEU181     -0.1977
     72  CA        66.5540  -11.3760   36.3590 C.3   181  LEU181      0.1596
     73  C         65.9430  -10.4830   35.2950 C.2   181  LEU181      0.2287
     74  O         65.8040  -10.8730   34.1310 O.2   181  LEU181     -0.2864
     75  CB        67.8790  -11.9450   35.8700 C.3   181  LEU181      0.0297
     76  CG        69.0130  -10.9240   35.7800 C.3   181  LEU181      0.0022
     77  CD1       69.3400  -10.3730   37.1580 C.3   181  LEU181      0.0001
     78  CD2       70.2670  -11.5310   35.1550 C.3   181  LEU181      0.0001
@<TRIPOS>BOND
     1    66    64   ar
     2    65    64   ar
     3    74    73    2
     4    64    63    1
     5    58    59    1
     6    78    76    1
     7    63    62    1
     8    73    72    1
     9    59    62    1
    10    59    60    1
    11    76    75    1
    12    76    77    1
    13    75    72    1
    14    72    71    1
    15     5     6    1
    16     5     2    1
    17     1     2    1
    18     7     6   ar
    19     7     9   ar
    20    48    46    1
    21    71    69   am
    22    60    67   am
    23    60    61    2
    24     6     8   ar
    25    67    68    1
    26     2     3    1
    27     9    10   ar
    28    46    45    2
    29    46    47    1
    30    38    39    1
    31    45    44    1
    32    69    68    1
    33    69    70    2
    34     8    10   ar
    35    41    40    2
    36     3     4    2
    37     3    11   am
    38    43    44    1
    39    43    42    1
    40    39    40    1
    41    39    42    1
    42    40    49   am
    43    11    12    1
    44    49    50    1
    45    51    50    1
    46    51    52    2
    47    50    53    1
    48    12    15    1
    49    12    13    1
    50    14    13    2
    51    13    16   am
    52    53    54    1
    53    54    55    1
    54    16    17    1
    55    23    21   am
    56    20    17    1
    57    20    21    1
    58    17    18    1
    59    55    57   ar
    60    55    56   ar
    61    21    22    2
    62    18    19    2
    63    36    35    1
    64    37    35    1
    65    35    32    1
    66    29    28    1
    67    24    25    1
    68    31    32    1
    69    31    26   am
    70    32    33    1
    71    33    34    2
    72    28    25    1
    73    28    30    1
    74    25    26    1
    75    26    27    2
