@<TRIPOS>MOLECULE
tmp/3qnjA00.pdb
 71 68 0 0 0
SMALL
GASTEIGER

@<TRIPOS>ATOM
      1  N          6.5960  -33.1130   -1.7770 N.3    13  ILE13      -0.1231
      2  CA         6.3880  -33.5770   -3.0890 C.3    13  ILE13       0.1692
      3  C          5.9390  -32.4060   -3.9370 C.2    13  ILE13       0.2592
      4  O          5.6690  -31.3110   -3.4190 O.2    13  ILE13      -0.2718
      5  CB         5.3860  -34.7320   -3.1860 C.3    13  ILE13       0.0266
      6  CG1        3.9430  -34.2650   -2.8950 C.3    13  ILE13       0.0019
      7  CG2        5.8370  -35.9750   -2.3400 C.3    13  ILE13       0.0020
      8  CD1        2.9140  -35.5020   -3.0150 C.3    13  ILE13       0.0001
      9  N          5.9400  -32.6440   -5.2250 N.am   14  GLU14      -0.1966
     10  CA         5.5390  -31.6470   -6.1940 C.3    14  GLU14       0.1733
     11  C          4.0580  -31.8300   -6.4060 C.2    14  GLU14       0.2617
     12  O          3.5730  -32.9390   -6.5580 O.2    14  GLU14      -0.2715
     13  CB         6.2840  -31.8450   -7.5170 C.3    14  GLU14       0.0429
     14  CG         5.8030  -30.8890   -8.5780 C.3    14  GLU14       0.1163
     15  CD         6.7110  -30.8370   -9.7590 C.2    14  GLU14       0.3649
     16  OE1        7.7650  -31.5070   -9.7550 O.co2  14  GLU14      -0.2457
     17  OE2        6.3810  -30.1140  -10.7230 O.co2  14  GLU14      -0.2457
     18  N          3.3440  -30.7200   -6.3780 N.am   15  THR15      -0.1951
     19  CA         1.8850  -30.7030   -6.5230 C.3    15  THR15       0.1897
     20  C          1.6050  -29.8240   -7.7230 C.2    15  THR15       0.2313
     21  O          2.5140  -29.1870   -8.2440 O.2    15  THR15      -0.2863
     22  CB         1.2110  -30.1670   -5.2850 C.3    15  THR15       0.1794
     23  OG1        1.8940  -28.9800   -4.8260 O.3    15  THR15      -0.2208
     24  CG2        1.2800  -31.2220   -4.1370 C.3    15  THR15       0.0378
     25  N         -3.7510  -36.8100   -1.1810 N.3    38  PHE38      -0.1227
     26  CA        -3.7670  -35.9160   -2.3030 C.3    38  PHE38       0.1736
     27  C         -4.8220  -36.4580   -3.2800 C.2    38  PHE38       0.2596
     28  O         -5.2900  -37.5740   -3.1430 O.2    38  PHE38      -0.2718
     29  CB        -2.3450  -35.8620   -2.9410 C.3    38  PHE38       0.0547
     30  CG        -1.2750  -35.2770   -2.0380 C.ar   38  PHE38      -0.0202
     31  CD1       -0.7350  -36.0170   -0.9940 C.ar   38  PHE38      -0.0042
     32  CD2       -0.8030  -33.9600   -2.2380 C.ar   38  PHE38      -0.0042
     33  CE1        0.2510  -35.4550   -0.1440 C.ar   38  PHE38      -0.0003
     34  CE2        0.1770  -33.3940   -1.4340 C.ar   38  PHE38      -0.0003
     35  CZ         0.7110  -34.1370   -0.3760 C.ar   38  PHE38      -0.0000
     36  N         -5.1890  -35.6680   -4.2690 N.am   39  SER39      -0.1952
     37  CA        -6.1190  -36.1510   -5.2620 C.3    39  SER39       0.1924
     38  C         -5.6490  -35.8160   -6.6220 C.2    39  SER39       0.2314
     39  O         -4.5030  -35.4250   -6.7780 O.2    39  SER39      -0.2863
     40  CB        -7.5030  -35.5670   -5.0250 C.3    39  SER39       0.2116
     41  OG        -8.4310  -36.3230   -5.7830 O.3    39  SER39      -0.2180
     42  N         -0.5450  -41.0010  -11.5060 N.3    48  VAL48      -0.1231
     43  CA         0.0950  -39.8500  -10.8840 C.3    48  VAL48       0.1692
     44  C          1.6020  -40.0740  -10.6660 C.2    48  VAL48       0.2593
     45  O          2.0560  -41.2430  -10.5310 O.2    48  VAL48      -0.2718
     46  CB        -0.5500  -39.4550   -9.5280 C.3    48  VAL48       0.0266
     47  CG1       -2.0030  -39.1370   -9.7260 C.3    48  VAL48       0.0020
     48  CG2       -0.3490  -40.5590   -8.4690 C.3    48  VAL48       0.0020
     49  N          2.3730  -38.9590  -10.6910 N.am   49  THR49      -0.1939
     50  CA         3.8210  -38.9590  -10.4180 C.3    49  THR49       0.2028
     51  C          4.1250  -38.2750   -9.0970 C.2    49  THR49       0.2642
     52  O          3.6820  -37.1330   -8.8240 O.2    49  THR49      -0.2714
     53  CB         4.6110  -38.2910  -11.5350 C.3    49  THR49       0.1808
     54  OG1        4.4890  -39.0950  -12.7200 O.3    49  THR49      -0.2208
     55  CG2        6.1140  -38.2010  -11.1730 C.3    49  THR49       0.0379
     56  N          4.8540  -39.0090   -8.2670 N.am   50  ILE50      -0.1977
     57  CA         5.2900  -38.5770   -6.9690 C.3    50  ILE50       0.1596
     58  C          6.7630  -38.2090   -7.0640 C.2    50  ILE50       0.2287
     59  O          7.6380  -39.1200   -7.2570 O.2    50  ILE50      -0.2864
     60  CB         5.1610  -39.7450   -5.9530 C.3    50  ILE50       0.0276
     61  CG1        3.7340  -40.3280   -5.9340 C.3    50  ILE50       0.0022
     62  CG2        5.5870  -39.2640   -4.5690 C.3    50  ILE50       0.0022
     63  CD1        2.6420  -39.4110   -5.2470 C.3    50  ILE50       0.0001
     64  N         -5.2430  -40.4960   -2.8390 N.3    84  ILE84      -0.1242
     65  CA        -3.8940  -40.9960   -2.8690 C.3    84  ILE84       0.1601
     66  C         -3.1810  -40.6190   -1.5740 C.2    84  ILE84       0.2264
     67  O         -2.7510  -39.4720   -1.4210 O.2    84  ILE84      -0.2867
     68  CB        -3.0870  -40.3300   -3.9940 C.3    84  ILE84       0.0472
     69  CG1       -3.9070  -40.0800   -5.2850 C.2    84  ILE84      -0.0246
     70  CG2       -1.7620  -41.0260   -4.2000 C.3    84  ILE84       0.0066
     71  CD1       -4.3210  -41.1870   -5.9650 C.2    84  ILE84      -0.0049
@<TRIPOS>BOND
     1    54    53    1
     2    53    55    1
     3    53    50    1
     4    42    43    1
     5    43    44    1
     6    43    46    1
     7    17    15   ar
     8    49    44   am
     9    49    50    1
    10    44    45    2
    11    50    51    1
    12    15    16   ar
    13    15    14    1
    14    47    46    1
    15    46    48    1
    16    51    52    2
    17    51    56   am
    18    14    13    1
    19    56    57    1
    20    21    20    2
    21    20    19    1
    22    13    10    1
    23    59    58    2
    24    58    57    1
    25    57    60    1
    26    39    38    2
    27    38    37    1
    28    12    11    2
    29    19    18    1
    30    19    22    1
    31    11    18   am
    32    11    10    1
    33    10     9    1
    34    71    69    2
    35    60    61    1
    36    60    62    1
    37    61    63    1
    38    41    40    1
    39    22    23    1
    40    22    24    1
    41    69    68    1
    42    37    40    1
    43    37    36    1
    44     9     3   am
    45    36    27   am
    46    70    68    1
    47    68    65    1
    48     3     4    2
    49     3     2    1
    50    27    28    2
    51    27    26    1
    52     5     2    1
    53     5     6    1
    54     5     7    1
    55     2     1    1
    56     8     6    1
    57    29    26    1
    58    29    30    1
    59    65    64    1
    60    65    66    1
    61    26    25    1
    62    32    30   ar
    63    32    34   ar
    64    30    31   ar
    65    66    67    2
    66    34    35   ar
    67    31    33   ar
    68    35    33   ar
