@<TRIPOS>MOLECULE
tmp/3qnjB00.pdb
 78 74 0 0 0
SMALL
GASTEIGER

@<TRIPOS>ATOM
      1  N         23.7730  -17.5440  -16.9330 N.3    13  ILE13      -0.1231
      2  CA        23.8680  -17.2170  -15.5400 C.3    13  ILE13       0.1692
      3  C         22.9250  -16.0770  -15.1870 C.2    13  ILE13       0.2592
      4  O         22.4310  -15.3280  -16.0680 O.2    13  ILE13      -0.2718
      5  CB        25.3580  -16.9450  -15.1290 C.3    13  ILE13       0.0266
      6  CG1       25.9360  -15.6760  -15.7890 C.3    13  ILE13       0.0019
      7  CG2       26.2010  -18.0950  -15.5460 C.3    13  ILE13       0.0020
      8  CD1       27.1100  -15.0700  -15.0070 C.3    13  ILE13       0.0001
      9  N         22.6780  -15.9490  -13.8960 N.am   14  GLU14      -0.1966
     10  CA        21.8660  -14.8900  -13.4240 C.3    14  GLU14       0.1733
     11  C         22.6650  -13.5960  -13.3600 C.2    14  GLU14       0.2617
     12  O         23.7580  -13.5850  -12.7880 O.2    14  GLU14      -0.2715
     13  CB        21.3390  -15.1850  -12.0200 C.3    14  GLU14       0.0429
     14  CG        20.2690  -14.1400  -11.6030 C.3    14  GLU14       0.1163
     15  CD        19.8250  -14.2480  -10.1340 C.2    14  GLU14       0.3649
     16  OE1       20.5340  -14.8820   -9.3210 O.co2  14  GLU14      -0.2457
     17  OE2       18.7630  -13.6840   -9.7780 O.co2  14  GLU14      -0.2457
     18  N         22.0770  -12.5040  -13.8790 N.am   15  THR15      -0.1951
     19  CA        22.7190  -11.2150  -13.7950 C.3    15  THR15       0.1897
     20  C         21.8540  -10.2270  -12.9970 C.2    15  THR15       0.2313
     21  O         20.6650  -10.5080  -12.6930 O.2    15  THR15      -0.2863
     22  CB        23.2120  -10.6930  -15.1640 C.3    15  THR15       0.1794
     23  OG1       22.1250  -10.5780  -16.0850 O.3    15  THR15      -0.2208
     24  CG2       24.2810  -11.6360  -15.7440 C.3    15  THR15       0.0378
     25  N         31.8950  -10.5070  -17.5530 N.3    38  PHE38      -0.1227
     26  CA        30.9430   -9.8520  -16.6180 C.3    38  PHE38       0.1736
     27  C         31.6840   -9.0100  -15.5990 C.2    38  PHE38       0.2596
     28  O         32.9240   -9.0970  -15.4710 O.2    38  PHE38      -0.2718
     29  CB        30.1410  -10.8970  -15.8370 C.3    38  PHE38       0.0547
     30  CG        29.2970  -11.7410  -16.7090 C.ar   38  PHE38      -0.0202
     31  CD1       29.8550  -12.7710  -17.4370 C.ar   38  PHE38      -0.0042
     32  CD2       27.9710  -11.4430  -16.8880 C.ar   38  PHE38      -0.0042
     33  CE1       29.0910  -13.4830  -18.3030 C.ar   38  PHE38      -0.0003
     34  CE2       27.2200  -12.1530  -17.7520 C.ar   38  PHE38      -0.0003
     35  CZ        27.7710  -13.1730  -18.4470 C.ar   38  PHE38      -0.0000
     36  N         30.9240   -8.2180  -14.8430 N.am   39  SER39      -0.1952
     37  CA        31.5190   -7.3320  -13.8390 C.3    39  SER39       0.1924
     38  C         30.7230   -7.3630  -12.5700 C.2    39  SER39       0.2314
     39  O         29.9440   -8.2740  -12.3900 O.2    39  SER39      -0.2863
     40  CB        31.7300   -5.8900  -14.3060 C.3    39  SER39       0.2116
     41  OG        32.6890   -5.2300  -13.4260 O.3    39  SER39      -0.2180
     42  N         31.4510  -12.3200   -6.3450 N.3    48  VAL48      -0.1231
     43  CA        30.2560  -12.5590   -7.1290 C.3    48  VAL48       0.1692
     44  C         29.7240  -13.9650   -6.9460 C.2    48  VAL48       0.2593
     45  O         30.4850  -14.8700   -6.5550 O.2    48  VAL48      -0.2718
     46  CB        30.4570  -12.2860   -8.6020 C.3    48  VAL48       0.0266
     47  CG1       30.6440  -10.7960   -8.8190 C.3    48  VAL48       0.0020
     48  CG2       31.5930  -13.0950   -9.1460 C.3    48  VAL48       0.0020
     49  N         28.4040  -14.1270   -7.1370 N.am   49  THR49      -0.1939
     50  CA        27.8440  -15.4490   -7.2100 C.3    49  THR49       0.2028
     51  C         27.5830  -15.7750   -8.6810 C.2    49  THR49       0.2642
     52  O         27.0670  -14.9650   -9.3990 O.2    49  THR49      -0.2714
     53  CB        26.5220  -15.5630   -6.4710 C.3    49  THR49       0.1808
     54  OG1       26.7160  -15.1940   -5.1130 O.3    49  THR49      -0.2208
     55  CG2       25.9910  -17.0180   -6.5340 C.3    49  THR49       0.0379
     56  N         27.9120  -16.9840   -9.0910 N.am   50  ILE50      -0.1977
     57  CA        27.5740  -17.4820  -10.4150 C.3    50  ILE50       0.1596
     58  C         26.4350  -18.5110  -10.2250 C.2    50  ILE50       0.2287
     59  O         26.7140  -19.6260   -9.7600 O.2    50  ILE50      -0.2864
     60  CB        28.7730  -18.2310  -11.0070 C.3    50  ILE50       0.0276
     61  CG1       30.0640  -17.4910  -10.6920 C.3    50  ILE50       0.0022
     62  CG2       28.6280  -18.4160  -12.5110 C.3    50  ILE50       0.0022
     63  CD1       30.2440  -16.2330  -11.4790 C.3    50  ILE50       0.0001
     64  N         35.2900  -10.1510  -14.8990 N.3    84  ILE84      -0.1245
     65  CA        35.1170  -11.5230  -14.4490 C.3    84  ILE84       0.1561
     66  C         34.6870  -12.3050  -15.6800 C.2    84  ILE84       0.2260
     67  O         33.5530  -12.1400  -16.1840 O.2    84  ILE84      -0.2867
     68  CB        34.0300  -11.6640  -13.4070 C.3    84  ILE84       0.0252
     69  CG1       34.2450  -10.6640  -12.2740 C.3    84  ILE84       0.0019
     70  CG2       33.9960  -13.1080  -12.8820 C.3    84  ILE84       0.0019
     71  CD1       35.5610  -10.8430  -11.5600 C.3    84  ILE84       0.0001
     72  N         33.5710  -15.4730  -17.6050 N.3    86  VAL86      -0.1245
     73  CA        32.8070  -16.6990  -17.2860 C.3    86  VAL86       0.1561
     74  C         32.8480  -17.6140  -18.4900 C.2    86  VAL86       0.2260
     75  O         32.6370  -17.1620  -19.6120 O.2    86  VAL86      -0.2867
     76  CB        31.3560  -16.4130  -16.7920 C.3    86  VAL86       0.0252
     77  CG1       30.4860  -17.7200  -16.6450 C.3    86  VAL86       0.0019
     78  CG2       31.3780  -15.6080  -15.4220 C.3    86  VAL86       0.0019
@<TRIPOS>BOND
     1    75    74    2
     2    74    73    1
     3    35    33   ar
     4    35    34   ar
     5    33    31   ar
     6    34    32   ar
     7    72    73    1
     8    25    26    1
     9    31    30   ar
    10    73    76    1
    11     1     2    1
    12    32    30   ar
    13    76    77    1
    14    76    78    1
    15    30    29    1
    16    26    29    1
    17    26    27    1
    18    67    66    2
    19    23    22    1
    20     4     3    2
    21     6     5    1
    22     6     8    1
    23    24    22    1
    24    66    65    1
    25    27    28    2
    26    27    36   am
    27     7     5    1
    28     2     3    1
    29     2     5    1
    30     3     9   am
    31    22    19    1
    32    64    65    1
    33    36    37    1
    34    65    68    1
    35    40    37    1
    36    40    41    1
    37     9    10    1
    38    18    19    1
    39    18    11   am
    40    37    38    1
    41    19    20    1
    42    10    11    1
    43    10    13    1
    44    68    70    1
    45    68    69    1
    46    11    12    2
    47    20    21    2
    48    38    39    2
    49    62    60    1
    50    69    71    1
    51    13    14    1
    52    14    15    1
    53    63    61    1
    54    60    61    1
    55    60    57    1
    56    57    58    1
    57    57    56    1
    58    58    59    2
    59    15    17   ar
    60    15    16   ar
    61    52    51    2
    62    48    46    1
    63    56    51   am
    64    47    46    1
    65    51    50    1
    66    46    43    1
    67    50    49    1
    68    50    53    1
    69    49    44   am
    70    43    44    1
    71    43    42    1
    72    44    45    2
    73    55    53    1
    74    53    54    1
