@<TRIPOS>MOLECULE
tmp/3qnlA00.pdb
 85 82 0 0 0
SMALL
GASTEIGER

@<TRIPOS>ATOM
      1  N         -3.9650   13.6640   -8.1070 N.3     2  LEU2       -0.1231
      2  CA        -3.2350   13.3370   -9.3300 C.3     2  LEU2        0.1693
      3  C         -2.7980   14.5560  -10.1090 C.2     2  LEU2        0.2592
      4  O         -1.7810   14.5070  -10.8080 O.2     2  LEU2       -0.2718
      5  CB        -4.1230   12.4540  -10.2410 C.3     2  LEU2        0.0284
      6  CG        -4.0980   10.9720   -9.8620 C.3     2  LEU2        0.0019
      7  CD1       -2.7310   10.3380   -9.8200 C.3     2  LEU2        0.0001
      8  CD2       -4.8670   10.7240   -8.5640 C.3     2  LEU2        0.0001
      9  N         -3.5740   15.6500  -10.0290 N.am    3  PHE3       -0.1976
     10  CA        -3.1540   16.9080  -10.6940 C.3     3  PHE3        0.1639
     11  C         -1.7740   17.3500  -10.1920 C.2     3  PHE3        0.2290
     12  O         -0.8730   17.6480  -11.0010 O.2     3  PHE3       -0.2864
     13  CB        -4.1780   18.0260  -10.4170 C.3     3  PHE3        0.0560
     14  CG        -5.5140   17.7950  -11.0930 C.ar    3  PHE3       -0.0200
     15  CD1       -5.6830   18.0690  -12.4680 C.ar    3  PHE3       -0.0042
     16  CD2       -6.6450   17.3230  -10.3590 C.ar    3  PHE3       -0.0042
     17  CE1       -6.9990   17.8740  -13.1040 C.ar    3  PHE3       -0.0003
     18  CE2       -7.8840   17.1400  -10.9990 C.ar    3  PHE3       -0.0003
     19  CZ        -8.0370   17.4150  -12.3540 C.ar    3  PHE3       -0.0000
     20  N          1.0500   14.6890  -10.9980 N.3     6  GLY6       -0.1210
     21  CA         1.4770   14.7040  -12.3740 C.3     6  GLY6        0.1956
     22  C          2.2790   15.9560  -12.7310 C.2     6  GLY6        0.2611
     23  O          3.2990   15.8780  -13.4580 O.2     6  GLY6       -0.2717
     24  N          1.8740   17.1030  -12.1970 N.am    7  LYS7       -0.1979
     25  CA         2.6720   18.3310  -12.3760 C.3     7  LYS7        0.1596
     26  C          4.1030   18.1830  -11.8270 C.2     7  LYS7        0.2287
     27  O          5.0850   18.5310  -12.4960 O.2     7  LYS7       -0.2864
     28  CB         1.9580   19.5290  -11.8000 C.3     7  LYS7        0.0298
     29  CG         2.6050   20.8490  -12.3100 C.3     7  LYS7        0.0038
     30  CD         1.8720   22.0630  -11.6780 C.3     7  LYS7        0.0206
     31  CE         2.6890   23.3220  -11.9920 C.3     7  LYS7        0.1093
     32  NZ         1.9680   24.6060  -11.8480 N.3     7  LYS7       -0.1314
     33  N          6.2130   16.0220  -14.0470 N.3    10  LEU10      -0.1231
     34  CA         6.6060   16.7960  -15.2220 C.3    10  LEU10       0.1693
     35  C          7.7620   17.7980  -14.8740 C.2    10  LEU10       0.2591
     36  O          8.7700   17.8990  -15.6170 O.2    10  LEU10      -0.2718
     37  CB         5.3640   17.5050  -15.8270 C.3    10  LEU10       0.0284
     38  CG         5.6360   18.3270  -17.1070 C.3    10  LEU10       0.0019
     39  CD1        6.1060   17.3970  -18.2390 C.3    10  LEU10       0.0001
     40  CD2        4.3410   19.1300  -17.4780 C.3    10  LEU10       0.0001
     41  N          7.6210   18.5120  -13.7660 N.am   11  GLN11      -0.1979
     42  CA         8.6310   19.5240  -13.3920 C.3    11  GLN11       0.1601
     43  C          9.9750   18.8650  -13.1280 C.2    11  GLN11       0.2287
     44  O         10.9640   19.4120  -13.5530 O.2    11  GLN11      -0.2864
     45  CB         8.2000   20.3150  -12.1580 C.3    11  GLN11       0.0394
     46  CG         6.9880   21.2420  -12.5370 C.3    11  GLN11       0.0908
     47  CD         6.3060   21.8850  -11.2560 C.2    11  GLN11       0.2608
     48  OE1        6.1200   23.0390  -11.2080 O.2    11  GLN11      -0.2717
     49  NE2        6.0690   21.1170  -10.2470 N.am   11  GLN11      -0.0878
     50  N         10.7290   16.2270  -16.7360 N.3    14  GLY14      -0.1225
     51  CA        10.5710   16.7580  -18.1160 C.3    14  GLY14       0.1811
     52  C          9.7440   15.8000  -19.0000 C.2    14  GLY14       0.2280
     53  O          9.6120   16.0400  -20.1890 O.2    14  GLY14      -0.2866
     54  N          3.7580   12.6400  -17.6790 N.3    17  PRO17      -0.2116
     55  CA         3.6500   11.5960  -16.6370 C.3    17  PRO17       0.1372
     56  C          2.7450   10.4410  -17.0030 C.2    17  PRO17       0.2244
     57  O          3.0830    9.2620  -16.7080 O.2    17  PRO17      -0.2868
     58  CB         3.1210   12.3660  -15.3980 C.3    17  PRO17       0.0268
     59  CG         2.6580   13.6570  -15.9120 C.3    17  PRO17       0.0207
     60  CD         3.4260   13.9730  -17.1560 C.3    17  PRO17       0.0892
     61  N         -6.9140   18.1140   -3.3180 N.3    63  ARG63      -0.1245
     62  CA        -5.8970   19.0200   -3.8820 C.3    63  ARG63       0.1563
     63  C         -5.0770   19.5960   -2.7190 C.2    63  ARG63       0.2260
     64  O         -5.5250   19.6090   -1.5670 O.2    63  ARG63      -0.2867
     65  CB        -6.5840   20.1880   -4.5580 C.3    63  ARG63       0.0307
     66  CG        -7.7070   19.8220   -5.5020 C.3    63  ARG63       0.0489
     67  CD        -7.2120   19.0850   -6.7500 C.3    63  ARG63       0.2205
     68  NE        -6.1410   19.8200   -7.4200 N.pl3  63  ARG63      -0.0865
     69  CZ        -6.3360   20.5220   -8.5240 C.cat  63  ARG63       0.5346
     70  NH1       -7.5790   20.6060   -9.0590 N.pl3  63  ARG63       0.1354
     71  NH2       -5.3170   21.1490   -9.0790 N.pl3  63  ARG63       0.1354
     72  N          7.0850   25.8750   -6.7510 N.3    68  TRP68      -0.1241
     73  CA         8.3370   25.5100   -7.3830 C.3    68  TRP68       0.1605
     74  C          9.2110   26.7200   -7.0600 C.2    68  TRP68       0.2264
     75  O          8.9840   27.8250   -7.5790 O.2    68  TRP68      -0.2867
     76  CB         8.0690   25.3860   -8.8700 C.3    68  TRP68       0.0550
     77  CG         9.1740   25.0410   -9.7960 C.ar   68  TRP68       0.0003
     78  CD1        9.6700   25.8250  -10.8140 C.ar   68  TRP68       0.0946
     79  CD2        9.8150   23.7560   -9.9170 C.ar   68  TRP68       0.0152
     80  NE1       10.6600   25.1040  -11.5170 N.ar   68  TRP68      -0.2442
     81  CE2       10.7370   23.8420  -10.9980 C.ar   68  TRP68       0.0810
     82  CE3        9.7460   22.5460   -9.1860 C.ar   68  TRP68       0.0012
     83  CZ2       11.5430   22.7570  -11.3870 C.ar   68  TRP68       0.0191
     84  CZ3       10.5770   21.4960   -9.5870 C.ar   68  TRP68       0.0001
     85  CH2       11.4270   21.6060  -10.6940 C.ar   68  TRP68       0.0015
@<TRIPOS>BOND
     1    53    52    2
     2    52    51    1
     3    39    38    1
     4    51    50    1
     5    54    60    1
     6    54    55    1
     7    40    38    1
     8    60    59    1
     9    38    37    1
    10    56    57    2
    11    56    55    1
    12    55    58    1
    13    59    58    1
    14    37    34    1
    15    36    35    2
    16    34    35    1
    17    34    33    1
    18    35    41   am
    19    41    42    1
    20    44    43    2
    21    23    22    2
    22    42    43    1
    23    42    45    1
    24    17    15   ar
    25    17    19   ar
    26    22    21    1
    27    22    24   am
    28    46    45    1
    29    46    47    1
    30    27    26    2
    31    15    14   ar
    32    25    24    1
    33    25    26    1
    34    25    28    1
    35    21    20    1
    36    19    18   ar
    37    29    28    1
    38    29    30    1
    39    31    32    1
    40    31    30    1
    41    80    81   ar
    42    80    78   ar
    43    83    81   ar
    44    83    85   ar
    45    47    48    2
    46    47    49   am
    47    14    13    1
    48    14    16   ar
    49    12    11    2
    50    18    16   ar
    51    81    79   ar
    52    78    77   ar
    53     4     3    2
    54    85    84   ar
    55    10    13    1
    56    10    11    1
    57    10     9    1
    58     5     6    1
    59     5     2    1
    60     3     9   am
    61     3     2    1
    62    79    77   ar
    63    79    82   ar
    64     6     7    1
    65     6     8    1
    66    77    76    1
    67    84    82   ar
    68     2     1    1
    69    71    69    1
    70    70    69    1
    71    76    73    1
    72    69    68    2
    73    75    74    2
    74    68    67    1
    75    73    74    1
    76    73    72    1
    77    67    66    1
    78    66    65    1
    79    65    62    1
    80    62    61    1
    81    62    63    1
    82    63    64    2
