@<TRIPOS>MOLECULE
tmp/3qnqD02.pdb
 135 130 0 0 0
SMALL
GASTEIGER

@<TRIPOS>ATOM
      1  N         14.7510   99.2860  -22.6870 N.3    28  VAL28      -0.1245
      2  CA        14.3040   98.1760  -23.5150 C.3    28  VAL28       0.1561
      3  C         15.1720   96.9430  -23.2690 C.2    28  VAL28       0.2260
      4  O         14.7290   95.8060  -23.4400 O.2    28  VAL28      -0.2867
      5  CB        14.3620   98.5230  -25.0000 C.3    28  VAL28       0.0252
      6  CG1       13.7610   97.3930  -25.8180 C.3    28  VAL28       0.0019
      7  CG2       13.6380   99.8260  -25.2560 C.3    28  VAL28       0.0019
      8  N         13.6650   94.4530  -20.7260 N.3    31  MET31      -0.1245
      9  CA        12.3430   93.8670  -20.9670 C.3    31  MET31       0.1570
     10  C         12.3090   92.3430  -21.0120 C.2    31  MET31       0.2261
     11  O         11.5730   91.7160  -20.2520 O.2    31  MET31      -0.2867
     12  CB        11.7260   94.4350  -22.2460 C.3    31  MET31       0.0387
     13  CG        11.7930   95.9460  -22.3020 C.3    31  MET31       0.0595
     14  SD        10.5570   96.7140  -23.3650 S.3    31  MET31      -0.1393
     15  CE        10.7860   98.4460  -22.9340 C.3    31  MET31       0.0692
     16  N         -0.7670  109.0050  -23.7300 N.3   239  VAL239     -0.1245
     17  CA        -0.3920  107.9450  -24.6570 C.3   239  VAL239      0.1561
     18  C         -1.2050  108.0100  -25.9390 C.2   239  VAL239      0.2260
     19  O         -0.7240  107.6150  -27.0000 O.2   239  VAL239     -0.2867
     20  CB        -0.5460  106.5530  -24.0200 C.3   239  VAL239      0.0252
     21  CG1       -0.5170  105.4640  -25.0720 C.3   239  VAL239      0.0019
     22  CG2        0.5520  106.3240  -23.0080 C.3   239  VAL239      0.0019
     23  N         -0.7300  109.0230  -30.1110 N.3   243  TRP243     -0.1241
     24  CA        -1.1220  108.1500  -31.2190 C.3   243  TRP243      0.1605
     25  C         -1.9920  108.8930  -32.2240 C.2   243  TRP243      0.2264
     26  O         -1.9820  108.5850  -33.4130 O.2   243  TRP243     -0.2867
     27  CB        -1.8700  106.9140  -30.7230 C.3   243  TRP243      0.0550
     28  CG        -0.9910  105.7720  -30.3340 C.ar  243  TRP243      0.0003
     29  CD1       -0.6650  105.3850  -29.0640 C.ar  243  TRP243      0.0946
     30  CD2       -0.3320  104.8550  -31.2130 C.ar  243  TRP243      0.0152
     31  NE1        0.1570  104.2860  -29.1010 N.ar  243  TRP243     -0.2442
     32  CE2        0.3750  103.9430  -30.4090 C.ar  243  TRP243      0.0810
     33  CE3       -0.2670  104.7170  -32.5950 C.ar  243  TRP243      0.0012
     34  CZ2        1.1350  102.9120  -30.9550 C.ar  243  TRP243      0.0191
     35  CZ3        0.4870  103.6920  -33.1250 C.ar  243  TRP243      0.0001
     36  CH2        1.1750  102.8070  -32.3130 C.ar  243  TRP243      0.0015
     37  N          4.1280  106.8360  -31.4050 N.3   248  HIS248     -0.1241
     38  CA         3.9070  105.6540  -30.5760 C.3   248  HIS248      0.1621
     39  C          3.8800  106.0070  -29.0830 C.2   248  HIS248      0.2264
     40  O          4.8430  105.7580  -28.3590 O.2   248  HIS248     -0.2867
     41  CB         4.9920  104.6160  -30.8610 C.3   248  HIS248      0.0745
     42  CG         4.6540  103.2350  -30.4010 C.ar  248  HIS248      0.0817
     43  ND1        4.7880  102.8300  -29.0910 N.ar  248  HIS248     -0.2268
     44  CD2        4.2070  102.1490  -31.0800 C.ar  248  HIS248      0.1154
     45  CE1        4.4280  101.5590  -28.9800 C.ar  248  HIS248      0.1986
     46  NE2        4.0730  101.1300  -30.1790 N.ar  248  HIS248     -0.2212
     47  N          2.7200  104.7400  -26.4260 N.3   250  ALA250     -0.1231
     48  CA         3.0140  103.6620  -25.4850 C.3   250  ALA250      0.1694
     49  C          4.4780  103.6090  -25.0660 C.2   250  ALA250      0.2592
     50  O          4.7810  103.2650  -23.9210 O.2   250  ALA250     -0.2718
     51  CB         2.5890  102.3260  -26.0560 C.3   250  ALA250      0.0304
     52  N          5.3900  103.9280  -25.9820 N.am  251  THR251     -0.1953
     53  CA         6.8040  103.8970  -25.6270 C.3   251  THR251      0.1897
     54  C          7.2860  105.2610  -25.1670 C.2   251  THR251      0.2313
     55  O          8.1170  105.3480  -24.2700 O.2   251  THR251     -0.2863
     56  CB         7.7060  103.4300  -26.7690 C.3   251  THR251      0.1794
     57  OG1        7.6960  104.4220  -27.7900 O.3   251  THR251     -0.2208
     58  CG2        7.2460  102.0920  -27.3300 C.3   251  THR251      0.0378
     59  N         -1.1320   97.6920  -19.3210 N.3   288  ASP288     -0.1239
     60  CA        -0.8750   96.6590  -20.3230 C.3   288  ASP288      0.1674
     61  C         -1.9630   95.5900  -20.4210 C.2   288  ASP288      0.2266
     62  O         -2.3450   95.1940  -21.5210 O.2   288  ASP288     -0.2867
     63  CB         0.4880   95.9940  -20.0790 C.3   288  ASP288      0.1410
     64  CG         1.6600   96.9110  -20.4140 C.2   288  ASP288      0.3668
     65  OD1        1.4220   98.1060  -20.6910 O.co2 288  ASP288     -0.2456
     66  OD2        2.8190   96.4370  -20.3910 O.co2 288  ASP288     -0.2456
     67  N         -4.7660   99.0700  -22.0200 N.3   292  TYR292     -0.1241
     68  CA        -4.2390   98.7980  -23.3540 C.3   292  TYR292      0.1605
     69  C         -4.6700   97.4150  -23.7940 C.2   292  TYR292      0.2264
     70  O         -3.8410   96.5700  -24.1380 O.2   292  TYR292     -0.2867
     71  CB        -2.7170   98.8600  -23.3390 C.3   292  TYR292      0.0534
     72  CG        -2.1970  100.1530  -22.8100 C.ar  292  TYR292     -0.0201
     73  CD1       -2.9600  101.3070  -22.8950 C.ar  292  TYR292     -0.0009
     74  CD2       -0.9490  100.2220  -22.2210 C.ar  292  TYR292     -0.0009
     75  CE1       -2.4920  102.4980  -22.4130 C.ar  292  TYR292      0.0417
     76  CE2       -0.4630  101.4070  -21.7310 C.ar  292  TYR292      0.0417
     77  CZ        -1.2370  102.5460  -21.8270 C.ar  292  TYR292      0.1957
     78  OH        -0.7430  103.7320  -21.3310 O.3   292  TYR292     -0.2866
     79  N         -4.8460   97.0050  -27.7690 N.3   295  GLY295     -0.1210
     80  CA        -3.6970   97.6640  -28.3630 C.3   295  GLY295      0.1956
     81  C         -3.4140   99.0650  -27.8810 C.2   295  GLY295      0.2612
     82  O         -2.4970   99.2420  -27.1110 O.2   295  GLY295     -0.2717
     83  N         -4.1800  100.0520  -28.3340 N.am  296  SER296     -0.1952
     84  CA        -4.0220  101.4180  -27.8530 C.3   296  SER296      0.1924
     85  C         -5.3850  102.0550  -27.6130 C.2   296  SER296      0.2314
     86  O         -5.4880  103.1020  -26.9750 O.2   296  SER296     -0.2863
     87  CB        -3.1910  102.2700  -28.8120 C.3   296  SER296      0.2116
     88  OG        -3.8460  102.3970  -30.0620 O.3   296  SER296     -0.2180
     89  N         -2.4890   92.1120  -28.7100 N.3   329  ASN329     -0.1225
     90  CA        -2.5040   93.5150  -28.3270 C.3   329  ASN329      0.1785
     91  C         -1.5220   94.3620  -29.1320 C.2   329  ASN329      0.2597
     92  O         -0.9980   95.3640  -28.6390 O.2   329  ASN329     -0.2718
     93  CB        -2.2790   93.6620  -26.8180 C.3   329  ASN329      0.1169
     94  CG        -3.0470   92.6110  -26.0030 C.2   329  ASN329      0.2627
     95  OD1       -2.5320   92.0860  -25.0130 O.2   329  ASN329     -0.2716
     96  ND2       -4.2740   92.2920  -26.4290 N.am  329  ASN329     -0.0877
     97  N         -1.2860   93.9260  -30.3710 N.am  330  ILE330     -0.1966
     98  CA        -0.5850   94.6920  -31.4000 C.3   330  ILE330      0.1727
     99  C         -1.6200   95.2140  -32.3990 C.2   330  ILE330      0.2616
    100  O         -2.4840   94.4620  -32.8540 O.2   330  ILE330     -0.2715
    101  CB         0.4130   93.8090  -32.1640 C.3   330  ILE330      0.0290
    102  CG1        1.2670   92.9910  -31.1930 C.3   330  ILE330      0.0022
    103  CG2        1.2790   94.6570  -33.0710 C.3   330  ILE330      0.0023
    104  CD1        2.1320   91.9400  -31.8550 C.3   330  ILE330      0.0001
    105  N         -1.5460   96.4890  -32.7590 N.am  331  ASN331     -0.1958
    106  CA        -2.6570   97.0650  -33.5110 C.3   331  ASN331      0.1819
    107  C         -2.3670   98.1950  -34.5140 C.2   331  ASN331      0.2621
    108  O         -3.2250   99.0520  -34.7320 O.2   331  ASN331     -0.2715
    109  CB        -3.7280   97.5380  -32.5270 C.3   331  ASN331      0.1195
    110  CG        -3.4410   98.9230  -31.9770 C.2   331  ASN331      0.2630
    111  OD1       -2.3100   99.4150  -32.0320 O.2   331  ASN331     -0.2716
    112  ND2       -4.4720   99.5640  -31.4490 N.am  331  ASN331     -0.0877
    113  N         -1.1900   98.2140  -35.1320 N.am  332  GLU332     -0.1977
    114  CA        -0.9220   99.2580  -36.1190 C.3   332  GLU332      0.1602
    115  C         -1.8880   99.1010  -37.2810 C.2   332  GLU332      0.2287
    116  O         -2.4340  100.0780  -37.8060 O.2   332  GLU332     -0.2864
    117  CB         0.5180   99.2020  -36.6140 C.3   332  GLU332      0.0415
    118  CG         1.4790  100.0360  -35.7950 C.3   332  GLU332      0.1163
    119  CD         2.0790   99.2700  -34.6370 C.2   332  GLU332      0.3649
    120  OE1        1.7660   98.0690  -34.4950 O.co2 332  GLU332     -0.2457
    121  OE2        2.8710   99.8700  -33.8790 O.co2 332  GLU332     -0.2457
    122  N          3.0870   92.6290  -22.4340 N.3   380  TRP380     -0.1241
    123  CA         1.9560   93.3710  -22.9900 C.3   380  TRP380      0.1605
    124  C          1.3620   92.6780  -24.2080 C.2   380  TRP380      0.2264
    125  O          0.3100   93.0750  -24.7080 O.2   380  TRP380     -0.2867
    126  CB         2.3810   94.7940  -23.3630 C.3   380  TRP380      0.0550
    127  CG         3.5050   94.8220  -24.3510 C.ar  380  TRP380      0.0003
    128  CD1        4.8350   94.9480  -24.0750 C.ar  380  TRP380      0.0946
    129  CD2        3.4080   94.7000  -25.7760 C.ar  380  TRP380      0.0152
    130  NE1        5.5670   94.9210  -25.2370 N.ar  380  TRP380     -0.2442
    131  CE2        4.7020   94.7660  -26.3060 C.ar  380  TRP380      0.0810
    132  CE3        2.3310   94.5430  -26.6660 C.ar  380  TRP380      0.0012
    133  CZ2        4.9740   94.6800  -27.6640 C.ar  380  TRP380      0.0191
    134  CZ3        2.5950   94.4610  -28.0180 C.ar  380  TRP380      0.0001
    135  CH2        3.9020   94.5320  -28.5050 C.ar  380  TRP380      0.0015
@<TRIPOS>BOND
     1   116   115    2
     2   115   114    1
     3   117   114    1
     4   117   118    1
     5   114   113    1
     6   118   119    1
     7   113   107   am
     8   108   107    2
     9   119   120   ar
    10   119   121   ar
    11   107   106    1
    12   106   105    1
    13   106   109    1
    14    26    25    2
    15    35    33   ar
    16    35    36   ar
    17   103   101    1
    18   100    99    2
    19   105    99   am
    20    33    30   ar
    21   109   110    1
    22    99    98    1
    23    36    34   ar
    24    25    24    1
    25   101    98    1
    26   101   102    1
    27   111   110    2
    28   110   112   am
    29   104   102    1
    30    37    38    1
    31    98    97    1
    32    24    27    1
    33    24    23    1
    34    30    32   ar
    35    30    28   ar
    36    44    42   ar
    37    44    46   ar
    38    34    32   ar
    39    41    38    1
    40    41    42    1
    41    27    28    1
    42    38    39    1
    43    32    31   ar
    44    42    43   ar
    45    97    91   am
    46    28    29   ar
    47    46    45   ar
    48    88    87    1
    49    91    92    2
    50    91    90    1
    51    31    29   ar
    52    43    45   ar
    53    39    40    2
    54    87    84    1
    55    89    90    1
    56   135   134   ar
    57   135   133   ar
    58    80    81    1
    59    80    79    1
    60    83    81   am
    61    83    84    1
    62    90    93    1
    63   134   132   ar
    64    81    82    2
    65    84    85    1
    66    57    56    1
    67   133   131   ar
    68    85    86    2
    69    58    56    1
    70    19    18    2
    71    93    94    1
    72    56    53    1
    73   132   129   ar
    74    96    94   am
    75    47    48    1
    76   131   129   ar
    77   131   130   ar
    78    51    48    1
    79    94    95    2
    80    52    53    1
    81    52    49   am
    82    18    17    1
    83     6     5    1
    84   129   127   ar
    85    53    54    1
    86    48    49    1
    87     7     5    1
    88   130   128   ar
    89    54    55    2
    90    21    20    1
    91    49    50    2
    92     5     2    1
    93   125   124    2
    94    17    20    1
    95    17    16    1
    96   127   128   ar
    97   127   126    1
    98   124   123    1
    99    70    69    2
   100    20    22    1
   101    69    68    1
   102     2     3    1
   103     2     1    1
   104     4     3    2
   105    14    15    1
   106    14    13    1
   107   126   123    1
   108    68    71    1
   109    68    67    1
   110    71    72    1
   111   123   122    1
   112    73    72   ar
   113    73    75   ar
   114    72    74   ar
   115    75    77   ar
   116    13    12    1
   117    12     9    1
   118    74    76   ar
   119    77    76   ar
   120    77    78    1
   121    62    61    2
   122    10     9    1
   123    10    11    2
   124     9     8    1
   125    65    64   ar
   126    61    60    1
   127    64    66   ar
   128    64    63    1
   129    60    63    1
   130    60    59    1
