@<TRIPOS>MOLECULE
tmp/3qnqD01.pdb
 92 86 0 0 0
SMALL
GASTEIGER

@<TRIPOS>ATOM
      1  N         32.4890  105.9490  -28.3610 N.3    97  ASP97      -0.1239
      2  CA        32.6900  104.5230  -28.1390 C.3    97  ASP97       0.1674
      3  C         31.6100  103.9420  -27.2250 C.2    97  ASP97       0.2266
      4  O         31.6660  104.1250  -26.0060 O.2    97  ASP97      -0.2867
      5  CB        34.0690  104.3130  -27.5110 C.3    97  ASP97       0.1410
      6  CG        34.4610  102.8530  -27.4230 C.2    97  ASP97       0.3668
      7  OD1       35.6780  102.5900  -27.2840 O.co2  97  ASP97      -0.2456
      8  OD2       33.5660  101.9790  -27.4980 O.co2  97  ASP97      -0.2456
      9  N         30.4890  100.5840  -26.3570 N.3    99  LEU99      -0.1231
     10  CA        30.9240   99.5690  -25.4070 C.3    99  LEU99       0.1693
     11  C         31.5080  100.2690  -24.2080 C.2    99  LEU99       0.2591
     12  O         31.1740   99.9500  -23.0790 O.2    99  LEU99      -0.2718
     13  CB        31.9710   98.6360  -26.0160 C.3    99  LEU99       0.0284
     14  CG        32.3470   97.4660  -25.1060 C.3    99  LEU99       0.0019
     15  CD1       31.1020   96.6720  -24.7560 C.3    99  LEU99       0.0001
     16  CD2       33.4150   96.5620  -25.7320 C.3    99  LEU99       0.0001
     17  N         32.3870  101.2310  -24.4620 N.am  100  ALA100     -0.1980
     18  CA        33.0310  101.9710  -23.3890 C.3   100  ALA100      0.1597
     19  C         32.0040  102.6880  -22.5410 C.2   100  ALA100      0.2287
     20  O         31.7660  102.3080  -21.3970 O.2   100  ALA100     -0.2864
     21  CB        34.0430  102.9590  -23.9350 C.3   100  ALA100      0.0319
     22  N         29.9720  100.5780  -20.3030 N.3   103  ALA103     -0.1231
     23  CA        30.5690   99.8280  -19.2110 C.3   103  ALA103      0.1694
     24  C         31.1160  100.8070  -18.1980 C.2   103  ALA103      0.2591
     25  O         31.2630  100.4840  -17.0280 O.2   103  ALA103     -0.2718
     26  CB        31.6700   98.9370  -19.7190 C.3   103  ALA103      0.0304
     27  N         31.4340  102.0110  -18.6510 N.am  104  LEU104     -0.1980
     28  CA        31.9020  103.0270  -17.7330 C.3   104  LEU104      0.1596
     29  C         30.7940  103.3020  -16.7420 C.2   104  LEU104      0.2287
     30  O         31.0460  103.4390  -15.5540 O.2   104  LEU104     -0.2864
     31  CB        32.2600  104.3200  -18.4540 C.3   104  LEU104      0.0297
     32  CG        32.9410  105.3230  -17.5220 C.3   104  LEU104      0.0022
     33  CD1       34.4130  105.0280  -17.4910 C.3   104  LEU104      0.0001
     34  CD2       32.7050  106.7470  -17.9660 C.3   104  LEU104      0.0001
     35  N         31.6900  111.8640  -20.6210 N.3   158  TYR158     -0.1241
     36  CA        32.5920  111.0480  -21.4020 C.3   158  TYR158      0.1605
     37  C         32.6140  111.4960  -22.8570 C.2   158  TYR158      0.2264
     38  O         33.6810  111.6610  -23.4460 O.2   158  TYR158     -0.2867
     39  CB        32.1770  109.5860  -21.2980 C.3   158  TYR158      0.0534
     40  CG        32.9580  108.6720  -22.1950 C.ar  158  TYR158     -0.0201
     41  CD1       34.2320  108.2540  -21.8480 C.ar  158  TYR158     -0.0009
     42  CD2       32.4200  108.2190  -23.3870 C.ar  158  TYR158     -0.0009
     43  CE1       34.9500  107.4170  -22.6630 C.ar  158  TYR158      0.0417
     44  CE2       33.1290  107.3810  -24.2080 C.ar  158  TYR158      0.0417
     45  CZ        34.3950  106.9830  -23.8440 C.ar  158  TYR158      0.1957
     46  OH        35.1090  106.1460  -24.6700 O.3   158  TYR158     -0.2866
     47  N         44.9510   98.2720  -32.8640 N.3   176  PRO176     -0.2102
     48  CA        43.7340   99.0580  -32.6010 C.3   176  PRO176      0.1504
     49  C         43.1780   98.8300  -31.1890 C.2   176  PRO176      0.2575
     50  O         42.7710   99.7800  -30.5120 O.2   176  PRO176     -0.2718
     51  CB        42.7400   98.5250  -33.6420 C.3   176  PRO176      0.0282
     52  CG        43.3210   97.2060  -34.0770 C.3   176  PRO176      0.0208
     53  CD        44.7880   97.3700  -34.0090 C.3   176  PRO176      0.0893
     54  N         43.1650   97.5730  -30.7560 N.am  177  ALA177     -0.1980
     55  CA        42.7640   97.2340  -29.3970 C.3   177  ALA177      0.1597
     56  C         43.5280   98.0890  -28.3790 C.2   177  ALA177      0.2287
     57  O         42.9490   98.6190  -27.4300 O.2   177  ALA177     -0.2864
     58  CB        42.9890   95.7520  -29.1400 C.3   177  ALA177      0.0319
     59  N         42.4450  101.8570  -28.7940 N.3   180  ARG180     -0.1231
     60  CA        41.1050  102.1250  -28.2630 C.3   180  ARG180      0.1694
     61  C         41.0840  102.2890  -26.7480 C.2   180  ARG180      0.2592
     62  O         40.4670  103.2240  -26.2310 O.2   180  ARG180     -0.2718
     63  CB        40.1100  101.0420  -28.6870 C.3   180  ARG180      0.0321
     64  CG        38.6660  101.3120  -28.2590 C.3   180  ARG180      0.0489
     65  CD        37.7610  100.3350  -28.9910 C.3   180  ARG180      0.2205
     66  NE        36.3490  100.3720  -28.6220 N.pl3 180  ARG180     -0.0865
     67  CZ        35.4590   99.4400  -28.9680 C.cat 180  ARG180      0.5346
     68  NH1       35.8340   98.3840  -29.6790 N.pl3 180  ARG180      0.1354
     69  NH2       34.1910   99.5550  -28.5890 N.pl3 180  ARG180      0.1354
     70  N         41.7350  101.3720  -26.0380 N.am  181  SER181     -0.1952
     71  CA        41.8050  101.4600  -24.5870 C.3   181  SER181      0.1924
     72  C         42.2940  102.8280  -24.1500 C.2   181  SER181      0.2314
     73  O         41.5260  103.6540  -23.6690 O.2   181  SER181     -0.2863
     74  CB        42.7270  100.3840  -24.0260 C.3   181  SER181      0.2116
     75  OG        42.2610   99.1030  -24.3970 O.3   181  SER181     -0.2180
     76  N         40.1820  105.8440  -24.1440 N.3   184  ALA184     -0.1231
     77  CA        39.2160  106.0010  -23.0610 C.3   184  ALA184      0.1694
     78  C         39.8550  106.2880  -21.6950 C.2   184  ALA184      0.2591
     79  O         39.2170  106.8750  -20.8190 O.2   184  ALA184     -0.2718
     80  CB        38.3210  104.7690  -22.9730 C.3   184  ALA184      0.0304
     81  N         41.1040  105.8690  -21.5100 N.am  185  LEU185     -0.1980
     82  CA        41.7810  106.0270  -20.2270 C.3   185  LEU185      0.1596
     83  C         41.5470  107.4110  -19.6460 C.2   185  LEU185      0.2287
     84  O         40.8250  107.5540  -18.6680 O.2   185  LEU185     -0.2864
     85  CB        43.2770  105.7560  -20.3630 C.3   185  LEU185      0.0297
     86  CG        44.0060  105.3150  -19.0940 C.3   185  LEU185      0.0022
     87  CD1       43.1060  104.4800  -18.2100 C.3   185  LEU185      0.0001
     88  CD2       45.2580  104.5370  -19.4690 C.3   185  LEU185      0.0001
     89  N         37.8040  108.2650  -19.0860 N.3   188  GLY188     -0.1225
     90  CA        37.2710  107.3730  -18.0750 C.3   188  GLY188      0.1811
     91  C         37.7700  107.7110  -16.6820 C.2   188  GLY188      0.2280
     92  O         37.0420  107.5750  -15.6950 O.2   188  GLY188     -0.2866
@<TRIPOS>BOND
     1    52    53    1
     2    52    51    1
     3    53    47    1
     4    51    48    1
     5    47    48    1
     6    48    49    1
     7    49    54   am
     8    49    50    2
     9    54    55    1
    10    68    67    1
    11    55    58    1
    12    55    56    1
    13    65    66    1
    14    65    64    1
    15    67    66    2
    16    67    69    1
    17    59    60    1
    18    63    60    1
    19    63    64    1
    20    56    57    2
    21     1     2    1
    22    60    61    1
    23     2     5    1
    24     2     3    1
    25     5     6    1
    26     8     6   ar
    27     6     7   ar
    28     3     4    2
    29    61    62    2
    30    61    70   am
    31     9    10    1
    32    70    71    1
    33    13    10    1
    34    13    14    1
    35    16    14    1
    36    10    11    1
    37    14    15    1
    38    46    45    1
    39    71    72    1
    40    71    74    1
    41    17    11   am
    42    17    18    1
    43    75    74    1
    44    11    12    2
    45    44    45   ar
    46    44    42   ar
    47    72    73    2
    48    76    77    1
    49    21    18    1
    50    45    43   ar
    51    38    37    2
    52    18    19    1
    53    42    40   ar
    54    77    80    1
    55    77    78    1
    56    37    36    1
    57    43    41   ar
    58    19    20    2
    59    40    41   ar
    60    40    39    1
    61    78    81   am
    62    78    79    2
    63    81    82    1
    64    36    39    1
    65    36    35    1
    66    85    82    1
    67    85    86    1
    68    22    23    1
    69    82    83    1
    70    26    23    1
    71    83    84    2
    72    88    86    1
    73    23    24    1
    74    86    87    1
    75    89    90    1
    76    27    24   am
    77    27    28    1
    78    31    28    1
    79    31    32    1
    80    24    25    2
    81    90    91    1
    82    34    32    1
    83    28    29    1
    84    32    33    1
    85    29    30    2
    86    91    92    2
