@<TRIPOS>MOLECULE
tmp/3qntA00.pdb
 79 75 0 0 0
SMALL
GASTEIGER

@<TRIPOS>ATOM
      1  N        -12.3650  -40.7750  -13.7980 N.3    17  GLU17      -0.1231
      2  CA       -13.1960  -40.6790  -14.9870 C.3    17  GLU17       0.1699
      3  C        -13.9230  -41.9960  -15.1820 C.2    17  GLU17       0.2592
      4  O        -13.3600  -43.0640  -14.9500 O.2    17  GLU17      -0.2718
      5  CB       -12.3270  -40.3980  -16.2110 C.3    17  GLU17       0.0402
      6  CG       -11.4560  -39.1520  -16.0970 C.3    17  GLU17       0.1161
      7  CD       -11.9240  -38.0110  -16.9840 C.2    17  GLU17       0.3649
      8  OE1      -12.4320  -36.9980  -16.4420 O.co2  17  GLU17      -0.2457
      9  OE2      -11.7750  -38.1340  -18.2240 O.co2  17  GLU17      -0.2457
     10  N        -15.1760  -41.9150  -15.6120 N.am   18  CYS18      -0.1956
     11  CA       -15.9920  -43.1000  -15.8450 C.3    18  CYS18       0.1843
     12  C        -16.3120  -43.3230  -17.3250 C.2    18  CYS18       0.2626
     13  O        -16.5600  -44.4550  -17.7390 O.2    18  CYS18      -0.2714
     14  CB       -17.2770  -43.0400  -15.0160 C.3    18  CYS18       0.0997
     15  SG       -17.2590  -43.9960  -13.4600 S.3    18  CYS18      -0.0797
     16  N        -16.3100  -42.2510  -18.1160 N.am   19  GLY19      -0.1940
     17  CA       -16.5560  -42.3630  -19.5570 C.3    19  GLY19       0.2014
     18  C        -17.4630  -41.2960  -20.1440 C.2    19  GLY19       0.2638
     19  O        -17.5340  -40.1790  -19.6280 O.2    19  GLY19      -0.2714
     20  N        -18.1560  -41.6480  -21.2270 N.am   20  LYS20      -0.1977
     21  CA       -19.0450  -40.7210  -21.9390 C.3    20  LYS20       0.1596
     22  C        -20.3170  -40.4320  -21.1440 C.2    20  LYS20       0.2287
     23  O        -20.7940  -41.2860  -20.3960 O.2    20  LYS20      -0.2864
     24  CB       -19.4370  -41.2830  -23.3150 C.3    20  LYS20       0.0298
     25  CG       -18.2830  -41.8000  -24.1700 C.3    20  LYS20       0.0038
     26  CD       -18.7670  -42.2500  -25.5510 C.3    20  LYS20       0.0206
     27  CE       -17.9030  -43.3730  -26.1230 C.3    20  LYS20       0.1093
     28  NZ       -16.4570  -43.0200  -26.2190 N.3    20  LYS20      -0.1314
     29  N        -17.6110  -34.5920  -28.0070 N.3    30  THR30      -0.1203
     30  CA       -17.4540  -34.3600  -26.5700 C.3    30  THR30       0.1994
     31  C        -15.9830  -34.3900  -26.1600 C.2    30  THR30       0.2618
     32  O        -15.2780  -35.3820  -26.3710 O.2    30  THR30      -0.2717
     33  CB       -18.2860  -35.3480  -25.7100 C.3    30  THR30       0.1784
     34  OG1      -18.0530  -36.6930  -26.1500 O.3    30  THR30      -0.2211
     35  CG2      -19.7810  -35.0270  -25.8100 C.3    30  THR30       0.0376
     36  N        -15.5390  -33.2770  -25.5830 N.am   31  LEU31      -0.1965
     37  CA       -14.1460  -33.0740  -25.1940 C.3    31  LEU31       0.1728
     38  C        -13.8650  -33.5470  -23.7670 C.2    31  LEU31       0.2617
     39  O        -12.7100  -33.5860  -23.3300 O.2    31  LEU31      -0.2715
     40  CB       -13.7720  -31.5930  -25.3530 C.3    31  LEU31       0.0311
     41  CG       -13.5040  -31.1180  -26.7860 C.3    31  LEU31       0.0022
     42  CD1      -14.0470  -29.7180  -27.0260 C.3    31  LEU31       0.0001
     43  CD2      -12.0150  -31.2000  -27.1140 C.3    31  LEU31       0.0001
     44  N        -14.9230  -33.9110  -23.0490 N.am   32  SER32      -0.1936
     45  CA       -14.7900  -34.3650  -21.6700 C.3    32  SER32       0.2055
     46  C        -15.4560  -35.7080  -21.4350 C.2    32  SER32       0.2643
     47  O        -16.4750  -36.0330  -22.0490 O.2    32  SER32      -0.2714
     48  CB       -15.3760  -33.3320  -20.7030 C.3    32  SER32       0.2130
     49  OG       -14.5780  -32.1630  -20.6550 O.3    32  SER32      -0.2179
     50  N        -14.8480  -36.4880  -20.5500 N.am   33  ASN33      -0.1971
     51  CA       -15.5080  -37.6280  -19.9420 C.3    33  ASN33       0.1688
     52  C        -16.2130  -37.1940  -18.6610 C.2    33  ASN33       0.2292
     53  O        -16.1170  -36.0370  -18.2450 O.2    33  ASN33      -0.2864
     54  CB       -14.5050  -38.7390  -19.6420 C.3    33  ASN33       0.1181
     55  CG       -14.3510  -39.7170  -20.7880 C.2    33  ASN33       0.2629
     56  OD1      -15.0580  -39.6370  -21.7960 O.2    33  ASN33      -0.2716
     57  ND2      -13.4300  -40.6690  -20.6230 N.am   33  ASN33      -0.0877
     58  N         -6.3650  -37.6770  -14.7460 N.3    73  LYS73      -0.1245
     59  CA        -7.2640  -37.8350  -15.8850 C.3    73  LYS73       0.1561
     60  C         -8.3580  -36.7650  -15.9050 C.2    73  LYS73       0.2260
     61  O         -8.7410  -36.2850  -16.9710 O.2    73  LYS73      -0.2867
     62  CB        -7.8980  -39.2280  -15.8440 C.3    73  LYS73       0.0271
     63  CG        -7.8580  -39.9920  -17.1570 C.3    73  LYS73       0.0035
     64  CD        -6.6380  -40.9070  -17.2240 C.3    73  LYS73       0.0206
     65  CE        -6.5540  -41.6430  -18.5570 C.3    73  LYS73       0.1093
     66  NZ        -6.0500  -40.7690  -19.6600 N.3    73  LYS73      -0.1314
     67  N         -7.2620  -33.1420  -17.2280 N.3    76  VAL76      -0.1231
     68  CA        -7.1920  -33.0430  -18.6840 C.3    76  VAL76       0.1692
     69  C         -8.5900  -32.7910  -19.2610 C.2    76  VAL76       0.2592
     70  O         -8.7530  -31.9860  -20.1870 O.2    76  VAL76      -0.2718
     71  CB        -6.5520  -34.3130  -19.3130 C.3    76  VAL76       0.0266
     72  CG1       -6.6250  -34.2730  -20.8390 C.3    76  VAL76       0.0020
     73  CG2       -5.1020  -34.4750  -18.8480 C.3    76  VAL76       0.0020
     74  N         -9.5900  -33.4750  -18.7020 N.am   77  SER77      -0.1952
     75  CA       -10.9830  -33.2750  -19.0880 C.3    77  SER77       0.1924
     76  C        -11.4680  -31.8850  -18.7070 C.2    77  SER77       0.2314
     77  O        -12.3170  -31.3070  -19.3900 O.2    77  SER77      -0.2863
     78  CB       -11.8790  -34.3280  -18.4430 C.3    77  SER77       0.2116
     79  OG       -11.9030  -35.5120  -19.2170 O.3    77  SER77      -0.2180
@<TRIPOS>BOND
     1    29    30    1
     2    43    41    1
     3    42    41    1
     4    41    40    1
     5    30    31    1
     6    30    33    1
     7    32    31    2
     8    28    27    1
     9    31    36   am
    10    34    33    1
    11    27    26    1
    12    35    33    1
    13    36    37    1
    14    26    25    1
    15    40    37    1
    16    37    38    1
    17    25    24    1
    18    38    39    2
    19    38    44   am
    20    24    21    1
    21    44    45    1
    22    47    46    2
    23    21    20    1
    24    21    22    1
    25    56    55    2
    26    45    46    1
    27    45    48    1
    28    46    50   am
    29    20    18   am
    30    22    23    2
    31    72    71    1
    32    55    57   am
    33    55    54    1
    34    48    49    1
    35    50    51    1
    36    70    69    2
    37    18    19    2
    38    18    17    1
    39    51    54    1
    40    51    52    1
    41    66    65    1
    42    17    16    1
    43    77    76    2
    44    71    73    1
    45    71    68    1
    46    69    74   am
    47    69    68    1
    48    79    78    1
    49    75    76    1
    50    75    74    1
    51    75    78    1
    52    68    67    1
    53    52    53    2
    54    65    64    1
    55     9     7   ar
    56    16    12   am
    57    13    12    2
    58    12    11    1
    59    64    63    1
    60    63    62    1
    61     7     8   ar
    62     7     6    1
    63    61    60    2
    64     5     6    1
    65     5     2    1
    66    60    59    1
    67    59    62    1
    68    59    58    1
    69    11    10    1
    70    11    14    1
    71    10     3   am
    72     3     2    1
    73     3     4    2
    74    14    15    1
    75     2     1    1
