@<TRIPOS>MOLECULE
tmp/3qntA01.pdb
 111 108 0 0 0
SMALL
GASTEIGER

@<TRIPOS>ATOM
      1  N        -32.0850  -43.6040   -3.1450 N.3     1  GLU1       -0.1231
      2  CA       -30.7190  -43.7260   -2.5540 C.3     1  GLU1        0.1684
      3  C        -29.9490  -42.4030   -2.6330 C.2     1  GLU1        0.2434
      4  O        -29.8650  -41.8000   -3.7060 O.2     1  GLU1       -0.2733
      5  CB       -29.9230  -44.8260   -3.2650 C.3     1  GLU1        0.0402
      6  CG       -28.5840  -45.1510   -2.6030 C.3     1  GLU1        0.1161
      7  CD       -27.4730  -45.3940   -3.6080 C.2     1  GLU1        0.3649
      8  OE1      -27.7190  -46.0770   -4.6300 O.co2   1  GLU1       -0.2457
      9  OE2      -26.3470  -44.9000   -3.3750 O.co2   1  GLU1       -0.2457
     10  N        -29.3810  -41.9500   -1.4960 N.am    2  PRO2       -0.2718
     11  CA       -28.5430  -40.7500   -1.5250 C.3     2  PRO2        0.1535
     12  C        -27.2030  -41.0400   -2.1900 C.2     2  PRO2        0.2599
     13  O        -26.6840  -42.1560   -2.0730 O.2     2  PRO2       -0.2715
     14  CB       -28.3420  -40.4210   -0.0430 C.3     2  PRO2        0.0310
     15  CG       -28.4920  -41.7300    0.6590 C.3     2  PRO2        0.0237
     16  CD       -29.4930  -42.5190   -0.1380 C.3     2  PRO2        0.0939
     17  N        -26.6580  -40.0440   -2.8850 N.am    3  TYR3       -0.1960
     18  CA       -25.3880  -40.1960   -3.5910 C.3     3  TYR3        0.1771
     19  C        -24.2350  -39.4680   -2.8990 C.2     3  TYR3        0.2620
     20  O        -23.0880  -39.9260   -2.9380 O.2     3  TYR3       -0.2715
     21  CB       -25.5200  -39.7440   -5.0480 C.3     3  TYR3        0.0574
     22  CG       -26.5640  -40.4970   -5.8470 C.ar    3  TYR3       -0.0198
     23  CD1      -27.6040  -39.8200   -6.4880 C.ar    3  TYR3       -0.0009
     24  CD2      -26.5130  -41.8880   -5.9640 C.ar    3  TYR3       -0.0009
     25  CE1      -28.5690  -40.5100   -7.2250 C.ar    3  TYR3        0.0417
     26  CE2      -27.4720  -42.5870   -6.6920 C.ar    3  TYR3        0.0417
     27  CZ       -28.4950  -41.8940   -7.3200 C.ar    3  TYR3        0.1957
     28  OH       -29.4370  -42.5920   -8.0380 O.3     3  TYR3       -0.2866
     29  N        -24.5380  -38.3340   -2.2770 N.am    4  THR4       -0.1951
     30  CA       -23.5560  -37.6200   -1.4710 C.3     4  THR4        0.1897
     31  C        -24.1000  -37.4790   -0.0560 C.2     4  THR4        0.2313
     32  O        -24.8090  -36.5200    0.2620 O.2     4  THR4       -0.2863
     33  CB       -23.2100  -36.2380   -2.0550 C.3     4  THR4        0.1794
     34  OG1      -23.1140  -36.3320   -3.4790 O.3     4  THR4       -0.2208
     35  CG2      -21.8820  -35.7420   -1.5000 C.3     4  THR4        0.0378
     36  N        -21.0340  -34.9590    3.7600 N.3     7  HIS7       -0.1241
     37  CA       -20.6640  -33.5990    3.3980 C.3     7  HIS7        0.1621
     38  C        -19.6750  -33.0950    4.4360 C.2     7  HIS7        0.2264
     39  O        -20.0560  -32.3980    5.3720 O.2     7  HIS7       -0.2867
     40  CB       -21.8920  -32.6790    3.3350 C.3     7  HIS7        0.0745
     41  CG       -22.9340  -33.1160    2.3500 C.ar    7  HIS7        0.0817
     42  ND1      -22.7610  -33.0200    0.9850 N.ar    7  HIS7       -0.2268
     43  CD2      -24.1700  -33.6350    2.5350 C.ar    7  HIS7        0.1154
     44  CE1      -23.8390  -33.4720    0.3730 C.ar    7  HIS7        0.1986
     45  NE2      -24.7100  -33.8500    1.2910 N.ar    7  HIS7       -0.2212
     46  N        -23.2980  -31.6820   -4.2000 N.3   117  ASN117     -0.1225
     47  CA       -24.2190  -32.7610   -3.8750 C.3   117  ASN117      0.1785
     48  C        -24.7230  -33.3620   -5.1830 C.2   117  ASN117      0.2597
     49  O        -25.4990  -32.7190   -5.8940 O.2   117  ASN117     -0.2718
     50  CB       -25.3790  -32.2010   -3.0390 C.3   117  ASN117      0.1169
     51  CG       -26.4110  -33.2510   -2.6750 C.2   117  ASN117      0.2627
     52  OD1      -26.0900  -34.2640   -2.0470 O.2   117  ASN117     -0.2716
     53  ND2      -27.6690  -33.0050   -3.0680 N.am  117  ASN117     -0.0877
     54  N        -24.2710  -34.5710   -5.5220 N.am  118  VAL118     -0.1966
     55  CA       -24.6490  -35.1640   -6.8110 C.3   118  VAL118      0.1727
     56  C        -26.1000  -35.6290   -6.7700 C.2   118  VAL118      0.2616
     57  O        -26.5300  -36.2440   -5.7970 O.2   118  VAL118     -0.2715
     58  CB       -23.6480  -36.2580   -7.3500 C.3   118  VAL118      0.0290
     59  CG1      -22.2970  -36.1880   -6.6370 C.3   118  VAL118      0.0023
     60  CG2      -24.2290  -37.6600   -7.2870 C.3   118  VAL118      0.0023
     61  N        -26.8470  -35.3100   -7.8230 N.am  119  THR119     -0.1951
     62  CA       -28.2920  -35.5460   -7.8500 C.3   119  THR119      0.1897
     63  C        -28.7010  -36.7470   -8.6980 C.2   119  THR119      0.2313
     64  O        -29.6560  -37.4430   -8.3680 O.2   119  THR119     -0.2863
     65  CB       -29.0730  -34.2920   -8.3050 C.3   119  THR119      0.1794
     66  OG1      -28.5150  -33.7830   -9.5250 O.3   119  THR119     -0.2208
     67  CG2      -29.0150  -33.2120   -7.2280 C.3   119  THR119      0.0378
     68  N        -25.4790  -30.5870   -8.0170 N.3   136  GLU136     -0.1245
     69  CA       -25.7410  -29.1940   -7.6790 C.3   136  GLU136      0.1567
     70  C        -24.5860  -28.5770   -6.8900 C.2   136  GLU136      0.2260
     71  O        -24.0740  -29.1770   -5.9430 O.2   136  GLU136     -0.2867
     72  CB       -27.0830  -29.0340   -6.9480 C.3   136  GLU136      0.0388
     73  CG       -27.3360  -30.0310   -5.8200 C.3   136  GLU136      0.1160
     74  CD       -28.7960  -30.0900   -5.3810 C.2   136  GLU136      0.3649
     75  OE1      -29.6550  -29.4460   -6.0190 O.co2 136  GLU136     -0.2457
     76  OE2      -29.0870  -30.7910   -4.3890 O.co2 136  GLU136     -0.2457
     77  N        -23.3470  -25.5010   -4.5100 N.3   138  PHE138     -0.1241
     78  CA       -23.8330  -24.4860   -3.5820 C.3   138  PHE138      0.1605
     79  C        -22.7670  -23.4160   -3.3800 C.2   138  PHE138      0.2264
     80  O        -21.6930  -23.6840   -2.8360 O.2   138  PHE138     -0.2867
     81  CB       -24.2250  -25.1150   -2.2450 C.3   138  PHE138      0.0534
     82  CG       -25.2440  -26.2110   -2.3620 C.ar  138  PHE138     -0.0203
     83  CD1      -24.8440  -27.5410   -2.4830 C.ar  138  PHE138     -0.0042
     84  CD2      -26.6070  -25.9190   -2.3400 C.ar  138  PHE138     -0.0042
     85  CE1      -25.7880  -28.5680   -2.5850 C.ar  138  PHE138     -0.0003
     86  CE2      -27.5600  -26.9380   -2.4410 C.ar  138  PHE138     -0.0003
     87  CZ       -27.1480  -28.2660   -2.5640 C.ar  138  PHE138     -0.0000
     88  N        -26.7680  -23.0670   -7.0630 N.3   200  HIS200     -0.1241
     89  CA       -27.5480  -22.4140   -6.0260 C.3   200  HIS200      0.1621
     90  C        -26.6850  -21.3150   -5.4300 C.2   200  HIS200      0.2264
     91  O        -25.5930  -21.5820   -4.9220 O.2   200  HIS200     -0.2867
     92  CB       -27.9670  -23.4170   -4.9500 C.3   200  HIS200      0.0745
     93  CG       -28.7200  -24.5970   -5.4850 C.ar  200  HIS200      0.0817
     94  ND1      -30.0570  -24.5400   -5.8150 N.ar  200  HIS200     -0.2268
     95  CD2      -28.3210  -25.8630   -5.7510 C.ar  200  HIS200      0.1154
     96  CE1      -30.4490  -25.7200   -6.2610 C.ar  200  HIS200      0.1986
     97  NE2      -29.4150  -26.5410   -6.2320 N.ar  200  HIS200     -0.2212
     98  N        -28.9790  -26.6410    6.3800 N.3   210  SER210     -0.1217
     99  CA       -28.9990  -27.4240    5.1490 C.3   210  SER210      0.1889
    100  C        -28.0620  -28.6300    5.1910 C.2   210  SER210      0.2288
    101  O        -28.2020  -29.5620    4.3980 O.2   210  SER210     -0.2866
    102  CB       -28.6480  -26.5380    3.9570 C.3   210  SER210      0.2089
    103  OG       -27.3510  -25.9930    4.1090 O.3   210  SER210     -0.2183
    104  N        -25.0330  -28.3290    4.5040 N.3   212  ILE212     -0.1245
    105  CA       -24.1720  -28.0050    3.3810 C.3   212  ILE212      0.1561
    106  C        -23.4530  -26.6930    3.7080 C.2   212  ILE212      0.2260
    107  O        -24.0150  -25.8290    4.3890 O.2   212  ILE212     -0.2867
    108  CB       -25.0120  -27.9200    2.0580 C.3   212  ILE212      0.0252
    109  CG1      -24.4180  -28.8190    0.9720 C.3   212  ILE212      0.0019
    110  CG2      -25.2520  -26.4780    1.5800 C.3   212  ILE212      0.0019
    111  CD1      -24.8860  -30.2590    1.0600 C.3   212  ILE212      0.0001
@<TRIPOS>BOND
     1    66    65    1
     2    63    64    2
     3    63    62    1
     4    65    62    1
     5    65    67    1
     6    28    27    1
     7    68    69    1
     8    62    61    1
     9    61    56   am
    10    69    72    1
    11    69    70    1
    12    58    60    1
    13    58    55    1
    14    58    59    1
    15    27    25   ar
    16    27    26   ar
    17    25    23   ar
    18    88    89    1
    19    72    73    1
    20    70    71    2
    21    55    56    1
    22    55    54    1
    23    56    57    2
    24    26    24   ar
    25    23    22   ar
    26    96    97   ar
    27    96    94   ar
    28    97    95   ar
    29    89    90    1
    30    89    92    1
    31    75    74   ar
    32    24    22   ar
    33    49    48    2
    34    22    21    1
    35    73    74    1
    36    94    93   ar
    37    95    93   ar
    38    54    48   am
    39    93    92    1
    40    90    91    2
    41    74    76   ar
    42    48    47    1
    43    21    18    1
    44     8     7   ar
    45    77    78    1
    46    46    47    1
    47    47    50    1
    48     4     3    2
    49     7     9   ar
    50     7     6    1
    51    18    19    1
    52    18    17    1
    53    78    79    1
    54    78    81    1
    55    34    33    1
    56    79    80    2
    57     5     6    1
    58     5     2    1
    59     1     2    1
    60    53    51   am
    61    50    51    1
    62    20    19    2
    63    19    29   am
    64    17    12   am
    65    51    52    2
    66     3     2    1
    67     3    10   am
    68    85    87   ar
    69    85    83   ar
    70    87    86   ar
    71    83    82   ar
    72    86    84   ar
    73    82    84   ar
    74    82    81    1
    75    29    30    1
    76    12    13    2
    77    12    11    1
    78    33    35    1
    79    33    30    1
    80    11    10    1
    81    11    14    1
    82    10    16    1
    83    30    31    1
    84    16    15    1
    85    31    32    2
    86    14    15    1
    87    44    42   ar
    88    44    45   ar
    89   109   111    1
    90   109   108    1
    91    42    41   ar
    92    45    43   ar
    93   110   108    1
    94   108   105    1
    95    41    43   ar
    96    41    40    1
    97    40    37    1
    98   105   106    1
    99   105   104    1
   100    37    36    1
   101    37    38    1
   102   106   107    2
   103   102   103    1
   104   102    99    1
   105   101   100    2
   106    38    39    2
   107    99   100    1
   108    99    98    1
