@<TRIPOS>MOLECULE
tmp/3qnwB00.pdb
 162 162 0 0 0
SMALL
GASTEIGER

@<TRIPOS>ATOM
      1  N          4.4880   -9.7240   12.1530 N.3    13  VAL13      -0.1231
      2  CA         4.9350  -11.0640   11.7730 C.3    13  VAL13       0.1692
      3  C          5.6100  -11.7800   12.9440 C.2    13  VAL13       0.2592
      4  O          6.3980  -11.1830   13.6760 O.2    13  VAL13      -0.2718
      5  CB         5.9120  -11.0070   10.5670 C.3    13  VAL13       0.0266
      6  CG1        7.1360  -10.1650   10.8980 C.3    13  VAL13       0.0020
      7  CG2        6.3200  -12.4100   10.1380 C.3    13  VAL13       0.0020
      8  N          5.2960  -13.0610   13.1150 N.am   14  ALA14      -0.1966
      9  CA         5.9440  -13.8770   14.1390 C.3    14  ALA14       0.1728
     10  C          7.3480  -14.2870   13.6840 C.2    14  ALA14       0.2616
     11  O          7.7580  -13.9830   12.5630 O.2    14  ALA14      -0.2715
     12  CB         5.1050  -15.1040   14.4350 C.3    14  ALA14       0.0334
     13  N          8.0790  -14.9770   14.5560 N.am   15  GLU15      -0.1963
     14  CA         9.4050  -15.4920   14.2160 C.3    15  GLU15       0.1733
     15  C          9.2890  -16.6760   13.2570 C.2    15  GLU15       0.2617
     16  O          8.3720  -17.4960   13.3730 O.2    15  GLU15      -0.2715
     17  CB        10.1660  -15.9190   15.4770 C.3    15  GLU15       0.0429
     18  CG        10.3700  -14.7520   16.4290 C.3    15  GLU15       0.1163
     19  CD         9.3100  -14.7570   17.5150 C.2    15  GLU15       0.3649
     20  OE1        8.3880  -15.6030   17.4960 O.co2  15  GLU15      -0.2457
     21  OE2        9.4140  -13.9010   18.4180 O.co2  15  GLU15      -0.2457
     22  N         10.2260  -16.7570   12.3130 N.am   16  GLY16      -0.1940
     23  CA        10.2470  -17.8360   11.3260 C.3    16  GLY16       0.2014
     24  C          9.1840  -17.7200   10.2440 C.2    16  GLY16       0.2639
     25  O          8.7880  -18.7260    9.6480 O.2    16  GLY16      -0.2714
     26  N          8.7180  -16.5000    9.9880 N.am   17  TYR17      -0.1959
     27  CA         7.7730  -16.2470    8.9010 C.3    17  TYR17       0.1771
     28  C          8.1850  -15.0100    8.1050 C.2    17  TYR17       0.2620
     29  O          8.9850  -14.1940    8.5690 O.2    17  TYR17      -0.2715
     30  CB         6.3480  -16.1080    9.4400 C.3    17  TYR17       0.0574
     31  CG         5.7700  -17.4200    9.9220 C.ar   17  TYR17      -0.0198
     32  CD1        5.8540  -17.7930   11.2640 C.ar   17  TYR17      -0.0009
     33  CD2        5.1490  -18.2960    9.0350 C.ar   17  TYR17      -0.0009
     34  CE1        5.3280  -18.9990   11.7100 C.ar   17  TYR17       0.0417
     35  CE2        4.6210  -19.5050    9.4700 C.ar   17  TYR17       0.0417
     36  CZ         4.7150  -19.8510   10.8080 C.ar   17  TYR17       0.1957
     37  OH         4.1960  -21.0510   11.2380 O.3    17  TYR17      -0.2866
     38  N          7.6210  -14.8820    6.9080 N.am   18  TYR18      -0.1960
     39  CA         8.0790  -13.9070    5.9260 C.3    18  TYR18       0.1771
     40  C          7.1400  -12.7090    5.8600 C.2    18  TYR18       0.2620
     41  O          5.9370  -12.8590    6.0130 O.2    18  TYR18      -0.2715
     42  CB         8.1820  -14.5750    4.5500 C.3    18  TYR18       0.0574
     43  CG         9.0880  -15.7860    4.5380 C.ar   18  TYR18      -0.0198
     44  CD1        8.6470  -17.0170    5.0230 C.ar   18  TYR18      -0.0009
     45  CD2       10.3910  -15.7010    4.0580 C.ar   18  TYR18      -0.0009
     46  CE1        9.4770  -18.1350    5.0210 C.ar   18  TYR18       0.0417
     47  CE2       11.2330  -16.8130    4.0580 C.ar   18  TYR18       0.0417
     48  CZ        10.7670  -18.0250    4.5400 C.ar   18  TYR18       0.1957
     49  OH        11.5880  -19.1260    4.5380 O.3    18  TYR18      -0.2866
     50  N          7.6990  -11.5240    5.6370 N.am   19  SER19      -0.1936
     51  CA         6.9040  -10.3120    5.4370 C.3    19  SER19       0.2055
     52  C          6.8780   -9.9800    3.9540 C.2    19  SER19       0.2643
     53  O          7.9300   -9.8400    3.3340 O.2    19  SER19      -0.2714
     54  CB         7.5080   -9.1340    6.2050 C.3    19  SER19       0.2130
     55  OG         7.4600   -9.3490    7.6030 O.3    19  SER19      -0.2179
     56  N          5.6810   -9.8600    3.3870 N.am   20  HIS20      -0.1959
     57  CA         5.5430   -9.4760    1.9870 C.3    20  HIS20       0.1787
     58  C          5.9820   -8.0240    1.8080 C.2    20  HIS20       0.2620
     59  O          5.6570   -7.1670    2.6280 O.2    20  HIS20      -0.2715
     60  CB         4.1040   -9.6550    1.5070 C.3    20  HIS20       0.0785
     61  CG         3.9220   -9.3670    0.0500 C.ar   20  HIS20       0.0821
     62  ND1        3.4860   -8.1460   -0.4180 N.ar   20  HIS20      -0.2267
     63  CD2        4.1430  -10.1330   -1.0430 C.ar   20  HIS20       0.1154
     64  CE1        3.4340   -8.1780   -1.7380 C.ar   20  HIS20       0.1986
     65  NE2        3.8280   -9.3720   -2.1410 N.ar   20  HIS20      -0.2212
     66  N          6.7220   -7.7570    0.7360 N.am   21  ARG21      -0.1977
     67  CA         7.3480   -6.4450    0.5420 C.3    21  ARG21       0.1597
     68  C          6.3300   -5.3230    0.3500 C.2    21  ARG21       0.2287
     69  O          5.1630   -5.5580    0.0380 O.2    21  ARG21      -0.2864
     70  CB         8.3170   -6.4690   -0.6440 C.3    21  ARG21       0.0334
     71  CG         9.3800   -7.5680   -0.6000 C.3    21  ARG21       0.0492
     72  CD        10.6780   -7.0910    0.0400 C.3    21  ARG21       0.2205
     73  NE        10.5290   -6.8110    1.4650 N.pl3  21  ARG21      -0.0865
     74  CZ        10.4860   -7.7380    2.4100 C.cat  21  ARG21       0.5346
     75  NH1       10.5860   -9.0180    2.0890 N.pl3  21  ARG21       0.1354
     76  NH2       10.3720   -7.3890    3.6820 N.pl3  21  ARG21       0.1354
     77  N          0.6990   -5.6110    3.7040 N.3    28  TRP28      -0.1241
     78  CA        -0.3810   -6.5320    4.0230 C.3    28  TRP28       0.1605
     79  C         -0.9290   -6.3290    5.4320 C.2    28  TRP28       0.2264
     80  O         -2.1310   -6.1500    5.6180 O.2    28  TRP28      -0.2867
     81  CB         0.0970   -7.9730    3.8740 C.3    28  TRP28       0.0550
     82  CG         0.1990   -8.4550    2.4650 C.ar   28  TRP28       0.0003
     83  CD1       -0.1200   -7.7730    1.3210 C.ar   28  TRP28       0.0946
     84  CD2        0.6050   -9.7600    2.0540 C.ar   28  TRP28       0.0152
     85  NE1        0.0850   -8.5710    0.2260 N.ar   28  TRP28      -0.2442
     86  CE2        0.5260   -9.7990    0.6480 C.ar   28  TRP28       0.0810
     87  CE3        1.0360  -10.9000    2.7400 C.ar   28  TRP28       0.0012
     88  CZ2        0.8650  -10.9380   -0.0870 C.ar   28  TRP28       0.0191
     89  CZ3        1.3740  -12.0350    2.0090 C.ar   28  TRP28       0.0001
     90  CH2        1.2840  -12.0440    0.6110 C.ar   28  TRP28       0.0015
     91  N         -3.3720  -14.4840    3.1600 N.3    60  ARG60      -0.1231
     92  CA        -2.9050  -13.7930    1.9590 C.3    60  ARG60       0.1694
     93  C         -1.8590  -14.6310    1.2410 C.2    60  ARG60       0.2592
     94  O         -0.9100  -15.1220    1.8560 O.2    60  ARG60      -0.2718
     95  CB        -2.3340  -12.4090    2.2790 C.3    60  ARG60       0.0321
     96  CG        -3.3780  -11.4110    2.7270 C.3    60  ARG60       0.0489
     97  CD        -2.7990  -10.0190    2.8730 C.3    60  ARG60       0.2205
     98  NE        -2.8480   -9.2600    1.6210 N.pl3  60  ARG60      -0.0865
     99  CZ        -3.6450   -8.2200    1.3760 C.cat  60  ARG60       0.5346
    100  NH1       -4.4920   -7.7650    2.2920 N.pl3  60  ARG60       0.1354
    101  NH2       -3.5890   -7.6200    0.1940 N.pl3  60  ARG60       0.1354
    102  N         -2.0600  -14.8070   -0.0610 N.am   61  ARG61      -0.1966
    103  CA        -1.0890  -15.4710   -0.9200 C.3    61  ARG61       0.1729
    104  C         -0.7170  -14.5270   -2.0560 C.2    61  ARG61       0.2616
    105  O         -1.3250  -13.4680   -2.2150 O.2    61  ARG61      -0.2715
    106  CB        -1.6680  -16.7790   -1.4690 C.3    61  ARG61       0.0348
    107  CG        -1.8790  -17.8120   -0.3580 C.3    61  ARG61       0.0492
    108  CD        -0.5440  -18.5330   -0.1430 C.3    61  ARG61       0.2205
    109  NE        -0.7860  -19.6700    0.8070 N.pl3  61  ARG61      -0.0865
    110  CZ        -0.8290  -19.4740    2.1240 C.cat  61  ARG61       0.5346
    111  NH1       -0.5750  -18.3070    2.7110 N.pl3  61  ARG61       0.1354
    112  NH2       -1.3080  -20.4640    2.9020 N.pl3  61  ARG61       0.1354
    113  N          0.2930  -14.9080   -2.8300 N.am   62  VAL62      -0.1977
    114  CA         0.7210  -14.1310   -3.9920 C.3    62  VAL62       0.1596
    115  C          0.7420  -15.0420   -5.2120 C.2    62  VAL62       0.2287
    116  O          0.8110  -16.2650   -5.0710 O.2    62  VAL62      -0.2864
    117  CB         2.1140  -13.4980   -3.7610 C.3    62  VAL62       0.0276
    118  CG1        3.1980  -14.5700   -3.6860 C.3    62  VAL62       0.0022
    119  CG2        2.4280  -12.4870   -4.8510 C.3    62  VAL62       0.0022
    120  N          2.0050  -17.2460   -7.4940 N.3    64  PHE64      -0.1241
    121  CA         3.2150  -18.0720   -7.5240 C.3    64  PHE64       0.1605
    122  C          3.6970  -18.3650   -8.9490 C.2    64  PHE64       0.2264
    123  O          4.8180  -18.8470   -9.1420 O.2    64  PHE64      -0.2867
    124  CB         2.9860  -19.3940   -6.7820 C.3    64  PHE64       0.0534
    125  CG         2.5010  -19.2230   -5.3690 C.ar   64  PHE64      -0.0203
    126  CD1        3.3520  -18.7400   -4.3820 C.ar   64  PHE64      -0.0042
    127  CD2        1.1940  -19.5470   -5.0260 C.ar   64  PHE64      -0.0042
    128  CE1        2.9050  -18.5800   -3.0750 C.ar   64  PHE64      -0.0003
    129  CE2        0.7410  -19.3920   -3.7210 C.ar   64  PHE64      -0.0003
    130  CZ         1.5970  -18.9100   -2.7440 C.ar   64  PHE64      -0.0000
    131  N          8.9010  -16.6900   -3.9600 N.3    70  ALA70      -0.1245
    132  CA         8.1880  -16.6560   -2.6970 C.3    70  ALA70       0.1562
    133  C          7.0280  -17.6470   -2.7360 C.2    70  ALA70       0.2260
    134  O          5.8710  -17.2580   -2.9070 O.2    70  ALA70      -0.2867
    135  CB         7.6840  -15.2440   -2.4300 C.3    70  ALA70       0.0290
    136  N          5.6250  -19.9220    1.4580 N.3    73  LYS73      -0.1231
    137  CA         5.8540  -18.9870    2.5560 C.3    73  LYS73       0.1693
    138  C          4.6670  -18.0470    2.7300 C.2    73  LYS73       0.2592
    139  O          4.0310  -17.6450    1.7500 O.2    73  LYS73      -0.2718
    140  CB         7.1250  -18.1710    2.3160 C.3    73  LYS73       0.0285
    141  CG         7.1750  -17.4330    0.9930 C.3    73  LYS73       0.0035
    142  CD         8.3770  -16.5020    0.9140 C.3    73  LYS73       0.0206
    143  CE         9.6930  -17.2470    0.7530 C.3    73  LYS73       0.1093
    144  NZ        10.7840  -16.3300    0.2890 N.3    73  LYS73      -0.1314
    145  N          4.3710  -17.7080    3.9830 N.am   74  LYS74      -0.1966
    146  CA         3.3180  -16.7530    4.2890 C.3    74  LYS74       0.1728
    147  C          3.7210  -15.8200    5.4260 C.2    74  LYS74       0.2616
    148  O          4.7340  -16.0370    6.0970 O.2    74  LYS74      -0.2715
    149  CB         2.0090  -17.4780    4.6280 C.3    74  LYS74       0.0311
    150  CG         2.0250  -18.3090    5.9040 C.3    74  LYS74       0.0038
    151  CD         1.7690  -19.7840    5.6470 C.3    74  LYS74       0.0206
    152  CE         1.4860  -20.5190    6.9580 C.3    74  LYS74       0.1093
    153  NZ         1.4590  -22.0030    6.8010 N.3    74  LYS74      -0.1314
    154  N          2.9190  -14.7750    5.6180 N.am   75  GLN75      -0.1977
    155  CA         3.0870  -13.8520    6.7310 C.3    75  GLN75       0.1601
    156  C          2.0660  -14.1820    7.8090 C.2    75  GLN75       0.2287
    157  O          0.8610  -14.0560    7.5890 O.2    75  GLN75      -0.2864
    158  CB         2.9070  -12.4080    6.2670 C.3    75  GLN75       0.0394
    159  CG         3.2710  -11.3790    7.3320 C.3    75  GLN75       0.0908
    160  CD         3.2520   -9.9580    6.8140 C.2    75  GLN75       0.2608
    161  OE1        3.2080   -9.7220    5.6090 O.2    75  GLN75      -0.2717
    162  NE2        3.2920   -8.9990    7.7270 N.am   75  GLN75      -0.0878
@<TRIPOS>BOND
     1   123   122    2
     2   122   121    1
     3   121   120    1
     4   121   124    1
     5   124   125    1
     6   125   127   ar
     7   125   126   ar
     8   115   116    2
     9   115   114    1
    10   127   129   ar
    11   119   117    1
    12   126   128   ar
    13   114   117    1
    14   114   113    1
    15   131   132    1
    16   117   118    1
    17   129   130   ar
    18   128   130   ar
    19   134   133    2
    20   113   104   am
    21   133   132    1
    22   132   135    1
    23   105   104    2
    24    65    64   ar
    25    65    63   ar
    26   104   103    1
    27    64    62   ar
    28   106   103    1
    29   106   107    1
    30    63    61   ar
    31   103   102    1
    32    70    71    1
    33    70    67    1
    34    71    72    1
    35    62    61   ar
    36   107   108    1
    37   108   109    1
    38    88    90   ar
    39    88    86   ar
    40   102    93   am
    41    69    68    2
    42    72    73    1
    43    61    60    1
    44   101    99    1
    45    85    86   ar
    46    85    83   ar
    47   144   143    1
    48    68    67    1
    49    67    66    1
    50    90    89   ar
    51    86    84   ar
    52    66    58   am
    53   143   142    1
    54   109   110    2
    55   142   141    1
    56   141   140    1
    57    93    94    2
    58    93    92    1
    59    83    82   ar
    60    99    98    2
    61    99   100    1
    62   136   137    1
    63    73    74    2
    64    60    57    1
    65    98    97    1
    66   139   138    2
    67    58    57    1
    68    58    59    2
    69    92    95    1
    70    92    91    1
    71    57    56    1
    72    89    87   ar
    73    84    82   ar
    74    84    87   ar
    75    75    74    1
    76   110   111    1
    77   110   112    1
    78    95    96    1
    79   140   137    1
    80    74    76    1
    81    82    81    1
    82   137   138    1
    83    96    97    1
    84   138   145   am
    85    53    52    2
    86    56    52   am
    87    77    78    1
    88    81    78    1
    89    52    51    1
    90   145   146    1
    91    78    79    1
    92    45    47   ar
    93    45    43   ar
    94    47    48   ar
    95   146   149    1
    96   146   147    1
    97    43    42    1
    98    43    44   ar
    99    49    48    1
   100    48    46   ar
   101    42    39    1
   102   149   150    1
   103    46    44   ar
   104   147   154   am
   105   147   148    2
   106    79    80    2
   107    51    50    1
   108    51    54    1
   109   161   160    2
   110   154   155    1
   111    50    40   am
   112   151   150    1
   113   151   152    1
   114    40    39    1
   115    40    41    2
   116    39    38    1
   117    54    55    1
   118   158   155    1
   119   158   159    1
   120   155   156    1
   121   153   152    1
   122   160   159    1
   123   160   162   am
   124    38    28   am
   125   157   156    2
   126    28    29    2
   127    28    27    1
   128    27    30    1
   129    27    26    1
   130    33    35   ar
   131    33    31   ar
   132    30    31    1
   133    35    36   ar
   134    25    24    2
   135    31    32   ar
   136    26    24   am
   137     7     5    1
   138    24    23    1
   139     5     6    1
   140     5     2    1
   141    36    37    1
   142    36    34   ar
   143    32    34   ar
   144    23    22    1
   145     2     1    1
   146     2     3    1
   147    22    15   am
   148    11    10    2
   149     3     8   am
   150     3     4    2
   151     8     9    1
   152    15    16    2
   153    15    14    1
   154    10     9    1
   155    10    13   am
   156     9    12    1
   157    14    13    1
   158    14    17    1
   159    17    18    1
   160    18    19    1
   161    20    19   ar
   162    19    21   ar
