@<TRIPOS>MOLECULE
tmp/3qo2G01.pdb
 149 147 0 0 0
SMALL
GASTEIGER

@<TRIPOS>ATOM
      1  N         50.9660   -3.3280  -20.5550 N.3     2  ASP2       -0.1225
      2  CA        49.8390   -4.0930  -20.0390 C.3     2  ASP2        0.1805
      3  C         49.2490   -5.0130  -21.1100 C.2     2  ASP2        0.2598
      4  O         48.2610   -5.7050  -20.8650 O.2     2  ASP2       -0.2718
      5  CB        48.7730   -3.1810  -19.3890 C.3     2  ASP2        0.1424
      6  CG        47.8700   -2.4640  -20.4090 C.2     2  ASP2        0.3668
      7  OD1       48.3190   -2.1640  -21.5400 O.co2   2  ASP2       -0.2456
      8  OD2       46.6980   -2.1810  -20.0580 O.co2   2  ASP2       -0.2456
      9  N         49.8810   -5.0410  -22.2830 N.am    3  VAL3       -0.1966
     10  CA        49.3660   -5.8180  -23.4140 C.3     3  VAL3        0.1727
     11  C         50.0550   -7.1700  -23.6400 C.2     3  VAL3        0.2616
     12  O         51.2770   -7.2520  -23.7080 O.2     3  VAL3       -0.2715
     13  CB        49.4360   -5.0140  -24.7110 C.3     3  VAL3        0.0290
     14  CG1       49.2120   -5.9320  -25.9100 C.3     3  VAL3        0.0023
     15  CG2       48.4190   -3.8840  -24.6780 C.3     3  VAL3        0.0023
     16  N         49.2540   -8.2240  -23.7790 N.am    4  PHE4       -0.1960
     17  CA        49.7760   -9.5760  -23.9310 C.3     4  PHE4        0.1771
     18  C         49.1400  -10.3290  -25.0970 C.2     4  PHE4        0.2619
     19  O         48.1290   -9.8990  -25.6680 O.2     4  PHE4       -0.2715
     20  CB        49.5700  -10.3800  -22.6430 C.3     4  PHE4        0.0574
     21  CG        50.3610   -9.8730  -21.4780 C.ar    4  PHE4       -0.0200
     22  CD1       49.9400   -8.7580  -20.7670 C.ar    4  PHE4       -0.0042
     23  CD2       51.5230  -10.5110  -21.0850 C.ar    4  PHE4       -0.0042
     24  CE1       50.6710   -8.2850  -19.6980 C.ar    4  PHE4       -0.0003
     25  CE2       52.2530  -10.0430  -20.0120 C.ar    4  PHE4       -0.0003
     26  CZ        51.8210   -8.9300  -19.3160 C.ar    4  PHE4       -0.0000
     27  N         49.7480  -11.4660  -25.4310 N.am    5  GLU5       -0.1963
     28  CA        49.2420  -12.3640  -26.4570 C.3     5  GLU5        0.1733
     29  C         48.1110  -13.2350  -25.9230 C.2     5  GLU5        0.2616
     30  O         48.2300  -13.8680  -24.8770 O.2     5  GLU5       -0.2715
     31  CB        50.3720  -13.2570  -26.9690 C.3     5  GLU5        0.0429
     32  CG        51.4610  -12.4850  -27.7280 C.3     5  GLU5        0.1163
     33  CD        52.6400  -12.0380  -26.8430 C.2     5  GLU5        0.3649
     34  OE1       52.6870  -12.3730  -25.6270 O.co2   5  GLU5       -0.2457
     35  OE2       53.5370  -11.3450  -27.3790 O.co2   5  GLU5       -0.2457
     36  N         47.0060  -13.2790  -26.6460 N.am    6  VAL6       -0.1963
     37  CA        45.9200  -14.1550  -26.2380 C.3     6  VAL6        0.1727
     38  C         46.0800  -15.5220  -26.8850 C.2     6  VAL6        0.2616
     39  O         46.4230  -15.6210  -28.0560 O.2     6  VAL6       -0.2715
     40  CB        44.5390  -13.5820  -26.6240 C.3     6  VAL6        0.0290
     41  CG1       43.4570  -14.6000  -26.3350 C.3     6  VAL6        0.0023
     42  CG2       44.2750  -12.2830  -25.8860 C.3     6  VAL6        0.0023
     43  N         45.8380  -16.5770  -26.1220 N.am    7  GLU7       -0.1977
     44  CA        45.6950  -17.8920  -26.7200 C.3     7  GLU7        0.1602
     45  C         44.2840  -18.0590  -27.2740 C.2     7  GLU7        0.2287
     46  O         44.0580  -17.9890  -28.4840 O.2     7  GLU7       -0.2864
     47  CB        45.9760  -18.9820  -25.7010 C.3     7  GLU7        0.0415
     48  CG        46.0490  -20.3700  -26.2980 C.3     7  GLU7        0.1163
     49  CD        46.9830  -21.2710  -25.5130 C.2     7  GLU7        0.3649
     50  OE1       48.2150  -21.0660  -25.6090 O.co2   7  GLU7       -0.2457
     51  OE2       46.4890  -22.1680  -24.7870 O.co2   7  GLU7       -0.2457
     52  N         45.7900  -16.7360  -21.5490 N.3    25  TRP25      -0.1227
     53  CA        46.9330  -15.9980  -22.0590 C.3    25  TRP25       0.1737
     54  C         48.0180  -16.9530  -22.5610 C.2    25  TRP25       0.2595
     55  O         48.3490  -17.9410  -21.8950 O.2    25  TRP25      -0.2718
     56  CB        47.4510  -15.0240  -20.9920 C.3    25  TRP25       0.0564
     57  CG        46.3800  -14.0590  -20.5680 C.ar   25  TRP25       0.0003
     58  CD1       45.4840  -14.2120  -19.5300 C.ar   25  TRP25       0.0946
     59  CD2       46.0420  -12.8210  -21.2050 C.ar   25  TRP25       0.0152
     60  NE1       44.6320  -13.1430  -19.4850 N.ar   25  TRP25      -0.2442
     61  CE2       44.9540  -12.2700  -20.4940 C.ar   25  TRP25       0.0810
     62  CE3       46.5610  -12.1190  -22.3000 C.ar   25  TRP25       0.0012
     63  CZ2       44.3840  -11.0480  -20.8390 C.ar   25  TRP25       0.0191
     64  CZ3       45.9950  -10.9050  -22.6380 C.ar   25  TRP25       0.0001
     65  CH2       44.9170  -10.3820  -21.9130 C.ar   25  TRP25       0.0015
     66  N         48.5420  -16.6740  -23.7520 N.am   26  LYS26      -0.1980
     67  CA        49.6050  -17.4910  -24.3190 C.3    26  LYS26       0.1596
     68  C         50.7870  -17.4660  -23.3670 C.2    26  LYS26       0.2287
     69  O         51.3440  -16.4010  -23.0850 O.2    26  LYS26      -0.2864
     70  CB        50.0220  -16.9710  -25.6980 C.3    26  LYS26       0.0298
     71  CG        50.4030  -18.0680  -26.6870 C.3    26  LYS26       0.0038
     72  CD        51.0450  -17.5040  -27.9690 C.3    26  LYS26       0.0206
     73  CE        50.0650  -16.6750  -28.8020 C.3    26  LYS26       0.1093
     74  NZ        50.7520  -15.7670  -29.7860 N.3    26  LYS26      -0.1314
     75  N         38.0590  -10.1090  -19.2260 N.3    36  GLU36      -0.1245
     76  CA        38.3880   -8.8330  -19.8590 C.3    36  GLU36       0.1567
     77  C         37.1420   -8.1340  -20.4090 C.2    36  GLU36       0.2260
     78  O         36.2720   -8.7780  -20.9900 O.2    36  GLU36      -0.2867
     79  CB        39.3880   -9.0440  -21.0050 C.3    36  GLU36       0.0388
     80  CG        40.7420   -9.5910  -20.5840 C.3    36  GLU36       0.1160
     81  CD        41.3050   -8.8600  -19.3830 C.2    36  GLU36       0.3649
     82  OE1       40.9370   -7.6930  -19.1890 O.co2  36  GLU36      -0.2457
     83  OE2       42.1100   -9.4490  -18.6250 O.co2  36  GLU36      -0.2457
     84  N         39.0940   -4.2800  -24.1910 N.3    40  HIS40      -0.1226
     85  CA        40.4500   -4.8020  -24.0760 C.3    40  HIS40       0.1752
     86  C         40.7870   -5.7620  -25.2110 C.2    40  HIS40       0.2595
     87  O         41.9180   -6.2200  -25.3280 O.2    40  HIS40      -0.2718
     88  CB        40.6360   -5.5180  -22.7270 C.3    40  HIS40       0.0759
     89  CG        40.9880   -4.6020  -21.5950 C.ar   40  HIS40       0.0818
     90  ND1       41.3670   -5.0650  -20.3540 N.ar   40  HIS40      -0.2268
     91  CD2       41.0140   -3.2510  -21.5160 C.ar   40  HIS40       0.1154
     92  CE1       41.6200   -4.0390  -19.5610 C.ar   40  HIS40       0.1986
     93  NE2       41.4130   -2.9280  -20.2410 N.ar   40  HIS40      -0.2212
     94  N         39.8040   -6.0670  -26.0470 N.am   41  LEU41      -0.1980
     95  CA        39.9580   -7.1100  -27.0550 C.3    41  LEU41       0.1596
     96  C         39.7840   -6.6070  -28.4840 C.2    41  LEU41       0.2287
     97  O         39.2300   -7.3100  -29.3280 O.2    41  LEU41      -0.2864
     98  CB        38.9480   -8.2200  -26.7940 C.3    41  LEU41       0.0297
     99  CG        38.9070   -8.6580  -25.3410 C.3    41  LEU41       0.0022
    100  CD1       37.5310   -9.1700  -24.9900 C.3    41  LEU41       0.0001
    101  CD2       39.9720   -9.7020  -25.0820 C.3    41  LEU41       0.0001
    102  N         42.0650   -6.1500  -30.6770 N.3    43  ASP43      -0.1225
    103  CA        42.9600   -6.9000  -31.5530 C.3    43  ASP43       0.1805
    104  C         42.8710   -8.3900  -31.2600 C.2    43  ASP43       0.2598
    105  O         43.8780   -9.0980  -31.2630 O.2    43  ASP43      -0.2718
    106  CB        44.4010   -6.4130  -31.3950 C.3    43  ASP43       0.1424
    107  CG        44.5290   -5.2800  -30.3860 C.2    43  ASP43       0.3668
    108  OD1       43.8320   -5.3130  -29.3340 O.co2  43  ASP43      -0.2456
    109  OD2       45.3360   -4.3570  -30.6480 O.co2  43  ASP43      -0.2456
    110  N         41.6550   -8.8510  -30.9920 N.am   44  CYS44      -0.1956
    111  CA        41.3810  -10.2660  -30.8020 C.3    44  CYS44       0.1843
    112  C         40.1590  -10.6250  -31.6090 C.2    44  CYS44       0.2625
    113  O         39.4910  -11.6190  -31.3210 O.2    44  CYS44      -0.2714
    114  CB        41.0850  -10.5700  -29.3400 C.3    44  CYS44       0.0997
    115  SG        42.4700  -10.3960  -28.2470 S.3    44  CYS44      -0.0797
    116  N         39.8450   -9.7980  -32.6000 N.am   45  LYS45      -0.1963
    117  CA        38.6580  -10.0200  -33.4120 C.3    45  LYS45       0.1728
    118  C         38.6260  -11.4790  -33.8530 C.2    45  LYS45       0.2616
    119  O         37.6040  -12.1620  -33.7290 O.2    45  LYS45      -0.2715
    120  CB        38.6520   -9.0820  -34.6170 C.3    45  LYS45       0.0311
    121  CG        38.3160   -7.6410  -34.2800 C.3    45  LYS45       0.0038
    122  CD        36.9110   -7.5410  -33.7190 C.3    45  LYS45       0.0206
    123  CE        36.5130   -6.1060  -33.4530 C.3    45  LYS45       0.1093
    124  NZ        37.3020   -5.5340  -32.3370 N.3    45  LYS45      -0.1314
    125  N         39.7700  -11.9630  -34.3310 N.am   46  GLU46      -0.1963
    126  CA        39.8670  -13.3350  -34.8110 C.3    46  GLU46       0.1733
    127  C         39.4400  -14.3030  -33.7250 C.2    46  GLU46       0.2616
    128  O         38.4280  -14.9850  -33.8750 O.2    46  GLU46      -0.2715
    129  CB        41.2860  -13.6680  -35.2990 C.3    46  GLU46       0.0429
    130  CG        41.8790  -12.6610  -36.2880 C.3    46  GLU46       0.1163
    131  CD        41.2690  -12.7440  -37.6820 C.2    46  GLU46       0.3649
    132  OE1       40.5260  -13.7140  -37.9550 O.co2  46  GLU46      -0.2457
    133  OE2       41.5410  -11.8370  -38.5070 O.co2  46  GLU46      -0.2457
    134  N         40.2060  -14.3460  -32.6320 N.am   47  VAL47      -0.1977
    135  CA        39.9860  -15.3150  -31.5470 C.3    47  VAL47       0.1596
    136  C         38.5980  -15.1990  -30.8790 C.2    47  VAL47       0.2287
    137  O         38.0440  -16.1880  -30.3940 O.2    47  VAL47      -0.2864
    138  CB        41.1630  -15.3090  -30.5040 C.3    47  VAL47       0.0276
    139  CG1       41.2870  -13.9720  -29.8050 C.3    47  VAL47       0.0022
    140  CG2       41.0020  -16.4180  -29.4870 C.3    47  VAL47       0.0022
    141  N         36.3660  -16.9560  -33.3910 N.3    50  GLU50      -0.1245
    142  CA        36.5920  -18.3810  -33.1760 C.3    50  GLU50       0.1567
    143  C         35.6660  -18.8510  -32.0620 C.2    50  GLU50       0.2260
    144  O         34.8860  -19.7800  -32.2570 O.2    50  GLU50      -0.2867
    145  CB        38.0640  -18.6980  -32.8340 C.3    50  GLU50       0.0388
    146  CG        38.3510  -20.2110  -32.6170 C.3    50  GLU50       0.1160
    147  CD        39.8340  -20.5600  -32.3490 C.2    50  GLU50       0.3649
    148  OE1       40.3860  -21.4140  -33.0860 O.co2  50  GLU50      -0.2457
    149  OE2       40.4420  -20.0140  -31.3930 O.co2  50  GLU50      -0.2457
@<TRIPOS>BOND
     1   133   131   ar
     2   132   131   ar
     3   131   130    1
     4   130   129    1
     5   129   126    1
     6   126   125    1
     7   126   127    1
     8   120   121    1
     9   120   117    1
    10   125   118   am
    11   121   122    1
    12   128   127    2
    13   118   119    2
    14   118   117    1
    15   127   134   am
    16   122   123    1
    17   123   124    1
    18   117   116    1
    19   141   142    1
    20   142   145    1
    21   142   143    1
    22   148   147   ar
    23   145   146    1
    24   134   135    1
    25   146   147    1
    26   116   112   am
    27   147   149   ar
    28   144   143    2
    29   112   113    2
    30   112   111    1
    31   103   106    1
    32   103   104    1
    33   103   102    1
    34   135   136    1
    35   135   138    1
    36   106   107    1
    37   105   104    2
    38   104   110   am
    39   110   111    1
    40   136   137    2
    41   111   114    1
    42   109   107   ar
    43   138   139    1
    44   138   140    1
    45   107   108   ar
    46    74    73    1
    47   114   115    1
    48    97    96    2
    49    73    72    1
    50    46    45    2
    51    96    95    1
    52    39    38    2
    53    72    71    1
    54    32    31    1
    55    32    33    1
    56    35    33   ar
    57    45    44    1
    58    95    98    1
    59    95    94    1
    60    31    28    1
    61    38    37    1
    62    38    43   am
    63    33    34   ar
    64    98    99    1
    65    44    43    1
    66    44    47    1
    67    71    70    1
    68    36    37    1
    69    36    29   am
    70    40    41    1
    71    40    37    1
    72    40    42    1
    73    28    29    1
    74    28    27    1
    75    48    47    1
    76    48    49    1
    77    94    86   am
    78    29    30    2
    79    14    13    1
    80    70    67    1
    81    19    18    2
    82    50    49   ar
    83    49    51   ar
    84    27    18   am
    85    99   101    1
    86    99   100    1
    87    87    86    2
    88    86    85    1
    89    18    17    1
    90    13    15    1
    91    13    10    1
    92    67    66    1
    93    67    68    1
    94    84    85    1
    95    85    88    1
    96    17    16    1
    97    17    20    1
    98    16    11   am
    99    66    54   am
   100    12    11    2
   101    11    10    1
   102    10     9    1
   103    68    69    2
   104    88    89    1
   105    20    21    1
   106    64    62   ar
   107    64    65   ar
   108    54    53    1
   109    54    55    2
   110    62    59   ar
   111     9     3   am
   112    53    52    1
   113    53    56    1
   114    65    63   ar
   115    89    91   ar
   116    89    90   ar
   117     7     6   ar
   118    91    93   ar
   119    21    23   ar
   120    21    22   ar
   121    59    57   ar
   122    59    61   ar
   123     3     4    2
   124     3     2    1
   125    23    25   ar
   126    79    80    1
   127    79    76    1
   128    56    57    1
   129    78    77    2
   130    63    61   ar
   131    22    24   ar
   132    80    81    1
   133    57    58   ar
   134     1     2    1
   135    61    60   ar
   136     6     8   ar
   137     6     5    1
   138    77    76    1
   139    90    92   ar
   140    93    92   ar
   141     2     5    1
   142    25    26   ar
   143    76    75    1
   144    24    26   ar
   145    58    60   ar
   146    81    82   ar
   147    81    83   ar
