@<TRIPOS>MOLECULE
tmp/3qo2G00.pdb
 102 100 0 0 0
SMALL
GASTEIGER

@<TRIPOS>ATOM
      1  N         27.7940   -8.5760  -17.0020 N.3    15  GLU15      -0.1245
      2  CA        27.8980   -8.1480  -15.6250 C.3    15  GLU15       0.1567
      3  C         27.5830   -6.6710  -15.5720 C.2    15  GLU15       0.2260
      4  O         28.3190   -5.8570  -16.1270 O.2    15  GLU15      -0.2867
      5  CB        29.2960   -8.4140  -15.0820 C.3    15  GLU15       0.0388
      6  CG        29.3440   -8.5600  -13.5740 C.3    15  GLU15       0.1160
      7  CD        30.7520   -8.7730  -13.0560 C.2    15  GLU15       0.3649
      8  OE1       31.5240   -9.5160  -13.6950 O.co2  15  GLU15      -0.2457
      9  OE2       31.0960   -8.1920  -12.0110 O.co2  15  GLU15      -0.2457
     10  N         27.4180   -4.9660  -19.1050 N.3    18  LYS18      -0.1245
     11  CA        28.5450   -5.0940  -20.0260 C.3    18  LYS18       0.1561
     12  C         28.9580   -6.5440  -20.2570 C.2    18  LYS18       0.2260
     13  O         28.7170   -7.4280  -19.4230 O.2    18  LYS18      -0.2867
     14  CB        29.7390   -4.3100  -19.4920 C.3    18  LYS18       0.0271
     15  CG        30.1360   -4.7620  -18.0920 C.3    18  LYS18       0.0035
     16  CD        31.4910   -4.2290  -17.6450 C.3    18  LYS18       0.0206
     17  CE        31.8020   -4.7610  -16.2490 C.3    18  LYS18       0.1093
     18  NZ        30.7470   -4.4010  -15.2490 N.3    18  LYS18      -0.1314
     19  N         31.8030   -9.4370  -20.7190 N.3    20  LEU20      -0.1245
     20  CA        33.1530   -9.8220  -20.3210 C.3    20  LEU20       0.1561
     21  C         33.5500  -11.1630  -20.9460 C.2    20  LEU20       0.2260
     22  O         32.7300  -12.0780  -21.0790 O.2    20  LEU20      -0.2867
     23  CB        33.2610   -9.9120  -18.7940 C.3    20  LEU20       0.0270
     24  CG        33.2020   -8.6300  -17.9580 C.3    20  LEU20       0.0019
     25  CD1       33.2540   -8.9690  -16.4900 C.3    20  LEU20       0.0001
     26  CD2       34.3310   -7.7030  -18.3070 C.3    20  LEU20       0.0001
     27  N         36.2920  -14.4290  -20.7920 N.3    22  LYS22      -0.1245
     28  CA        37.3700  -15.0970  -20.0890 C.3    22  LYS22       0.1561
     29  C         38.4960  -15.3300  -21.0780 C.2    22  LYS22       0.2260
     30  O         38.2540  -15.8010  -22.1920 O.2    22  LYS22      -0.2867
     31  CB        36.9230  -16.4210  -19.4710 C.3    22  LYS22       0.0271
     32  CG        38.0480  -17.0810  -18.6760 C.3    22  LYS22       0.0035
     33  CD        37.6200  -18.3640  -18.0030 C.3    22  LYS22       0.0206
     34  CE        37.0590  -18.1070  -16.6320 C.3    22  LYS22       0.1093
     35  NZ        36.8150  -19.3910  -15.9390 N.3    22  LYS22      -0.1314
     36  N         45.6760  -21.8990  -16.4280 N.3    30  SER30      -0.1202
     37  CA        44.3360  -21.4860  -16.0440 C.3    30  SER30       0.2020
     38  C         44.4110  -20.5610  -14.8430 C.2    30  SER30       0.2619
     39  O         43.5410  -19.7190  -14.6500 O.2    30  SER30      -0.2717
     40  CB        43.4450  -22.6960  -15.7350 C.3    30  SER30       0.2103
     41  OG        43.7600  -23.2800  -14.4850 O.3    30  SER30      -0.2182
     42  N         45.4630  -20.7130  -14.0470 N.am   31  ASP31      -0.1959
     43  CA        45.6150  -19.9250  -12.8320 C.3    31  ASP31       0.1840
     44  C         45.7760  -18.4370  -13.1340 C.2    31  ASP31       0.2622
     45  O         45.7170  -17.5990  -12.2350 O.2    31  ASP31      -0.2715
     46  CB        46.8090  -20.4230  -12.0060 C.3    31  ASP31       0.1450
     47  CG        46.5510  -21.7750  -11.3430 C.2    31  ASP31       0.3671
     48  OD1       45.4760  -21.9650  -10.7230 O.co2  31  ASP31      -0.2456
     49  OD2       47.4360  -22.6520  -11.4440 O.co2  31  ASP31      -0.2456
     50  N         45.9840  -18.1070  -14.4010 N.am   32  ASP32      -0.1957
     51  CA        46.1470  -16.7160  -14.7880 C.3    32  ASP32       0.1840
     52  C         44.9890  -16.1900  -15.6370 C.2    32  ASP32       0.2622
     53  O         44.9990  -15.0380  -16.0510 O.2    32  ASP32      -0.2715
     54  CB        47.4890  -16.5180  -15.5030 C.3    32  ASP32       0.1450
     55  CG        48.6580  -16.4820  -14.5360 C.2    32  ASP32       0.3671
     56  OD1       49.3310  -15.4330  -14.4460 O.co2  32  ASP32      -0.2456
     57  OD2       48.8970  -17.4950  -13.8490 O.co2  32  ASP32      -0.2456
     58  N         43.9960  -17.0300  -15.8960 N.am   33  ASP33      -0.1957
     59  CA        42.8200  -16.6000  -16.6500 C.3    33  ASP33       0.1840
     60  C         42.2140  -15.3390  -16.0460 C.2    33  ASP33       0.2623
     61  O         42.1570  -15.1800  -14.8250 O.2    33  ASP33      -0.2715
     62  CB        41.7570  -17.7030  -16.6880 C.3    33  ASP33       0.1450
     63  CG        42.2780  -18.9870  -17.2890 C.2    33  ASP33       0.3671
     64  OD1       43.3360  -18.9190  -17.9540 O.co2  33  ASP33      -0.2456
     65  OD2       41.6330  -20.0510  -17.1000 O.co2  33  ASP33      -0.2456
     66  N         41.7560  -14.4420  -16.9040 N.am   34  THR34      -0.1937
     67  CA        41.0860  -13.2420  -16.4360 C.3    34  THR34       0.2028
     68  C         39.8580  -12.9480  -17.2790 C.2    34  THR34       0.2642
     69  O         39.8070  -13.3060  -18.4540 O.2    34  THR34      -0.2714
     70  CB        42.0000  -12.0230  -16.5210 C.3    34  THR34       0.1808
     71  OG1       42.5240  -11.9240  -17.8440 O.3    34  THR34      -0.2208
     72  CG2       43.1290  -12.1260  -15.5410 C.3    34  THR34       0.0379
     73  N         38.8730  -12.2950  -16.6640 N.am   35  TRP35      -0.1959
     74  CA        37.7650  -11.6790  -17.3940 C.3    35  TRP35       0.1771
     75  C         38.2110  -10.3220  -17.9190 C.2    35  TRP35       0.2619
     76  O         38.7070   -9.4970  -17.1590 O.2    35  TRP35      -0.2715
     77  CB        36.5590  -11.5150  -16.4850 C.3    35  TRP35       0.0590
     78  CG        35.9850  -12.8240  -16.0290 C.ar   35  TRP35       0.0006
     79  CD1       36.1840  -13.4290  -14.8230 C.ar   35  TRP35       0.0946
     80  CD2       35.1110  -13.6900  -16.7730 C.ar   35  TRP35       0.0152
     81  NE1       35.4900  -14.6120  -14.7710 N.ar   35  TRP35      -0.2442
     82  CE2       34.8240  -14.7940  -15.9550 C.ar   35  TRP35       0.0810
     83  CE3       34.5510  -13.6360  -18.0520 C.ar   35  TRP35       0.0012
     84  CZ2       34.0090  -15.8450  -16.3790 C.ar   35  TRP35       0.0191
     85  CZ3       33.7350  -14.6770  -18.4680 C.ar   35  TRP35       0.0001
     86  CH2       33.4670  -15.7570  -17.6320 C.ar   35  TRP35       0.0015
     87  N         38.0590  -10.1090  -19.2260 N.am   36  GLU36      -0.1964
     88  CA        38.3880   -8.8330  -19.8590 C.3    36  GLU36       0.1718
     89  C         37.1420   -8.1340  -20.4090 C.2    36  GLU36       0.2458
     90  O         36.2720   -8.7780  -20.9900 O.2    36  GLU36      -0.2730
     91  CB        39.3880   -9.0440  -21.0050 C.3    36  GLU36       0.0428
     92  CG        40.7420   -9.5910  -20.5840 C.3    36  GLU36       0.1163
     93  CD        41.3050   -8.8600  -19.3830 C.2    36  GLU36       0.3649
     94  OE1       40.9370   -7.6930  -19.1890 O.co2  36  GLU36      -0.2457
     95  OE2       42.1100   -9.4490  -18.6250 O.co2  36  GLU36      -0.2457
     96  N         37.0430   -6.8080  -20.2310 N.am   37  PRO37      -0.2727
     97  CA        35.9370   -6.1300  -20.9080 C.3    37  PRO37       0.1402
     98  C         36.2340   -6.0680  -22.4020 C.2    37  PRO37       0.2269
     99  O         37.4030   -6.0730  -22.7810 O.2    37  PRO37      -0.2865
    100  CB        35.9780   -4.7290  -20.3040 C.3    37  PRO37       0.0296
    101  CG        37.3920   -4.5340  -19.9130 C.3    37  PRO37       0.0237
    102  CD        37.8680   -5.8710  -19.4490 C.3    37  PRO37       0.0939
@<TRIPOS>BOND
     1    99    98    2
     2    98    97    1
     3    30    29    2
     4    22    21    2
     5    29    28    1
     6    91    92    1
     7    91    88    1
     8    90    89    2
     9    21    20    1
    10    97   100    1
    11    97    96    1
    12    27    28    1
    13    19    20    1
    14    92    93    1
    15    89    96   am
    16    89    88    1
    17    20    23    1
    18   100   101    1
    19    12    11    1
    20    12    13    2
    21    96   102    1
    22    28    31    1
    23    11    14    1
    24    11    10    1
    25   101   102    1
    26    88    87    1
    27    14    15    1
    28    31    32    1
    29    93    94   ar
    30    93    95   ar
    31    87    75   am
    32    23    24    1
    33    32    33    1
    34    85    83   ar
    35    85    86   ar
    36    69    68    2
    37    26    24    1
    38    15    16    1
    39    83    80   ar
    40    33    34    1
    41    24    25    1
    42    64    63   ar
    43    75    74    1
    44    75    76    2
    45    71    70    1
    46    16    17    1
    47    86    84   ar
    48    74    73    1
    49    74    77    1
    50    63    65   ar
    51    63    62    1
    52    68    73   am
    53    68    67    1
    54     1     2    1
    55    66    67    1
    56    66    60   am
    57    80    78   ar
    58    80    82   ar
    59    62    59    1
    60    59    60    1
    61    59    58    1
    62    34    35    1
    63    70    67    1
    64    70    72    1
    65    77    78    1
    66    36    37    1
    67    84    82   ar
    68    17    18    1
    69     4     3    2
    70    53    52    2
    71    60    61    2
    72    37    40    1
    73    37    38    1
    74    78    79   ar
    75    82    81   ar
    76    58    52   am
    77    40    41    1
    78    52    51    1
    79     2     3    1
    80     2     5    1
    81    54    51    1
    82    54    55    1
    83     5     6    1
    84    38    39    2
    85    38    42   am
    86    79    81   ar
    87    51    50    1
    88    55    56   ar
    89    55    57   ar
    90    50    44   am
    91    42    43    1
    92     8     7   ar
    93     6     7    1
    94    44    43    1
    95    44    45    2
    96     7     9   ar
    97    43    46    1
    98    46    47    1
    99    49    47   ar
   100    47    48   ar
