@<TRIPOS>MOLECULE
tmp/3qo2A00.pdb
 124 125 0 0 0
SMALL
GASTEIGER

@<TRIPOS>ATOM
      1  N         36.2180    4.9310  -19.5990 N.3     4  ASP4       -0.1225
      2  CA        36.1540    4.3480  -18.2510 C.3     4  ASP4        0.1805
      3  C         36.9480    5.0920  -17.1750 C.2     4  ASP4        0.2598
      4  O         37.3750    4.4900  -16.1910 O.2     4  ASP4       -0.2718
      5  CB        36.5930    2.8940  -18.2720 C.3     4  ASP4        0.1424
      6  CG        35.6550    2.0290  -19.0510 C.2     4  ASP4        0.3668
      7  OD1       34.7790    1.3950  -18.4210 O.co2   4  ASP4       -0.2456
      8  OD2       35.7850    1.9980  -20.2950 O.co2   4  ASP4       -0.2456
      9  N         37.1380    6.3930  -17.3600 N.am    5  VAL5       -0.1966
     10  CA        37.7380    7.2340  -16.3380 C.3     5  VAL5        0.1727
     11  C         36.6630    7.9120  -15.4760 C.2     5  VAL5        0.2616
     12  O         35.7130    8.4960  -15.9930 O.2     5  VAL5       -0.2715
     13  CB        38.6450    8.3080  -16.9680 C.3     5  VAL5        0.0290
     14  CG1       39.1740    9.2560  -15.9030 C.3     5  VAL5        0.0023
     15  CG2       39.7830    7.6490  -17.7340 C.3     5  VAL5        0.0023
     16  N         36.8210    7.8250  -14.1580 N.am    6  PHE6       -0.1974
     17  CA        35.8860    8.4330  -13.2210 C.3     6  PHE6        0.1639
     18  C         36.6350    9.2390  -12.1760 C.2     6  PHE6        0.2290
     19  O         37.8250    9.0550  -11.9780 O.2     6  PHE6       -0.2864
     20  CB        35.0390    7.3630  -12.5350 C.3     6  PHE6        0.0560
     21  CG        34.1890    6.5540  -13.4870 C.ar    6  PHE6       -0.0200
     22  CD1       34.7250    5.4770  -14.1790 C.ar    6  PHE6       -0.0042
     23  CD2       32.8510    6.8680  -13.6880 C.ar    6  PHE6       -0.0042
     24  CE1       33.9350    4.7300  -15.0530 C.ar    6  PHE6       -0.0003
     25  CE2       32.0650    6.1220  -14.5510 C.ar    6  PHE6       -0.0003
     26  CZ        32.6090    5.0520  -15.2350 C.ar    6  PHE6       -0.0000
     27  N         51.3650   -6.9940   -5.8300 N.3    17  GLU17      -0.1245
     28  CA        50.9880   -8.2790   -6.3580 C.3    17  GLU17       0.1567
     29  C         51.8510   -8.3950   -7.5900 C.2    17  GLU17       0.2260
     30  O         51.8510   -7.4900   -8.4320 O.2    17  GLU17      -0.2867
     31  CB        49.5110   -8.2340   -6.7260 C.3    17  GLU17       0.0388
     32  CG        48.9390   -9.5230   -7.2300 C.3    17  GLU17       0.1160
     33  CD        47.4940   -9.6980   -6.8060 C.2    17  GLU17       0.3649
     34  OE1       47.2000   -9.4350   -5.6160 O.co2  17  GLU17      -0.2457
     35  OE2       46.6620  -10.0870   -7.6580 O.co2  17  GLU17      -0.2457
     36  N         35.3510    5.4190   -5.2700 N.3    27  TRP27      -0.1241
     37  CA        34.9470    6.2710   -6.3720 C.3    27  TRP27       0.1605
     38  C         33.9940    7.3460   -5.8510 C.2    27  TRP27       0.2264
     39  O         33.1490    7.0660   -5.0000 O.2    27  TRP27      -0.2867
     40  CB        34.3520    5.4090   -7.4880 C.3    27  TRP27       0.0550
     41  CG        35.3680    4.4380   -8.0090 C.ar   27  TRP27       0.0003
     42  CD1       35.5100    3.1260   -7.6600 C.ar   27  TRP27       0.0946
     43  CD2       36.4130    4.7170   -8.9470 C.ar   27  TRP27       0.0152
     44  NE1       36.5610    2.5730   -8.3300 N.ar   27  TRP27      -0.2442
     45  CE2       37.1350    3.5240   -9.1290 C.ar   27  TRP27       0.0810
     46  CE3       36.8040    5.8600   -9.6590 C.ar   27  TRP27       0.0012
     47  CZ2       38.2310    3.4370   -9.9880 C.ar   27  TRP27       0.0191
     48  CZ3       37.8900    5.7700  -10.5150 C.ar   27  TRP27       0.0001
     49  CH2       38.5930    4.5700  -10.6680 C.ar   27  TRP27       0.0015
     50  N         30.1620    7.1410   -4.9860 N.3    30  TYR30      -0.1241
     51  CA        29.9180    5.7010   -4.9160 C.3    30  TYR30       0.1605
     52  C         30.1650    5.1840   -3.5260 C.2    30  TYR30       0.2264
     53  O         30.7180    5.9030   -2.6930 O.2    30  TYR30      -0.2867
     54  CB        30.7740    4.9480   -5.9320 C.3    30  TYR30       0.0534
     55  CG        30.2690    5.1060   -7.3470 C.ar   30  TYR30      -0.0201
     56  CD1       30.6430    6.1960   -8.1130 C.ar   30  TYR30      -0.0009
     57  CD2       29.4040    4.1820   -7.9070 C.ar   30  TYR30      -0.0009
     58  CE1       30.1880    6.3540   -9.3930 C.ar   30  TYR30       0.0417
     59  CE2       28.9380    4.3460   -9.1950 C.ar   30  TYR30       0.0417
     60  CZ        29.3390    5.4420   -9.9340 C.ar   30  TYR30       0.1957
     61  OH        28.8920    5.6340  -11.2270 O.3    30  TYR30      -0.2866
     62  N         31.4910   -0.5880   -4.4140 N.3    34  ASP34      -0.1239
     63  CA        32.0090   -0.4060   -5.7640 C.3    34  ASP34       0.1674
     64  C         33.5120   -0.2390   -5.7850 C.2    34  ASP34       0.2266
     65  O         34.0860    0.0340   -6.8260 O.2    34  ASP34      -0.2867
     66  CB        31.3660    0.8080   -6.4280 C.3    34  ASP34       0.1410
     67  CG        29.9200    0.5680   -6.7990 C.2    34  ASP34       0.3668
     68  OD1       29.6930   -0.2010   -7.7560 O.co2  34  ASP34      -0.2456
     69  OD2       29.0230    1.1510   -6.1460 O.co2  34  ASP34      -0.2456
     70  N         37.3670   -0.8320   -6.0640 N.3    36  THR36      -0.1203
     71  CA        38.1510   -1.7090   -6.8930 C.3    36  THR36       0.1994
     72  C         39.6090   -1.5460   -6.5000 C.2    36  THR36       0.2618
     73  O         39.9860   -0.5600   -5.8740 O.2    36  THR36      -0.2717
     74  CB        37.9740   -1.3760   -8.4040 C.3    36  THR36       0.1784
     75  OG1       38.3140   -0.0070   -8.6390 O.3    36  THR36      -0.2211
     76  CG2       36.5520   -1.6190   -8.8640 C.3    36  THR36       0.0376
     77  N         40.4190   -2.5370   -6.8480 N.am   37  TRP37      -0.1961
     78  CA        41.8630   -2.4080   -6.8440 C.3    37  TRP37       0.1771
     79  C         42.2780   -1.9180   -8.2270 C.2    37  TRP37       0.2619
     80  O         41.7410   -2.3660   -9.2270 O.2    37  TRP37      -0.2715
     81  CB        42.5000   -3.7620   -6.5330 C.3    37  TRP37       0.0590
     82  CG        42.3780   -4.1360   -5.0930 C.ar   37  TRP37       0.0006
     83  CD1       41.4770   -4.9830   -4.5390 C.ar   37  TRP37       0.0946
     84  CD2       43.1890   -3.6440   -4.0150 C.ar   37  TRP37       0.0152
     85  NE1       41.6830   -5.0670   -3.1840 N.ar   37  TRP37      -0.2442
     86  CE2       42.7250   -4.2470   -2.8380 C.ar   37  TRP37       0.0810
     87  CE3       44.2740   -2.7560   -3.9390 C.ar   37  TRP37       0.0012
     88  CZ2       43.3040   -3.9970   -1.5930 C.ar   37  TRP37       0.0191
     89  CZ3       44.8610   -2.5190   -2.6980 C.ar   37  TRP37       0.0001
     90  CH2       44.3670   -3.1330   -1.5430 C.ar   37  TRP37       0.0015
     91  N         43.2070   -0.9830   -8.2880 N.am   38  GLU38      -0.1964
     92  CA        43.6130   -0.4160   -9.5610 C.3    38  GLU38       0.1718
     93  C         45.1240   -0.3650   -9.6390 C.2    38  GLU38       0.2458
     94  O         45.7820    0.0460   -8.6860 O.2    38  GLU38      -0.2730
     95  CB        43.0680    1.0100   -9.7360 C.3    38  GLU38       0.0428
     96  CG        41.5440    1.1490   -9.7960 C.3    38  GLU38       0.1163
     97  CD        40.9420    0.3790  -10.9380 C.2    38  GLU38       0.3649
     98  OE1       41.6800    0.0590  -11.8930 O.co2  38  GLU38      -0.2457
     99  OE2       39.7420    0.0680  -10.8690 O.co2  38  GLU38      -0.2457
    100  N         45.6820   -0.7760  -10.7820 N.am   39  PRO39      -0.2727
    101  CA        47.1290   -0.6440  -10.9880 C.3    39  PRO39       0.1402
    102  C         47.5430    0.8100  -11.0950 C.2    39  PRO39       0.2269
    103  O         46.7920    1.6350  -11.6010 O.2    39  PRO39      -0.2865
    104  CB        47.3670   -1.3670  -12.3190 C.3    39  PRO39       0.0296
    105  CG        46.0140   -1.4270  -12.9870 C.3    39  PRO39       0.0237
    106  CD        45.0190   -1.5190  -11.8690 C.3    39  PRO39       0.0939
    107  N         46.6630    3.5170  -13.7550 N.3    42  HIS42      -0.1226
    108  CA        45.3270    4.0650  -13.8050 C.3    42  HIS42       0.1752
    109  C         45.2160    5.3380  -12.9590 C.2    42  HIS42       0.2595
    110  O         44.2020    6.0240  -12.9990 O.2    42  HIS42      -0.2718
    111  CB        44.3410    3.0240  -13.2770 C.3    42  HIS42       0.0759
    112  CG        43.9960    1.9570  -14.2590 C.ar   42  HIS42       0.0818
    113  ND1       43.0540    0.9870  -13.9920 N.ar   42  HIS42      -0.2268
    114  CD2       44.4420    1.7160  -15.5150 C.ar   42  HIS42       0.1154
    115  CE1       42.9430    0.1850  -15.0370 C.ar   42  HIS42       0.1986
    116  NE2       43.7690    0.6100  -15.9780 N.ar   42  HIS42      -0.2212
    117  N         46.2600    5.6510  -12.1990 N.am   43  LEU43      -0.1980
    118  CA        46.2120    6.7400  -11.2250 C.3    43  LEU43       0.1596
    119  C         47.1640    7.8950  -11.5390 C.2    43  LEU43       0.2287
    120  O         47.5630    8.6370  -10.6320 O.2    43  LEU43      -0.2864
    121  CB        46.5530    6.2080   -9.8290 C.3    43  LEU43       0.0297
    122  CG        45.8490    4.9260   -9.3880 C.3    43  LEU43       0.0022
    123  CD1       46.5400    4.3390   -8.1620 C.3    43  LEU43       0.0001
    124  CD2       44.3860    5.1630   -9.1200 C.3    43  LEU43       0.0001
@<TRIPOS>BOND
     1     8     6   ar
     2     1     2    1
     3     6     7   ar
     4     6     5    1
     5     5     2    1
     6     2     3    1
     7    15    13    1
     8     9     3   am
     9     9    10    1
    10     3     4    2
    11    13    10    1
    12    13    14    1
    13    10    11    1
    14    12    11    2
    15   116   114   ar
    16   116   115   ar
    17   114   112   ar
    18    11    16   am
    19    26    24   ar
    20    26    25   ar
    21    24    22   ar
    22   115   113   ar
    23    25    23   ar
    24   112   113   ar
    25   112   111    1
    26    22    21   ar
    27    16    17    1
    28   108   107    1
    29   108   111    1
    30   108   109    1
    31    23    21   ar
    32    21    20    1
    33    17    20    1
    34    17    18    1
    35   110   109    2
    36   105   104    1
    37   105   106    1
    38   109   117   am
    39   104   101    1
    40   117   118    1
    41    18    19    2
    42    98    97   ar
    43   106   100    1
    44   103   102    2
    45   119   118    1
    46   119   120    2
    47    61    60    1
    48   118   121    1
    49   102   101    1
    50   101   100    1
    51    97    99   ar
    52    97    96    1
    53   100    93   am
    54    49    48   ar
    55    49    47   ar
    56    48    46   ar
    57    47    45   ar
    58    60    58   ar
    59    60    59   ar
    60   121   122    1
    61    96    95    1
    62    95    92    1
    63    46    43   ar
    64    93    92    1
    65    93    94    2
    66    92    91    1
    67    58    56   ar
    68   122   124    1
    69   122   123    1
    70    80    79    2
    71    59    57   ar
    72    45    43   ar
    73    45    44   ar
    74    43    41   ar
    75    76    74    1
    76    75    74    1
    77    30    29    2
    78    74    71    1
    79    44    42   ar
    80    91    79   am
    81    79    78    1
    82    56    55   ar
    83    41    42   ar
    84    41    40    1
    85    57    55   ar
    86    68    67   ar
    87    35    33   ar
    88    29    28    1
    89    40    37    1
    90    55    54    1
    91    32    33    1
    92    32    31    1
    93    71    72    1
    94    71    70    1
    95    77    78    1
    96    77    72   am
    97    78    81    1
    98    65    64    2
    99    33    34   ar
   100    67    66    1
   101    67    69   ar
   102    31    28    1
   103    81    82    1
   104    72    73    2
   105    66    63    1
   106    37    38    1
   107    37    36    1
   108    28    27    1
   109    54    51    1
   110    38    39    2
   111    64    63    1
   112    63    62    1
   113    82    83   ar
   114    82    84   ar
   115    50    51    1
   116    51    52    1
   117    83    85   ar
   118    84    87   ar
   119    84    86   ar
   120    87    89   ar
   121    52    53    2
   122    85    86   ar
   123    86    88   ar
   124    89    90   ar
   125    88    90   ar
