@<TRIPOS>MOLECULE
tmp/3qo6B01.pdb
 118 115 0 0 0
SMALL
GASTEIGER

@<TRIPOS>ATOM
      1  N         32.1970  -22.1580   39.6570 N.3   155  ARG155     -0.1245
      2  CA        30.9940  -21.3490   39.6960 C.3   155  ARG155      0.1563
      3  C         30.5220  -21.1450   38.2560 C.2   155  ARG155      0.2260
      4  O         31.3280  -20.9740   37.3540 O.2   155  ARG155     -0.2867
      5  CB        31.2990  -19.9970   40.3510 C.3   155  ARG155      0.0307
      6  CG        30.0840  -19.0980   40.4480 C.3   155  ARG155      0.0489
      7  CD        30.3220  -17.8340   41.2510 C.3   155  ARG155      0.2205
      8  NE        29.0810  -17.0640   41.3480 N.pl3 155  ARG155     -0.0865
      9  CZ        28.4760  -16.7500   42.4920 C.cat 155  ARG155      0.5346
     10  NH1       29.0050  -17.1400   43.6550 N.pl3 155  ARG155      0.1354
     11  NH2       27.3350  -16.0580   42.4650 N.pl3 155  ARG155      0.1354
     12  N         28.4680  -10.4900   46.7360 N.3   225  PRO225     -0.2102
     13  CA        27.6980  -10.9780   47.8910 C.3   225  PRO225      0.1504
     14  C         27.7490  -12.4880   48.1270 C.2   225  PRO225      0.2576
     15  O         27.9360  -13.2530   47.1970 O.2   225  PRO225     -0.2718
     16  CB        26.2840  -10.5310   47.5540 C.3   225  PRO225      0.0282
     17  CG        26.2630  -10.7510   46.0190 C.3   225  PRO225      0.0208
     18  CD        27.5940  -10.1850   45.5850 C.3   225  PRO225      0.0893
     19  N         27.5740  -12.9080   49.3740 N.am  226  ILE226     -0.1966
     20  CA        27.5320  -14.3230   49.6810 C.3   226  ILE226      0.1727
     21  C         26.4860  -14.5960   50.7230 C.2   226  ILE226      0.2616
     22  O         26.1780  -13.7210   51.5240 O.2   226  ILE226     -0.2715
     23  CB        28.8360  -14.8590   50.2220 C.3   226  ILE226      0.0290
     24  CG1       29.0900  -14.2900   51.6140 C.3   226  ILE226      0.0022
     25  CG2       29.9300  -14.5620   49.2530 C.3   226  ILE226      0.0023
     26  CD1       30.2410  -14.9990   52.3210 C.3   226  ILE226      0.0001
     27  N         25.9610  -15.8220   50.7080 N.am  227  LEU227     -0.1963
     28  CA        24.9440  -16.2740   51.6640 C.3   227  LEU227      0.1728
     29  C         25.6850  -16.8840   52.8120 C.2   227  LEU227      0.2617
     30  O         25.1760  -16.9900   53.9290 O.2   227  LEU227     -0.2715
     31  CB        24.0860  -17.3690   51.0570 C.3   227  LEU227      0.0311
     32  CG        22.6140  -17.1230   50.7480 C.3   227  LEU227      0.0022
     33  CD1       22.0500  -18.4100   50.1790 C.3   227  LEU227      0.0001
     34  CD2       21.8490  -16.7380   51.9900 C.3   227  LEU227      0.0001
     35  N         26.9040  -17.3120   52.5150 N.am  228  GLY228     -0.1940
     36  CA        27.7030  -17.9250   53.5420 C.3   228  GLY228      0.2014
     37  C         27.3610  -19.3890   53.7640 C.2   228  GLY228      0.2639
     38  O         27.3030  -19.8430   54.9130 O.2   228  GLY228     -0.2714
     39  N         27.0970  -20.1320   52.6840 N.am  229  ILE229     -0.1963
     40  CA        26.8300  -21.5720   52.8340 C.3   229  ILE229      0.1727
     41  C         27.6030  -22.4320   51.8330 C.2   229  ILE229      0.2616
     42  O         27.8650  -22.0100   50.7060 O.2   229  ILE229     -0.2715
     43  CB        25.3340  -21.9280   52.6780 C.3   229  ILE229      0.0290
     44  CG1       24.9090  -21.8160   51.2250 C.3   229  ILE229      0.0022
     45  CG2       24.4880  -20.9760   53.4710 C.3   229  ILE229      0.0023
     46  CD1       23.5600  -22.4120   50.9800 C.3   229  ILE229      0.0001
     47  N         28.0090  -23.6210   52.2800 N.am  230  LYS230     -0.1963
     48  CA        28.6750  -24.6030   51.4110 C.3   230  LYS230      0.1728
     49  C         27.5860  -25.6290   51.1880 C.2   230  LYS230      0.2616
     50  O         27.0620  -26.1810   52.1370 O.2   230  LYS230     -0.2715
     51  CB        29.8590  -25.2870   52.0910 C.3   230  LYS230      0.0311
     52  CG        31.1690  -24.5380   51.9520 C.3   230  LYS230      0.0038
     53  CD        32.2830  -25.2260   52.7230 C.3   230  LYS230      0.0206
     54  CE        33.5990  -24.4300   52.7290 C.3   230  LYS230      0.1093
     55  NZ        34.6710  -25.1580   53.5000 N.3   230  LYS230     -0.1314
     56  N         27.2030  -25.8550   49.9450 N.am  231  PHE231     -0.1974
     57  CA        26.1760  -26.8420   49.7090 C.3   231  PHE231      0.1639
     58  C         26.6910  -28.0890   49.0330 C.2   231  PHE231      0.2290
     59  O         27.8570  -28.1810   48.6080 O.2   231  PHE231     -0.2864
     60  CB        25.0170  -26.2720   48.8970 C.3   231  PHE231      0.0560
     61  CG        25.4300  -25.6040   47.6490 C.ar  231  PHE231     -0.0200
     62  CD1       25.9520  -24.3290   47.6770 C.ar  231  PHE231     -0.0042
     63  CD2       25.3030  -26.2440   46.4400 C.ar  231  PHE231     -0.0042
     64  CE1       26.3360  -23.7010   46.5140 C.ar  231  PHE231     -0.0003
     65  CE2       25.6820  -25.6280   45.2730 C.ar  231  PHE231     -0.0003
     66  CZ        26.2000  -24.3550   45.3060 C.ar  231  PHE231     -0.0000
     67  N         26.7500  -30.7920   46.0490 N.3   233  PRO233     -0.2116
     68  CA        26.6290  -30.7200   44.5850 C.3   233  PRO233      0.1372
     69  C         25.4190  -31.5340   44.1130 C.2   233  PRO233      0.2244
     70  O         25.0540  -32.5290   44.7390 O.2   233  PRO233     -0.2868
     71  CB        27.9490  -31.3090   44.1000 C.3   233  PRO233      0.0268
     72  CG        28.8980  -30.9350   45.2260 C.3   233  PRO233      0.0207
     73  CD        28.0800  -31.2890   46.4360 C.3   233  PRO233      0.0892
     74  N         25.1100  -27.8570   53.5310 N.3   248  LEU248     -0.1245
     75  CA        25.9370  -28.7520   54.2900 C.3   248  LEU248      0.1561
     76  C         26.4840  -27.9820   55.4760 C.2   248  LEU248      0.2260
     77  O         26.5660  -28.5080   56.5870 O.2   248  LEU248     -0.2867
     78  CB        27.0790  -29.2520   53.4130 C.3   248  LEU248      0.0270
     79  CG        26.6300  -29.9900   52.1410 C.3   248  LEU248      0.0019
     80  CD1       27.8460  -30.4470   51.3400 C.3   248  LEU248      0.0001
     81  CD2       25.7660  -31.1900   52.5230 C.3   248  LEU248      0.0001
     82  N         20.3960  -21.5070   42.3610 N.3   292  LEU292     -0.1231
     83  CA        20.8240  -20.6720   43.4740 C.3   292  LEU292      0.1693
     84  C         21.8200  -19.6460   42.9570 C.2   292  LEU292      0.2592
     85  O         21.6130  -18.4420   43.0770 O.2   292  LEU292     -0.2718
     86  CB        21.4660  -21.5290   44.5630 C.3   292  LEU292      0.0284
     87  CG        21.7960  -20.8280   45.8840 C.3   292  LEU292      0.0019
     88  CD1       20.5020  -20.2810   46.5150 C.3   292  LEU292      0.0001
     89  CD2       22.5120  -21.8170   46.8340 C.3   292  LEU292      0.0001
     90  N         22.8940  -20.1410   42.3570 N.am  293  TYR293     -0.1976
     91  CA        23.9300  -19.2890   41.8070 C.3   293  TYR293      0.1639
     92  C         23.3530  -18.1860   40.9810 C.2   293  TYR293      0.2290
     93  O         23.6070  -17.0150   41.2270 O.2   293  TYR293     -0.2864
     94  CB        24.8610  -20.0920   40.9190 C.3   293  TYR293      0.0560
     95  CG        25.9840  -20.7260   41.6720 C.ar  293  TYR293     -0.0198
     96  CD1       26.2400  -22.0970   41.5490 C.ar  293  TYR293     -0.0009
     97  CD2       26.7870  -19.9670   42.5220 C.ar  293  TYR293     -0.0009
     98  CE1       27.2650  -22.6960   42.2520 C.ar  293  TYR293      0.0417
     99  CE2       27.8100  -20.5570   43.2340 C.ar  293  TYR293      0.0417
    100  CZ        28.0480  -21.9250   43.0930 C.ar  293  TYR293      0.1957
    101  OH        29.0740  -22.5260   43.7860 O.3   293  TYR293     -0.2866
    102  N         21.4480  -15.5130   43.0380 N.3   296  LEU296     -0.1245
    103  CA        22.2810  -14.5970   43.8190 C.3   296  LEU296      0.1561
    104  C         23.1010  -13.7080   42.9080 C.2   296  LEU296      0.2260
    105  O         23.5390  -12.6370   43.3040 O.2   296  LEU296     -0.2867
    106  CB        23.2490  -15.3430   44.7230 C.3   296  LEU296      0.0270
    107  CG        22.8670  -15.5500   46.1850 C.3   296  LEU296      0.0019
    108  CD1       21.7150  -16.5310   46.3030 C.3   296  LEU296      0.0001
    109  CD2       24.0860  -16.0730   46.9180 C.3   296  LEU296      0.0001
    110  N         32.1370  -11.4190   50.3500 N.3   325  LYS325     -0.1245
    111  CA        32.8900  -12.6570   50.5190 C.3   325  LYS325      0.1561
    112  C         34.2290  -12.2720   51.1540 C.2   325  LYS325      0.2260
    113  O         34.8870  -11.3470   50.6650 O.2   325  LYS325     -0.2867
    114  CB        33.0960  -13.2800   49.1320 C.3   325  LYS325      0.0271
    115  CG        34.0170  -14.4940   49.0240 C.3   325  LYS325      0.0035
    116  CD        34.5210  -14.5910   47.5710 C.3   325  LYS325      0.0206
    117  CE        35.5240  -15.7240   47.3140 C.3   325  LYS325      0.1093
    118  NZ        34.8960  -17.0740   47.4040 N.3   325  LYS325     -0.1314
@<TRIPOS>BOND
     1     4     3    2
     2     3     2    1
     3     1     2    1
     4     2     5    1
     5     5     6    1
     6     6     7    1
     7    94    95    1
     8    94    91    1
     9    92    93    2
    10    92    91    1
    11     7     8    1
    12     8     9    2
    13    96    95   ar
    14    96    98   ar
    15    95    97   ar
    16    91    90    1
    17    98   100   ar
    18    90    84   am
    19    82    83    1
    20    11     9    1
    21     9    10    1
    22    97    99   ar
    23   104   105    2
    24   104   103    1
    25    84    85    2
    26    84    83    1
    27   102   103    1
    28   100    99   ar
    29   100   101    1
    30    83    86    1
    31   103   106    1
    32    71    68    1
    33    71    72    1
    34    69    68    1
    35    69    70    2
    36    86    87    1
    37    68    67    1
    38   106   107    1
    39    72    73    1
    40    65    66   ar
    41    65    63   ar
    42    66    64   ar
    43    18    17    1
    44    18    12    1
    45    87    88    1
    46    87    89    1
    47    17    16    1
    48    67    73    1
    49   107   108    1
    50   107   109    1
    51    63    61   ar
    52    64    62   ar
    53    12    13    1
    54    15    14    2
    55   117   118    1
    56   117   116    1
    57    16    13    1
    58   116   115    1
    59    61    62   ar
    60    61    60    1
    61    13    14    1
    62    14    19   am
    63    59    58    2
    64    60    57    1
    65   115   114    1
    66    58    57    1
    67   114   111    1
    68    25    23    1
    69    19    20    1
    70    20    23    1
    71    20    21    1
    72    57    56    1
    73    56    49   am
    74    33    32    1
    75    23    24    1
    76   110   111    1
    77   111   112    1
    78   113   112    2
    79    42    41    2
    80    27    21   am
    81    27    28    1
    82    21    22    2
    83    32    31    1
    84    32    34    1
    85    46    44    1
    86    31    28    1
    87    49    48    1
    88    49    50    2
    89    44    43    1
    90    80    79    1
    91    48    51    1
    92    48    47    1
    93    24    26    1
    94    28    29    1
    95    41    47   am
    96    41    40    1
    97    52    51    1
    98    52    53    1
    99    79    81    1
   100    79    78    1
   101    35    29   am
   102    35    36    1
   103    43    40    1
   104    43    45    1
   105    39    40    1
   106    39    37   am
   107    53    54    1
   108    54    55    1
   109    29    30    2
   110    78    75    1
   111    74    75    1
   112    36    37    1
   113    37    38    2
   114    75    76    1
   115    76    77    2
