@<TRIPOS>MOLECULE
tmp/3qo6B00.pdb
 134 130 0 0 0
SMALL
GASTEIGER

@<TRIPOS>ATOM
      1  N         50.4650  -19.0690   26.6700 N.3    46  SER46      -0.1217
      2  CA        50.2920  -18.0490   25.6360 C.3    46  SER46       0.1889
      3  C         48.7880  -17.7090   25.5310 C.2    46  SER46       0.2288
      4  O         47.9200  -18.5970   25.5470 O.2    46  SER46      -0.2866
      5  CB        50.8290  -18.5610   24.2880 C.3    46  SER46       0.2089
      6  OG        50.4430  -17.7240   23.2070 O.3    46  SER46      -0.2183
      7  N         42.0880  -16.7050   33.7400 N.3    63  HIS63      -0.1226
      8  CA        42.7920  -17.9850   33.6480 C.3    63  HIS63       0.1752
      9  C         44.0730  -17.9540   32.8250 C.2    63  HIS63       0.2595
     10  O         44.9030  -18.8350   32.9530 O.2    63  HIS63      -0.2718
     11  CB        41.8630  -19.1300   33.1830 C.3    63  HIS63       0.0759
     12  CG        41.6690  -19.2190   31.6990 C.ar   63  HIS63       0.0818
     13  ND1       40.5180  -18.7920   31.0730 N.ar   63  HIS63      -0.2268
     14  CD2       42.4890  -19.6650   30.7160 C.ar   63  HIS63       0.1154
     15  CE1       40.6430  -18.9640   29.7680 C.ar   63  HIS63       0.1986
     16  NE2       41.8290  -19.4910   29.5250 N.ar   63  HIS63      -0.2212
     17  N         44.2420  -16.9210   32.0100 N.am   64  VAL64      -0.1980
     18  CA        45.4380  -16.7580   31.1810 C.3    64  VAL64       0.1595
     19  C         46.5950  -16.1800   32.0140 C.2    64  VAL64       0.2287
     20  O         47.7660  -16.4350   31.7450 O.2    64  VAL64      -0.2864
     21  CB        45.1380  -15.7720   30.0160 C.3    64  VAL64       0.0276
     22  CG1       46.4190  -15.3090   29.3470 C.3    64  VAL64       0.0022
     23  CG2       44.2150  -16.4230   29.0090 C.3    64  VAL64       0.0022
     24  N         27.6190  -21.6520   31.3920 N.3   148  ILE148     -0.1231
     25  CA        28.7190  -22.6130   31.3170 C.3   148  ILE148      0.1692
     26  C         29.5080  -22.6650   32.6400 C.2   148  ILE148      0.2593
     27  O         29.6820  -21.6470   33.3200 O.2   148  ILE148     -0.2718
     28  CB        29.7340  -22.2540   30.1870 C.3   148  ILE148      0.0266
     29  CG1       30.3470  -20.8820   30.4700 C.3   148  ILE148      0.0019
     30  CG2       29.0530  -22.2370   28.8320 C.3   148  ILE148      0.0020
     31  CD1       31.6610  -20.6600   29.8020 C.3   148  ILE148      0.0001
     32  N         29.9900  -23.8550   32.9890 N.am  149  SER149     -0.1938
     33  CA        30.7850  -24.0640   34.2070 C.3   149  SER149      0.2055
     34  C         32.1550  -23.3570   34.0810 C.2   149  SER149      0.2644
     35  O         32.9270  -23.6720   33.1640 O.2   149  SER149     -0.2714
     36  CB        30.9640  -25.5690   34.4160 C.3   149  SER149      0.2130
     37  OG        30.6430  -26.2790   33.2180 O.3   149  SER149     -0.2179
     38  N         32.4430  -22.4180   35.0000 N.am  150  SER150     -0.1935
     39  CA        33.6870  -21.6020   35.0180 C.3   150  SER150      0.2055
     40  C         35.0410  -22.3200   35.0900 C.2   150  SER150      0.2642
     41  O         36.0330  -21.8160   34.5350 O.2   150  SER150     -0.2714
     42  CB        33.6390  -20.5620   36.1650 C.3   150  SER150      0.2130
     43  OG        34.7780  -19.7020   36.1980 O.3   150  SER150     -0.2179
     44  N         35.0780  -23.4700   35.7720 N.am  151  ALA151     -0.1977
     45  CA        36.2950  -24.2770   35.9510 C.3   151  ALA151      0.1597
     46  C         37.4260  -23.4250   36.5520 C.2   151  ALA151      0.2287
     47  O         38.3640  -23.9490   37.1640 O.2   151  ALA151     -0.2864
     48  CB        36.7310  -24.9230   34.6100 C.3   151  ALA151      0.0319
     49  N         37.6620  -21.4690   17.6040 N.3   167  ILE167     -0.1231
     50  CA        38.2420  -20.9700   18.8310 C.3   167  ILE167      0.1692
     51  C         39.1470  -22.0610   19.4020 C.2   167  ILE167      0.2592
     52  O         38.6630  -23.1040   19.8520 O.2   167  ILE167     -0.2718
     53  CB        37.0980  -20.6000   19.8570 C.3   167  ILE167      0.0266
     54  CG1       36.4430  -19.2840   19.4710 C.3   167  ILE167      0.0019
     55  CG2       37.6310  -20.4240   21.2310 C.3   167  ILE167      0.0020
     56  CD1       37.4430  -18.2360   18.9960 C.3   167  ILE167      0.0001
     57  N         40.4600  -21.8440   19.3870 N.am  168  ASN168     -0.1961
     58  CA        41.3790  -22.8600   19.9390 C.3   168  ASN168      0.1804
     59  C         42.2270  -22.3560   21.1120 C.2   168  ASN168      0.2463
     60  O         42.1660  -21.1830   21.4710 O.2   168  ASN168     -0.2730
     61  CB        42.3670  -23.3550   18.8790 C.3   168  ASN168      0.1195
     62  CG        41.7060  -24.0470   17.7430 C.2   168  ASN168      0.2630
     63  OD1       41.5120  -23.4590   16.6780 O.2   168  ASN168     -0.2716
     64  ND2       41.3540  -25.3030   17.9460 N.am  168  ASN168     -0.0877
     65  N         43.0200  -23.2510   21.7330 N.am  169  PRO169     -0.2716
     66  CA        43.8860  -22.8480   22.8560 C.3   169  PRO169      0.1536
     67  C         44.7810  -21.7070   22.3890 C.2   169  PRO169      0.2599
     68  O         45.4670  -21.8200   21.3840 O.2   169  PRO169     -0.2715
     69  CB        44.6480  -24.1170   23.1560 C.3   169  PRO169      0.0310
     70  CG        43.5490  -25.1560   22.9950 C.3   169  PRO169      0.0237
     71  CD        42.8270  -24.7150   21.7220 C.3   169  PRO169      0.0939
     72  N         44.7300  -20.5920   23.1060 N.am  170  GLY170     -0.1955
     73  CA        45.5060  -19.4370   22.7200 C.3   170  GLY170      0.1869
     74  C         44.5960  -18.3010   22.3030 C.2   170  GLY170      0.2309
     75  O         45.0590  -17.1760   22.0510 O.2   170  GLY170     -0.2863
     76  N         41.8820  -17.5330   24.2260 N.3   172  SER172     -0.1217
     77  CA        41.3630  -16.9340   25.4630 C.3   172  SER172      0.1889
     78  C         41.9180  -15.5040   25.6490 C.2   172  SER172      0.2288
     79  O         43.1080  -15.2070   25.3870 O.2   172  SER172     -0.2866
     80  CB        41.6660  -17.7880   26.7080 C.3   172  SER172      0.2089
     81  OG        41.6900  -19.1960   26.4700 O.3   172  SER172     -0.2183
     82  N         36.6060  -17.0950   25.6350 N.3   188  THR188     -0.1203
     83  CA        37.2330  -17.6800   26.7920 C.3   188  THR188      0.1994
     84  C         37.2580  -19.1760   26.9460 C.2   188  THR188      0.2618
     85  O         38.1060  -19.6800   27.6690 O.2   188  THR188     -0.2717
     86  CB        36.6940  -17.0280   28.1190 C.3   188  THR188      0.1784
     87  OG1       36.0130  -18.0050   28.9100 O.3   188  THR188     -0.2211
     88  CG2       35.7860  -15.8550   27.8250 C.3   188  THR188      0.0376
     89  N         36.3680  -19.8970   26.2780 N.am  189  ALA189     -0.1965
     90  CA        36.3480  -21.3600   26.3940 C.3   189  ALA189      0.1728
     91  C         35.5700  -22.0600   25.2690 C.2   189  ALA189      0.2616
     92  O         34.8650  -21.4190   24.4600 O.2   189  ALA189     -0.2715
     93  CB        35.7500  -21.7740   27.7410 C.3   189  ALA189      0.0334
     94  N         35.6920  -23.3880   25.2400 N.am  190  ILE190     -0.1963
     95  CA        34.9990  -24.1820   24.2370 C.3   190  ILE190      0.1727
     96  C         34.5310  -25.5270   24.8140 C.2   190  ILE190      0.2616
     97  O         34.9160  -25.9180   25.9090 O.2   190  ILE190     -0.2715
     98  CB        35.9430  -24.4770   23.0880 C.3   190  ILE190      0.0290
     99  CG1       36.9890  -25.4680   23.5750 C.3   190  ILE190      0.0022
    100  CG2       36.6330  -23.1840   22.5930 C.3   190  ILE190      0.0023
    101  CD1       37.9840  -25.8300   22.5150 C.3   190  ILE190      0.0001
    102  N         33.6730  -26.2100   24.0700 N.am  191  TYR191     -0.1960
    103  CA        33.2060  -27.5490   24.4210 C.3   191  TYR191      0.1771
    104  C         33.8510  -28.3950   23.3160 C.2   191  TYR191      0.2620
    105  O         33.6160  -28.1510   22.1330 O.2   191  TYR191     -0.2715
    106  CB        31.6850  -27.6660   24.3390 C.3   191  TYR191      0.0574
    107  CG        30.9420  -27.3100   25.6130 C.ar  191  TYR191     -0.0198
    108  CD1       31.6230  -26.9590   26.7870 C.ar  191  TYR191     -0.0009
    109  CD2       29.5520  -27.3160   25.6480 C.ar  191  TYR191     -0.0009
    110  CE1       30.9270  -26.6240   27.9590 C.ar  191  TYR191      0.0417
    111  CE2       28.8460  -26.9810   26.8050 C.ar  191  TYR191      0.0417
    112  CZ        29.5290  -26.6400   27.9550 C.ar  191  TYR191      0.1957
    113  OH        28.8080  -26.3410   29.1000 O.3   191  TYR191     -0.2866
    114  N         34.6930  -29.3530   23.6920 N.am  192  SER192     -0.1950
    115  CA        35.3700  -30.1920   22.7090 C.3   192  SER192      0.1924
    116  C         36.0560  -31.4000   23.3420 C.2   192  SER192      0.2314
    117  O         36.9330  -31.2740   24.1830 O.2   192  SER192     -0.2863
    118  CB        36.4290  -29.3830   21.9410 C.3   192  SER192      0.2116
    119  OG        37.1660  -30.2190   21.0650 O.3   192  SER192     -0.2180
    120  N         39.9240  -30.9240   22.5960 N.3   195  GLY195     -0.1225
    121  CA        40.7160  -29.7970   23.0510 C.3   195  GLY195      0.1811
    122  C         40.9860  -28.9350   21.8360 C.2   195  GLY195      0.2280
    123  O         41.6630  -27.9210   21.8880 O.2   195  GLY195     -0.2866
    124  N         32.6440  -20.2100   23.4350 N.3   202  PHE202     -0.1241
    125  CA        31.9780  -19.2320   24.2780 C.3   202  PHE202      0.1605
    126  C         32.7370  -17.9270   24.5650 C.2   202  PHE202      0.2264
    127  O         33.9540  -17.9080   24.6760 O.2   202  PHE202     -0.2867
    128  CB        31.6340  -19.9030   25.5790 C.3   202  PHE202      0.0534
    129  CG        30.9500  -21.2420   25.4040 C.ar  202  PHE202     -0.0203
    130  CD1       31.6640  -22.4260   25.5560 C.ar  202  PHE202     -0.0042
    131  CD2       29.5690  -21.3160   25.1880 C.ar  202  PHE202     -0.0042
    132  CE1       31.0030  -23.6710   25.5160 C.ar  202  PHE202     -0.0003
    133  CE2       28.9140  -22.5390   25.1520 C.ar  202  PHE202     -0.0003
    134  CZ        29.6280  -23.7260   25.3220 C.ar  202  PHE202     -0.0000
@<TRIPOS>BOND
     1    63    62    2
     2    49    50    1
     3    62    64   am
     4    62    61    1
     5    50    51    1
     6    50    53    1
     7    61    58    1
     8    56    54    1
     9    57    51   am
    10    57    58    1
    11    51    52    2
    12    54    53    1
    13    53    55    1
    14    58    59    1
    15   119   118    1
    16    59    60    2
    17    59    65   am
    18    68    67    2
    19    71    65    1
    20    71    70    1
    21    65    66    1
    22   122   123    2
    23   122   121    1
    24   118   115    1
    25    75    74    2
    26   105   104    2
    27    74    73    1
    28    67    66    1
    29    67    72   am
    30   101    99    1
    31   100    98    1
    32   120   121    1
    33   115   116    1
    34   115   114    1
    35    73    72    1
    36    66    69    1
    37    70    69    1
    38    98    99    1
    39    98    95    1
    40     6     5    1
    41   104   114   am
    42   104   103    1
    43   116   117    2
    44   124   125    1
    45   102   103    1
    46   102    96   am
    47    76    77    1
    48    95    96    1
    49    95    94    1
    50   125   126    1
    51   125   128    1
    52     5     2    1
    53   106   103    1
    54   106   107    1
    55    92    91    2
    56   126   127    2
    57    96    97    2
    58   133   131   ar
    59   133   134   ar
    60   131   129   ar
    61    94    91   am
    62    91    90    1
    63   134   132   ar
    64    79    78    2
    65   129   130   ar
    66   129   128    1
    67    77    78    1
    68    77    80    1
    69   132   130   ar
    70     3     4    2
    71     3     2    1
    72   107   109   ar
    73   107   108   ar
    74    82    83    1
    75     2     1    1
    76   109   111   ar
    77    89    90    1
    78    89    84   am
    79    90    93    1
    80    81    80    1
    81   108   110   ar
    82    83    84    1
    83    83    86    1
    84   111   112   ar
    85    84    85    2
    86    88    86    1
    87   112   110   ar
    88   112   113    1
    89    86    87    1
    90    30    28    1
    91    23    21    1
    92    22    21    1
    93    16    15   ar
    94    16    14   ar
    95    15    13   ar
    96    31    29    1
    97    21    18    1
    98    28    29    1
    99    28    25    1
   100    14    12   ar
   101    13    12   ar
   102    18    17    1
   103    18    19    1
   104    25    24    1
   105    25    26    1
   106    12    11    1
   107    20    19    2
   108    17     9   am
   109    26    32   am
   110    26    27    2
   111     9    10    2
   112     9     8    1
   113    32    33    1
   114    35    34    2
   115    11     8    1
   116    37    36    1
   117     8     7    1
   118    34    33    1
   119    34    38   am
   120    33    36    1
   121    41    40    2
   122    48    45    1
   123    38    39    1
   124    39    40    1
   125    39    42    1
   126    40    44   am
   127    44    45    1
   128    45    46    1
   129    42    43    1
   130    46    47    2
