@<TRIPOS>MOLECULE
tmp/3qo6C00.pdb
 139 135 0 0 0
SMALL
GASTEIGER

@<TRIPOS>ATOM
      1  N         20.0530  -37.8360   24.6230 N.3    48  SER48      -0.1217
      2  CA        19.1570  -36.8200   24.0790 C.3    48  SER48       0.1889
      3  C         19.4790  -36.5020   22.6030 C.2    48  SER48       0.2288
      4  O         20.5130  -36.9270   22.0470 O.2    48  SER48      -0.2866
      5  CB        19.2850  -35.5370   24.8840 C.3    48  SER48       0.2089
      6  OG        20.4220  -34.8240   24.4380 O.3    48  SER48      -0.2183
      7  N         18.3830  -43.4810   15.5410 N.3    65  HIS65      -0.1226
      8  CA        19.3630  -43.7920   16.5680 C.3    65  HIS65       0.1752
      9  C         19.1360  -42.9750   17.8310 C.2    65  HIS65       0.2595
     10  O         19.5840  -43.3630   18.9040 O.2    65  HIS65      -0.2718
     11  CB        20.7960  -43.6510   16.0390 C.3    65  HIS65       0.0759
     12  CG        21.2670  -42.2420   15.8670 C.ar   65  HIS65       0.0818
     13  ND1       21.1790  -41.5700   14.6680 N.ar   65  HIS65      -0.2268
     14  CD2       21.8940  -41.4000   16.7240 C.ar   65  HIS65       0.1154
     15  CE1       21.7400  -40.3790   14.7930 C.ar   65  HIS65       0.1986
     16  NE2       22.1820  -40.2520   16.0300 N.ar   65  HIS65      -0.2212
     17  N         18.3990  -41.8750   17.7150 N.am   66  VAL66      -0.1980
     18  CA        18.0910  -41.0480   18.8630 C.3    66  VAL66       0.1595
     19  C         17.0410  -41.7320   19.7850 C.2    66  VAL66       0.2287
     20  O         17.2380  -41.8600   21.0110 O.2    66  VAL66      -0.2864
     21  CB        17.5890  -39.6870   18.3740 C.3    66  VAL66       0.0276
     22  CG1       17.0520  -38.8390   19.5220 C.3    66  VAL66       0.0022
     23  CG2       18.7260  -38.9670   17.6810 C.3    66  VAL66       0.0022
     24  N         27.4240  -43.1290    3.0380 N.3   150  ILE150     -0.1231
     25  CA        28.0800  -43.3780    4.3140 C.3   150  ILE150      0.1692
     26  C         27.4840  -44.6350    4.9310 C.2   150  ILE150      0.2593
     27  O         26.2550  -44.7920    4.9770 O.2   150  ILE150     -0.2718
     28  CB        27.8850  -42.2350    5.3140 C.3   150  ILE150      0.0266
     29  CG1       26.4040  -42.0900    5.6470 C.3   150  ILE150      0.0019
     30  CG2       28.4740  -40.9400    4.7650 C.3   150  ILE150      0.0020
     31  CD1       26.1870  -41.2990    6.8840 C.3   150  ILE150      0.0001
     32  N         28.3540  -45.5330    5.3870 N.am  151  SER151     -0.1938
     33  CA        27.8980  -46.7810    6.0050 C.3   151  SER151      0.2055
     34  C         27.6020  -46.5460    7.4800 C.2   151  SER151      0.2644
     35  O         28.4970  -46.6300    8.3270 O.2   151  SER151     -0.2714
     36  CB        28.9550  -47.8860    5.8560 C.3   151  SER151      0.2130
     37  OG        30.1720  -47.5350    6.4940 O.3   151  SER151     -0.2179
     38  N         26.3410  -46.2440    7.7780 N.am  152  SER152     -0.1935
     39  CA        25.9110  -45.9790    9.1470 C.3   152  SER152      0.2055
     40  C         25.8880  -47.2420   10.0190 C.2   152  SER152      0.2643
     41  O         24.9630  -48.0550    9.9020 O.2   152  SER152     -0.2714
     42  CB        24.5100  -45.3570    9.1370 C.3   152  SER152      0.2130
     43  OG        23.5370  -46.2880    8.6710 O.3   152  SER152     -0.2179
     44  N         26.8880  -47.4030   10.8950 N.am  153  ALA153     -0.1963
     45  CA        26.9400  -48.5660   11.7900 C.3   153  ALA153      0.1728
     46  C         25.6370  -48.6230   12.6150 C.2   153  ALA153      0.2616
     47  O         25.4120  -49.5690   13.3860 O.2   153  ALA153     -0.2715
     48  CB        28.1690  -48.4780   12.7190 C.3   153  ALA153      0.0334
     49  N         24.7930  -47.5990   12.4240 N.am  154  ALA154     -0.1977
     50  CA        23.4960  -47.4560   13.0870 C.3   154  ALA154      0.1597
     51  C         22.4170  -48.1970   12.2720 C.2   154  ALA154      0.2287
     52  O         21.2640  -47.7490   12.1690 O.2   154  ALA154     -0.2864
     53  CB        23.1450  -45.9630   13.2220 C.3   154  ALA154      0.0319
     54  N         28.6280  -29.8090   13.2360 N.3   169  ILE169     -0.1231
     55  CA        27.6310  -30.7960   13.6380 C.3   169  ILE169      0.1692
     56  C         28.2930  -31.6310   14.7280 C.2   169  ILE169      0.2592
     57  O         29.3300  -32.2340   14.4960 O.2   169  ILE169     -0.2718
     58  CB        27.2470  -31.6850   12.4210 C.3   169  ILE169      0.0266
     59  CG1       26.5800  -30.8160   11.3460 C.3   169  ILE169      0.0019
     60  CG2       26.3070  -32.8050   12.8380 C.3   169  ILE169      0.0020
     61  CD1       25.2860  -30.1570   11.8380 C.3   169  ILE169      0.0001
     62  N         27.6850  -31.6540   15.9130 N.am  170  ASN170     -0.1961
     63  CA        28.2270  -32.3720   17.0740 C.3   170  ASN170      0.1804
     64  C         27.1930  -33.2670   17.7600 C.2   170  ASN170      0.2463
     65  O         26.0080  -33.2280   17.4330 O.2   170  ASN170     -0.2730
     66  CB        28.7380  -31.3710   18.1440 C.3   170  ASN170      0.1195
     67  CG        29.9410  -30.5630   17.6820 C.2   170  ASN170      0.2630
     68  OD1       29.8140  -29.4130   17.2450 O.2   170  ASN170     -0.2716
     69  ND2       31.1170  -31.1600   17.7820 N.am  170  ASN170     -0.0877
     70  N         27.6490  -34.1230   18.6940 N.am  171  PRO171     -0.2716
     71  CA        26.6970  -34.9870   19.4070 C.3   171  PRO171      0.1536
     72  C         25.6230  -34.0740   19.9550 C.2   171  PRO171      0.2599
     73  O         25.9270  -33.0470   20.5630 O.2   171  PRO171     -0.2715
     74  CB        27.5590  -35.5880   20.4900 C.3   171  PRO171      0.0310
     75  CG        28.8430  -35.8950   19.6950 C.3   171  PRO171      0.0237
     76  CD        29.0160  -34.6880   18.7600 C.3   171  PRO171      0.0939
     77  N         24.3680  -34.4260   19.7250 N.am  172  GLY172     -0.1955
     78  CA        23.2750  -33.5830   20.1830 C.3   172  GLY172      0.1869
     79  C         22.5360  -32.9720   19.0100 C.2   172  GLY172      0.2309
     80  O         21.4120  -32.5390   19.1440 O.2   172  GLY172     -0.2863
     81  N         22.0450  -34.7270   16.0370 N.3   174  SER174     -0.1217
     82  CA        21.2850  -35.7560   15.3550 C.3   174  SER174      0.1889
     83  C         19.7740  -35.5110   15.4570 C.2   174  SER174      0.2288
     84  O         19.2450  -35.2110   16.5330 O.2   174  SER174     -0.2866
     85  CB        21.6320  -37.1510   15.8880 C.3   174  SER174      0.2089
     86  OG        23.0470  -37.3600   16.1250 O.3   174  SER174     -0.2183
     87  N         22.5870  -36.1510   10.7700 N.3   190  THR190     -0.1203
     88  CA        22.5740  -37.4240   11.4640 C.3   190  THR190      0.1994
     89  C         23.9220  -38.0140   11.8280 C.2   190  THR190      0.2618
     90  O         24.0150  -38.7840   12.7860 O.2   190  THR190     -0.2717
     91  CB        21.6610  -38.4810   10.6520 C.3   190  THR190      0.1784
     92  OG1       22.4270  -39.6100   10.1910 O.3   190  THR190     -0.2211
     93  CG2       21.0050  -37.7940    9.4620 C.3   190  THR190      0.0376
     94  N         24.9730  -37.6710   11.0910 N.am  191  ALA191     -0.1965
     95  CA        26.2720  -38.2110   11.4470 C.3   191  ALA191      0.1728
     96  C         27.4430  -37.3440   10.9620 C.2   191  ALA191      0.2616
     97  O         27.2470  -36.3810   10.2120 O.2   191  ALA191     -0.2715
     98  CB        26.3940  -39.6210   10.9370 C.3   191  ALA191      0.0334
     99  N         28.6550  -37.6860   11.4080 N.am  192  ILE192     -0.1963
    100  CA        29.8590  -36.9360   11.0530 C.3   192  ILE192      0.1727
    101  C         31.0310  -37.8900   10.9870 C.2   192  ILE192      0.2616
    102  O         30.9730  -38.9580   11.5710 O.2   192  ILE192     -0.2715
    103  CB        30.2300  -35.9280   12.1630 C.3   192  ILE192      0.0290
    104  CG1       30.6790  -36.7140   13.4030 C.3   192  ILE192      0.0022
    105  CG2       29.0390  -35.0520   12.5420 C.3   192  ILE192      0.0023
    106  CD1       31.2960  -35.8630   14.4550 C.3   192  ILE192      0.0001
    107  N         32.0900  -37.5020   10.2850 N.am  193  TYR193     -0.1960
    108  CA        33.3250  -38.3030   10.2400 C.3   193  TYR193      0.1771
    109  C         34.3090  -37.5730   11.1470 C.2   193  TYR193      0.2620
    110  O         34.6660  -36.4390   10.8590 O.2   193  TYR193     -0.2715
    111  CB        33.9930  -38.3290    8.8610 C.3   193  TYR193      0.0574
    112  CG        33.5500  -39.4060    7.9230 C.ar  193  TYR193     -0.0198
    113  CD1       32.8980  -40.5430    8.3860 C.ar  193  TYR193     -0.0009
    114  CD2       33.7450  -39.2720    6.5410 C.ar  193  TYR193     -0.0009
    115  CE1       32.4260  -41.5320    7.4800 C.ar  193  TYR193      0.0417
    116  CE2       33.2900  -40.2410    5.6380 C.ar  193  TYR193      0.0417
    117  CZ        32.6240  -41.3630    6.1090 C.ar  193  TYR193      0.1957
    118  OH        32.0970  -42.2820    5.2230 O.3   193  TYR193     -0.2866
    119  N         34.7510  -38.1860   12.2350 N.am  194  SER194     -0.1950
    120  CA        35.7220  -37.4950   13.0750 C.3   194  SER194      0.1924
    121  C         36.5300  -38.3950   13.9550 C.2   194  SER194      0.2314
    122  O         36.0080  -39.2610   14.6160 O.2   194  SER194     -0.2863
    123  CB        35.0450  -36.4500   13.9660 C.3   194  SER194      0.2116
    124  OG        36.0020  -35.5840   14.5720 O.3   194  SER194     -0.2180
    125  N         35.3400  -37.5920   17.5400 N.3   197  GLY197     -0.1225
    126  CA        33.9770  -37.7420   18.0000 C.3   197  GLY197      0.1811
    127  C         33.3450  -36.3590   18.0520 C.2   197  GLY197      0.2280
    128  O         32.2400  -36.1890   18.5380 O.2   197  GLY197     -0.2866
    129  N         27.1210  -35.1450    7.8100 N.3   204  PHE204     -0.1241
    130  CA        26.1700  -35.6470    6.8510 C.3   204  PHE204      0.1605
    131  C         24.7170  -35.4700    7.2260 C.2   204  PHE204      0.2264
    132  O         24.3490  -35.4690    8.4160 O.2   204  PHE204     -0.2867
    133  CB        26.4550  -37.1060    6.5950 C.3   204  PHE204      0.0534
    134  CG        27.8660  -37.3720    6.2590 C.ar  204  PHE204     -0.0203
    135  CD1       28.7350  -37.9070    7.2180 C.ar  204  PHE204     -0.0042
    136  CD2       28.3430  -37.1100    4.9750 C.ar  204  PHE204     -0.0042
    137  CE1       30.0860  -38.1980    6.8920 C.ar  204  PHE204     -0.0003
    138  CE2       29.6740  -37.3860    4.6270 C.ar  204  PHE204     -0.0003
    139  CZ        30.5550  -37.9390    5.5860 C.ar  204  PHE204     -0.0000
@<TRIPOS>BOND
     1    24    25    1
     2    25    26    1
     3    25    28    1
     4   138   136   ar
     5   138   139   ar
     6    30    28    1
     7    26    27    2
     8    26    32   am
     9   136   134   ar
    10   118   117    1
    11    28    29    1
    12    32    33    1
    13   139   137   ar
    14   116   117   ar
    15   116   114   ar
    16    29    31    1
    17    36    33    1
    18    36    37    1
    19    33    34    1
    20   117   115   ar
    21   134   133    1
    22   134   135   ar
    23   114   112   ar
    24   133   130    1
    25   130   131    1
    26   130   129    1
    27   137   135   ar
    28   131   132    2
    29    34    38   am
    30    34    35    2
    31   115   113   ar
    32    38    39    1
    33   112   113   ar
    34   112   111    1
    35    43    42    1
    36   111   108    1
    37    42    39    1
    38    39    40    1
    39    93    91    1
    40    41    40    2
    41    40    44   am
    42    92    91    1
    43    97    96    2
    44   108   107    1
    45   108   109    1
    46   107   101   am
    47    91    88    1
    48    87    88    1
    49   110   109    2
    50    44    45    1
    51    98    95    1
    52    96    99   am
    53    96    95    1
    54   101   100    1
    55   101   102    2
    56   100    99    1
    57   100   103    1
    58    94    95    1
    59    94    89   am
    60   109   119   am
    61    59    61    1
    62    59    58    1
    63    88    89    1
    64    45    46    1
    65    45    48    1
    66    89    90    2
    67   103   105    1
    68   103   104    1
    69    52    51    2
    70   119   120    1
    71    51    50    1
    72    58    60    1
    73    58    55    1
    74    49    46   am
    75    49    50    1
    76    46    47    2
    77   120   121    1
    78   120   123    1
    79    50    53    1
    80    54    55    1
    81   104   106    1
    82    55    56    1
    83   121   122    2
    84   123   124    1
    85    57    56    2
    86    13    15   ar
    87    13    12   ar
    88    56    62   am
    89    15    16   ar
    90    82    83    1
    91    82    85    1
    92    82    81    1
    93    83    84    2
    94     7     8    1
    95    12    11    1
    96    12    14   ar
    97    85    86    1
    98    62    63    1
    99    16    14   ar
   100    11     8    1
   101     8     9    1
   102    63    64    1
   103    63    66    1
   104    68    67    2
   105    65    64    2
   106   125   126    1
   107    23    21    1
   108    67    69   am
   109    67    66    1
   110    17     9   am
   111    17    18    1
   112    64    70   am
   113     9    10    2
   114   126   127    1
   115   127   128    2
   116    21    18    1
   117    21    22    1
   118    70    76    1
   119    70    71    1
   120    76    75    1
   121    18    19    1
   122    79    80    2
   123    79    78    1
   124    71    72    1
   125    71    74    1
   126    75    74    1
   127    77    72   am
   128    77    78    1
   129    19    20    2
   130    72    73    2
   131     4     3    2
   132     3     2    1
   133     2     1    1
   134     2     5    1
   135     6     5    1
