@<TRIPOS>MOLECULE
tmp/3qo6A00.pdb
 106 106 0 0 0
SMALL
GASTEIGER

@<TRIPOS>ATOM
      1  N         63.5160  -28.4660    7.3490 N.3   155  ARG155     -0.1245
      2  CA        63.5050  -27.0260    7.1240 C.3   155  ARG155      0.1563
      3  C         62.1480  -26.3470    7.1960 C.2   155  ARG155      0.2260
      4  O         61.1420  -26.8700    6.7180 O.2   155  ARG155     -0.2867
      5  CB        64.1040  -26.6820    5.7580 C.3   155  ARG155      0.0307
      6  CG        65.5630  -27.0030    5.5550 C.3   155  ARG155      0.0489
      7  CD        65.9740  -26.5650    4.1510 C.3   155  ARG155      0.2205
      8  NE        67.1190  -27.2980    3.6100 N.pl3 155  ARG155     -0.0865
      9  CZ        67.3210  -28.6070    3.7560 C.cat 155  ARG155      0.5346
     10  NH1       66.4670  -29.3560    4.4470 N.pl3 155  ARG155      0.1354
     11  NH2       68.3620  -29.1840    3.1670 N.pl3 155  ARG155      0.1354
     12  N         70.5860  -22.8630   -2.7270 N.3   225  PRO225     -0.2102
     13  CA        71.8750  -22.4550   -2.1880 C.3   225  PRO225      0.1504
     14  C         72.0700  -23.0760   -0.8220 C.2   225  PRO225      0.2576
     15  O         71.1370  -23.1690   -0.0360 O.2   225  PRO225     -0.2718
     16  CB        71.7400  -20.9450   -2.1090 C.3   225  PRO225      0.0282
     17  CG        70.3010  -20.7820   -1.7520 C.3   225  PRO225      0.0208
     18  CD        69.6310  -21.7410   -2.7010 C.3   225  PRO225      0.0893
     19  N         73.2870  -23.5100   -0.5460 N.am  226  ILE226     -0.1966
     20  CA        73.5890  -24.1010    0.7420 C.3   226  ILE226      0.1727
     21  C         74.7790  -23.3670    1.2930 C.2   226  ILE226      0.2616
     22  O         75.6210  -22.8670    0.5460 O.2   226  ILE226     -0.2715
     23  CB        73.9600  -25.5880    0.6420 C.3   226  ILE226      0.0290
     24  CG1       75.2180  -25.7550   -0.2140 C.3   226  ILE226      0.0022
     25  CG2       72.8120  -26.3570    0.0580 C.3   226  ILE226      0.0023
     26  CD1       75.6670  -27.1940   -0.3860 C.3   226  ILE226      0.0001
     27  N         74.8370  -23.3200    2.6130 N.am  227  LEU227     -0.1963
     28  CA        75.9090  -22.6610    3.3240 C.3   227  LEU227      0.1728
     29  C         77.0540  -23.6580    3.5080 C.2   227  LEU227      0.2617
     30  O         78.2300  -23.2900    3.4590 O.2   227  LEU227     -0.2715
     31  CB        75.3740  -22.1980    4.6720 C.3   227  LEU227      0.0311
     32  CG        76.2020  -21.2380    5.5000 C.3   227  LEU227      0.0022
     33  CD1       76.6730  -20.0740    4.6290 C.3   227  LEU227      0.0001
     34  CD2       75.3480  -20.7610    6.6750 C.3   227  LEU227      0.0001
     35  N         76.6990  -24.9270    3.6920 N.am  228  GLY228     -0.1940
     36  CA        77.7030  -25.9550    3.8840 C.3   228  GLY228      0.2014
     37  C         77.9540  -26.1460    5.3630 C.2   228  GLY228      0.2639
     38  O         79.0600  -26.4780    5.7890 O.2   228  GLY228     -0.2714
     39  N         76.9120  -25.9370    6.1520 N.am  229  ILE229     -0.1963
     40  CA        77.0360  -26.0780    7.5760 C.3   229  ILE229      0.1727
     41  C         76.0130  -27.0500    8.1970 C.2   229  ILE229      0.2616
     42  O         74.8910  -27.1980    7.7090 O.2   229  ILE229     -0.2715
     43  CB        76.9380  -24.6790    8.2430 C.3   229  ILE229      0.0290
     44  CG1       77.2080  -24.7950    9.7300 C.3   229  ILE229      0.0022
     45  CG2       75.5640  -24.0980    8.0720 C.3   229  ILE229      0.0023
     46  CD1       78.4080  -25.6590   10.0240 C.3   229  ILE229      0.0001
     47  N         76.4320  -27.7470    9.2520 N.am  230  LYS230     -0.1963
     48  CA        75.5660  -28.6620    9.9950 C.3   230  LYS230      0.1728
     49  C         75.5480  -28.0280   11.3540 C.2   230  LYS230      0.2616
     50  O         76.5910  -27.6650   11.8710 O.2   230  LYS230     -0.2715
     51  CB        76.1590  -30.0740   10.1330 C.3   230  LYS230      0.0311
     52  CG        76.0820  -30.9450    8.8860 C.3   230  LYS230      0.0038
     53  CD        76.5990  -32.3500    9.1710 C.3   230  LYS230      0.0206
     54  CE        76.6050  -33.2200    7.9110 C.3   230  LYS230      0.1093
     55  NZ        77.0970  -34.6100    8.1940 N.3   230  LYS230     -0.1314
     56  N         74.3730  -27.8810   11.9360 N.am  231  PHE231     -0.1960
     57  CA        74.2980  -27.2650   13.2350 C.3   231  PHE231      0.1771
     58  C         73.3720  -27.9540   14.2010 C.2   231  PHE231      0.2619
     59  O         72.5820  -28.8130   13.8220 O.2   231  PHE231     -0.2715
     60  CB        73.9040  -25.7900   13.1180 C.3   231  PHE231      0.0574
     61  CG        72.5850  -25.5380   12.4240 C.ar  231  PHE231     -0.0200
     62  CD1       72.4740  -25.6450   11.0390 C.ar  231  PHE231     -0.0042
     63  CD2       71.4780  -25.0940   13.1540 C.ar  231  PHE231     -0.0042
     64  CE1       71.2860  -25.3000   10.3940 C.ar  231  PHE231     -0.0003
     65  CE2       70.2910  -24.7470   12.5200 C.ar  231  PHE231     -0.0003
     66  CZ        70.1940  -24.8470   11.1400 C.ar  231  PHE231     -0.0000
     67  N         73.4850  -27.5460   15.4600 N.am  232  ALA232     -0.1964
     68  CA        72.6970  -28.0970   16.5460 C.3   232  ALA232      0.1713
     69  C         71.3350  -27.4270   16.6280 C.2   232  ALA232      0.2458
     70  O         71.1920  -26.2550   16.2820 O.2   232  ALA232     -0.2730
     71  CB        73.4480  -27.9160   17.8610 C.3   232  ALA232      0.0333
     72  N         70.3200  -28.1670   17.1040 N.am  233  PRO233     -0.2727
     73  CA        68.9360  -27.7090   17.2630 C.3   233  PRO233      0.1402
     74  C         68.7830  -26.6490   18.3430 C.2   233  PRO233      0.2269
     75  O         69.6070  -26.5440   19.2480 O.2   233  PRO233     -0.2865
     76  CB        68.2030  -28.9860   17.6250 C.3   233  PRO233      0.0296
     77  CG        69.2420  -29.7140   18.4540 C.3   233  PRO233      0.0237
     78  CD        70.4690  -29.5490   17.5970 C.3   233  PRO233      0.0939
     79  N         68.4610  -18.1710   10.6980 N.3   292  LEU292     -0.1231
     80  CA        69.4660  -18.5400    9.7170 C.3   292  LEU292      0.1693
     81  C         68.7810  -19.0690    8.4770 C.2   292  LEU292      0.2592
     82  O         69.1130  -18.6860    7.3590 O.2   292  LEU292     -0.2718
     83  CB        70.4180  -19.5960   10.2910 C.3   292  LEU292      0.0284
     84  CG        71.4390  -20.2380    9.3370 C.3   292  LEU292      0.0019
     85  CD1       72.0390  -19.1780    8.4430 C.3   292  LEU292      0.0001
     86  CD2       72.5280  -20.9600   10.1300 C.3   292  LEU292      0.0001
     87  N         67.8100  -19.9480    8.6890 N.am  293  TYR293     -0.1976
     88  CA        67.0420  -20.5550    7.6000 C.3   293  TYR293      0.1639
     89  C         66.2550  -19.4980    6.8450 C.2   293  TYR293      0.2290
     90  O         66.4600  -19.2900    5.6430 O.2   293  TYR293     -0.2864
     91  CB        66.0670  -21.5930    8.1610 C.3   293  TYR293      0.0560
     92  CG        66.6160  -22.9990    8.2720 C.ar  293  TYR293     -0.0198
     93  CD1       66.3040  -23.8010    9.3690 C.ar  293  TYR293     -0.0009
     94  CD2       67.4110  -23.5440    7.2640 C.ar  293  TYR293     -0.0009
     95  CE1       66.7650  -25.1090    9.4650 C.ar  293  TYR293      0.0417
     96  CE2       67.8790  -24.8540    7.3490 C.ar  293  TYR293      0.0417
     97  CZ        67.5510  -25.6280    8.4550 C.ar  293  TYR293      0.1957
     98  OH        68.0250  -26.9140    8.5540 O.3   293  TYR293     -0.2866
     99  N         68.7320  -17.0070    4.9100 N.3   296  LEU296     -0.1245
    100  CA        69.4150  -17.7300    3.8520 C.3   296  LEU296      0.1561
    101  C         68.4330  -18.2360    2.8000 C.2   296  LEU296      0.2260
    102  O         68.7980  -18.4340    1.6380 O.2   296  LEU296     -0.2867
    103  CB        70.1940  -18.8930    4.4680 C.3   296  LEU296      0.0270
    104  CG        71.3900  -19.4390    3.6910 C.3   296  LEU296      0.0019
    105  CD1       72.2650  -18.3010    3.2170 C.3   296  LEU296      0.0001
    106  CD2       72.1850  -20.3660    4.5880 C.3   296  LEU296      0.0001
@<TRIPOS>BOND
     1    12    18    1
     2    12    13    1
     3    18    17    1
     4    13    16    1
     5    13    14    1
     6    16    17    1
     7    14    19   am
     8    14    15    2
     9    19    20    1
    10    26    24    1
    11    24    23    1
    12    25    23    1
    13    22    21    2
    14    23    20    1
    15    20    21    1
    16    21    27   am
    17   102   101    2
    18    27    28    1
    19   101   100    1
    20    11     9    1
    21   105   104    1
    22    28    29    1
    23    28    31    1
    24    30    29    2
    25    29    35   am
    26     8     9    2
    27     8     7    1
    28   104   103    1
    29   104   106    1
    30    35    36    1
    31     9    10    1
    32   100   103    1
    33   100    99    1
    34    36    37    1
    35     7     6    1
    36    33    32    1
    37    31    32    1
    38    37    38    2
    39    37    39   am
    40    32    34    1
    41     6     5    1
    42    90    89    2
    43     5     2    1
    44    39    40    1
    45     4     3    2
    46    89    88    1
    47     2     3    1
    48     2     1    1
    49    94    96   ar
    50    94    92   ar
    51    96    97   ar
    52    82    81    2
    53    40    41    1
    54    40    43    1
    55    88    91    1
    56    88    87    1
    57    42    41    2
    58    54    55    1
    59    54    53    1
    60    45    43    1
    61    91    92    1
    62    41    47   am
    63    43    44    1
    64    92    93   ar
    65    85    84    1
    66    97    98    1
    67    97    95   ar
    68    81    87   am
    69    81    80    1
    70    52    53    1
    71    52    51    1
    72    47    48    1
    73    84    86    1
    74    84    83    1
    75    93    95   ar
    76    80    83    1
    77    80    79    1
    78    44    46    1
    79    48    51    1
    80    48    49    1
    81    64    62   ar
    82    64    66   ar
    83    62    61   ar
    84    66    65   ar
    85    49    50    2
    86    49    56   am
    87    56    57    1
    88    61    60    1
    89    61    63   ar
    90    65    63   ar
    91    60    57    1
    92    57    58    1
    93    59    58    2
    94    58    67   am
    95    67    68    1
    96    70    69    2
    97    68    69    1
    98    68    71    1
    99    69    72   am
   100    72    73    1
   101    72    78    1
   102    73    76    1
   103    73    74    1
   104    78    77    1
   105    76    77    1
   106    74    75    2
