@<TRIPOS>MOLECULE
tmp/3qo7A00.pdb
 168 156 0 0 0
SMALL
GASTEIGER

@<TRIPOS>ATOM
      1  N        -14.4080  -19.3110   18.0620 N.3   246  THR246     -0.1218
      2  CA       -15.3150  -20.4600   18.0840 C.3   246  THR246      0.1862
      3  C        -15.2230  -21.0850   19.4700 C.2   246  THR246      0.2287
      4  O        -14.1430  -21.0790   20.0880 O.2   246  THR246     -0.2866
      5  CB       -14.9260  -21.5390   17.0390 C.3   246  THR246      0.1770
      6  OG1      -15.5450  -22.7880   17.3860 O.3   246  THR246     -0.2211
      7  CG2      -13.3820  -21.7390   16.9600 C.3   246  THR246      0.0375
      8  N        -14.5210  -12.7470   14.5810 N.3   279  ARG279     -0.1245
      9  CA       -13.4940  -12.8990   13.5640 C.3   279  ARG279      0.1563
     10  C        -13.0780  -11.5700   12.9630 C.2   279  ARG279      0.2260
     11  O        -13.9130  -10.8500   12.4210 O.2   279  ARG279     -0.2867
     12  CB       -13.9860  -13.8560   12.4940 C.3   279  ARG279      0.0307
     13  CG       -14.2450  -15.2460   13.0380 C.3   279  ARG279      0.0489
     14  CD       -13.9530  -16.3220   12.0050 C.3   279  ARG279      0.2205
     15  NE       -14.3530  -17.6350   12.4960 N.pl3 279  ARG279     -0.0865
     16  CZ       -14.5210  -18.7010   11.7180 C.cat 279  ARG279      0.5346
     17  NH1      -14.3180  -18.6040   10.4020 N.pl3 279  ARG279      0.1354
     18  NH2      -14.9000  -19.8600   12.2640 N.pl3 279  ARG279      0.1354
     19  N        -11.3690  -11.1730   10.3380 N.3   281  GLU281     -0.1245
     20  CA       -11.4850  -11.3180    8.8910 C.3   281  GLU281      0.1567
     21  C        -12.8970  -11.6650    8.4320 C.2   281  GLU281      0.2260
     22  O        -13.4400  -12.7340    8.7430 O.2   281  GLU281     -0.2867
     23  CB       -10.5180  -12.3870    8.3900 C.3   281  GLU281      0.0388
     24  CG        -9.0640  -11.9780    8.4410 C.3   281  GLU281      0.1160
     25  CD        -8.7700  -10.8160    7.5150 C.2   281  GLU281      0.3649
     26  OE1       -8.4980  -11.0670    6.3130 O.co2 281  GLU281     -0.2457
     27  OE2       -8.8230   -9.6550    7.9910 O.co2 281  GLU281     -0.2457
     28  N        -25.6780  -11.2760    6.3690 N.3   287  ILE287     -0.1231
     29  CA       -25.1310  -11.8520    7.5870 C.3   287  ILE287      0.1692
     30  C        -24.4710  -13.2150    7.3380 C.2   287  ILE287      0.2592
     31  O        -24.3960  -14.0650    8.2250 O.2   287  ILE287     -0.2718
     32  CB       -26.2010  -11.9820    8.7220 C.3   287  ILE287      0.0266
     33  CG1      -27.3360  -12.9400    8.3440 C.3   287  ILE287      0.0019
     34  CG2      -26.7660  -10.6120    9.1570 C.3   287  ILE287      0.0020
     35  CD1      -28.4230  -13.0120    9.4840 C.3   287  ILE287      0.0001
     36  N        -23.9930  -13.4090    6.1180 N.am  288  PHE288     -0.1962
     37  CA       -23.3290  -14.6320    5.7510 C.3   288  PHE288      0.1771
     38  C        -21.8730  -14.6840    6.2070 C.2   288  PHE288      0.2619
     39  O        -21.4090  -15.7010    6.6940 O.2   288  PHE288     -0.2715
     40  CB       -23.3900  -14.8220    4.2320 C.3   288  PHE288      0.0574
     41  CG       -22.7740  -16.0900    3.7820 C.ar  288  PHE288     -0.0200
     42  CD1      -23.5190  -17.2520    3.7390 C.ar  288  PHE288     -0.0042
     43  CD2      -21.4350  -16.1440    3.4730 C.ar  288  PHE288     -0.0042
     44  CE1      -22.9470  -18.4480    3.3530 C.ar  288  PHE288     -0.0003
     45  CE2      -20.8530  -17.3330    3.0800 C.ar  288  PHE288     -0.0003
     46  CZ       -21.6110  -18.4900    3.0190 C.ar  288  PHE288     -0.0000
     47  N        -21.1400  -13.6010    6.0000 N.am  289  ARG289     -0.1963
     48  CA       -19.7440  -13.5140    6.4040 C.3   289  ARG289      0.1729
     49  C        -19.6560  -12.2100    7.1840 C.2   289  ARG289      0.2616
     50  O        -19.6810  -11.1320    6.6010 O.2   289  ARG289     -0.2715
     51  CB       -18.8330  -13.5150    5.1560 C.3   289  ARG289      0.0348
     52  CG       -17.3000  -13.8200    5.3650 C.3   289  ARG289      0.0492
     53  CD       -16.9980  -15.2480    5.8920 C.3   289  ARG289      0.2205
     54  NE       -16.5490  -16.1950    4.8570 N.pl3 289  ARG289     -0.0865
     55  CZ       -16.1630  -17.4580    5.0880 C.cat 289  ARG289      0.5346
     56  NH1      -15.7770  -18.2400    4.0820 N.pl3 289  ARG289      0.1354
     57  NH2      -16.1560  -17.9480    6.3260 N.pl3 289  ARG289      0.1354
     58  N        -19.6300  -12.3150    8.5100 N.am  290  VAL290     -0.1977
     59  CA       -19.6540  -11.1450    9.3960 C.3   290  VAL290      0.1596
     60  C        -18.6120  -11.2960   10.5110 C.2   290  VAL290      0.2287
     61  O        -17.9740  -12.3450   10.6180 O.2   290  VAL290     -0.2864
     62  CB       -21.0770  -10.9020    9.9930 C.3   290  VAL290      0.0276
     63  CG1      -22.0390  -10.3880    8.9210 C.3   290  VAL290      0.0022
     64  CG2      -21.6220  -12.1800   10.6310 C.3   290  VAL290      0.0022
     65  N        -21.0160  -13.6160   15.4390 N.3   293  PHE293     -0.1241
     66  CA       -22.1410  -14.5080   15.1380 C.3   293  PHE293      0.1605
     67  C        -22.1870  -15.6360   16.1540 C.2   293  PHE293      0.2264
     68  O        -21.2450  -15.8230   16.9350 O.2   293  PHE293     -0.2867
     69  CB       -22.0290  -15.0790   13.7150 C.3   293  PHE293      0.0534
     70  CG       -20.7400  -15.8450   13.4740 C.ar  293  PHE293     -0.0203
     71  CD1      -20.6580  -17.2190   13.7530 C.ar  293  PHE293     -0.0042
     72  CD2      -19.6050  -15.1940   13.0190 C.ar  293  PHE293     -0.0042
     73  CE1      -19.4700  -17.9340   13.5490 C.ar  293  PHE293     -0.0003
     74  CE2      -18.4120  -15.8970   12.8360 C.ar  293  PHE293     -0.0003
     75  CZ       -18.3470  -17.2740   13.0990 C.ar  293  PHE293     -0.0000
     76  N        -22.6730  -19.7790   17.2340 N.3   295  LYS295     -0.1245
     77  CA       -22.3810  -21.1030   16.7130 C.3   295  LYS295      0.1561
     78  C        -22.7040  -22.1560   17.7660 C.2   295  LYS295      0.2260
     79  O        -22.2540  -22.0550   18.9030 O.2   295  LYS295     -0.2867
     80  CB       -20.9080  -21.1690   16.2800 C.3   295  LYS295      0.0271
     81  CG       -20.4980  -22.3920   15.4920 C.3   295  LYS295      0.0035
     82  CD       -18.9710  -22.4580   15.3100 C.3   295  LYS295      0.0206
     83  CE       -18.5010  -21.7540   14.0360 C.3   295  LYS295      0.1093
     84  NZ       -17.0580  -22.0570   13.7240 N.3   295  LYS295     -0.1314
     85  N         -5.8240  -27.1680    8.2170 N.3   340  ASN340     -0.1240
     86  CA        -5.0880  -26.4650    9.2730 C.3   340  ASN340      0.1653
     87  C         -4.1780  -27.4470   10.0080 C.2   340  ASN340      0.2266
     88  O         -4.3420  -28.6640    9.8870 O.2   340  ASN340     -0.2867
     89  CB        -6.0680  -25.8100   10.2510 C.3   340  ASN340      0.1155
     90  CG        -7.2200  -26.7400   10.6280 C.2   340  ASN340      0.2627
     91  OD1       -8.0160  -27.1830    9.7590 O.2   340  ASN340     -0.2716
     92  ND2       -7.3110  -27.0580   11.9170 N.am  340  ASN340     -0.0877
     93  N        -10.6600  -33.6430    7.4130 N.3   346  LYS346     -0.1245
     94  CA       -11.7020  -32.6160    7.4820 C.3   346  LYS346      0.1561
     95  C        -12.7770  -32.8370    6.4120 C.2   346  LYS346      0.2260
     96  O        -12.4600  -33.0580    5.2440 O.2   346  LYS346     -0.2867
     97  CB       -11.0570  -31.2450    7.3150 C.3   346  LYS346      0.0271
     98  CG       -11.9710  -30.0210    7.4260 C.3   346  LYS346      0.0035
     99  CD       -11.1120  -28.7980    7.7540 C.3   346  LYS346      0.0206
    100  CE       -11.8920  -27.5170    7.8030 C.3   346  LYS346      0.1093
    101  NZ       -12.2840  -26.9850    6.4390 N.3   346  LYS346     -0.1314
    102  N        -16.3840  -30.9820    4.8980 N.3   348  ASP348     -0.1239
    103  CA       -17.2510  -29.8070    4.9930 C.3   348  ASP348      0.1674
    104  C        -18.6200  -30.1640    4.4360 C.2   348  ASP348      0.2266
    105  O        -18.7420  -30.8980    3.4430 O.2   348  ASP348     -0.2867
    106  CB       -16.7310  -28.6390    4.1610 C.3   348  ASP348      0.1410
    107  CG       -15.5420  -27.9500    4.7730 C.2   348  ASP348      0.3668
    108  OD1      -14.9480  -28.5140    5.7250 O.co2 348  ASP348     -0.2456
    109  OD2      -15.1960  -26.8350    4.2910 O.co2 348  ASP348     -0.2456
    110  N        -20.2170  -23.3960    2.3020 N.3   361  GLU361     -0.1231
    111  CA       -19.9090  -24.1610    3.4880 C.3   361  GLU361      0.1699
    112  C        -20.7010  -23.6970    4.7190 C.2   361  GLU361      0.2592
    113  O        -20.7070  -22.5180    5.0480 O.2   361  GLU361     -0.2718
    114  CB       -18.4140  -24.0980    3.7510 C.3   361  GLU361      0.0402
    115  CG       -17.9900  -24.7910    5.0140 C.3   361  GLU361      0.1161
    116  CD       -17.0020  -23.9740    5.7970 C.2   361  GLU361      0.3649
    117  OE1      -16.2480  -23.2030    5.1670 O.co2 361  GLU361     -0.2457
    118  OE2      -16.9740  -24.1000    7.0400 O.co2 361  GLU361     -0.2457
    119  N        -21.3620  -24.6380    5.3970 N.am  362  LEU362     -0.1966
    120  CA       -22.0950  -24.3410    6.6320 C.3   362  LEU362      0.1728
    121  C        -21.5030  -25.0650    7.8370 C.2   362  LEU362      0.2616
    122  O        -21.7530  -24.7050    8.9770 O.2   362  LEU362     -0.2715
    123  CB       -23.5680  -24.7360    6.5000 C.3   362  LEU362      0.0311
    124  CG       -24.3620  -23.8800    5.5360 C.3   362  LEU362      0.0022
    125  CD1      -25.8210  -24.1130    5.7620 C.3   362  LEU362      0.0001
    126  CD2      -24.0040  -22.4410    5.7460 C.3   362  LEU362      0.0001
    127  N        -20.7030  -26.0790    7.5690 N.am  363  VAL363     -0.1963
    128  CA       -20.2840  -26.9890    8.5890 C.3   363  VAL363      0.1727
    129  C        -18.9260  -27.4830    8.2270 C.2   363  VAL363      0.2616
    130  O        -18.6730  -27.7600    7.0850 O.2   363  VAL363     -0.2715
    131  CB       -21.2230  -28.2140    8.6540 C.3   363  VAL363      0.0290
    132  CG1      -20.5470  -29.3810    9.3710 C.3   363  VAL363      0.0023
    133  CG2      -22.5360  -27.8540    9.3420 C.3   363  VAL363      0.0023
    134  N        -18.0750  -27.6350    9.2220 N.am  364  SER364     -0.1950
    135  CA       -16.7320  -28.1150    9.0430 C.3   364  SER364      0.1924
    136  C        -16.4750  -29.1390   10.1500 C.2   364  SER364      0.2314
    137  O        -16.7060  -28.8550   11.3330 O.2   364  SER364     -0.2863
    138  CB       -15.8010  -26.9360    9.2180 C.3   364  SER364      0.2116
    139  OG       -14.5150  -27.2690    8.7880 O.3   364  SER364     -0.2180
    140  N        -13.7690  -32.0790   11.8050 N.3   366  SER366     -0.1217
    141  CA       -12.3500  -32.4540   11.7850 C.3   366  SER366      0.1889
    142  C        -12.0030  -33.4410   12.8510 C.2   366  SER366      0.2288
    143  O        -12.3470  -33.2470   14.0090 O.2   366  SER366     -0.2866
    144  CB       -11.4560  -31.2380   12.0260 C.3   366  SER366      0.2089
    145  OG       -11.5810  -30.2850   10.9930 O.3   366  SER366     -0.2183
    146  N        -18.9100  -28.0920   13.4370 N.3   393  THR393     -0.1218
    147  CA       -20.0010  -27.1300   13.5910 C.3   393  THR393      0.1862
    148  C        -21.3390  -27.8700   13.5650 C.2   393  THR393      0.2287
    149  O        -21.5260  -28.7730   12.7380 O.2   393  THR393     -0.2866
    150  CB       -20.0070  -26.0760   12.4460 C.3   393  THR393      0.1770
    151  OG1      -18.7240  -25.4270   12.3690 O.3   393  THR393     -0.2211
    152  CG2      -21.0950  -25.0350   12.7080 C.3   393  THR393      0.0375
    153  N        -23.6790  -22.5890   12.3990 N.3   396  ALA396     -0.1245
    154  CA       -23.3760  -21.1810   12.5330 C.3   396  ALA396      0.1562
    155  C        -24.7110  -20.5200   12.2040 C.2   396  ALA396      0.2260
    156  O        -25.1730  -20.5560   11.0540 O.2   396  ALA396     -0.2867
    157  CB       -22.3120  -20.7840   11.5290 C.3   396  ALA396      0.0290
    158  N        -25.4320  -17.7010    9.4340 N.3   399  ARG399     -0.1245
    159  CA       -25.1900  -18.2640    8.1110 C.3   399  ARG399      0.1563
    160  C        -26.2710  -19.3050    7.7630 C.2   399  ARG399      0.2260
    161  O        -26.8160  -19.3040    6.6560 O.2   399  ARG399     -0.2867
    162  CB       -23.7810  -18.8250    8.0180 C.3   399  ARG399      0.0307
    163  CG       -23.4740  -19.3920    6.6840 C.3   399  ARG399      0.0489
    164  CD       -22.0350  -19.8690    6.5900 C.3   399  ARG399      0.2205
    165  NE       -21.0990  -18.7650    6.6930 N.pl3 399  ARG399     -0.0865
    166  CZ       -19.8580  -18.8050    6.2230 C.cat 399  ARG399      0.5346
    167  NH1      -19.4140  -19.9020    5.6250 N.pl3 399  ARG399      0.1354
    168  NH2      -19.0620  -17.7500    6.3550 N.pl3 399  ARG399      0.1354
@<TRIPOS>BOND
     1   110   111    1
     2    46    45   ar
     3    46    44   ar
     4    45    43   ar
     5    44    42   ar
     6   105   104    2
     7    43    41   ar
     8   111   114    1
     9   111   112    1
    10    42    41   ar
    11   114   115    1
    12    41    40    1
    13    56    55    1
    14   106   107    1
    15   106   103    1
    16    40    37    1
    17   109   107   ar
    18   104   103    1
    19   112   113    2
    20   112   119   am
    21   107   108   ar
    22    54    55    2
    23    54    53    1
    24   102   103    1
    25   115   116    1
    26    55    57    1
    27    51    52    1
    28    51    48    1
    29   117   116   ar
    30    96    95    2
    31    52    53    1
    32   119   120    1
    33   124   126    1
    34   124   125    1
    35   124   123    1
    36   167   166    1
    37    37    36    1
    38    37    38    1
    39   116   118   ar
    40    47    38   am
    41    47    48    1
    42    36    30   am
    43    38    39    2
    44   166   168    1
    45   166   165    2
    46    26    25   ar
    47    28    29    1
    48    48    49    1
    49    95    94    1
    50   101   100    1
    51   123   120    1
    52   164   163    1
    53   164   165    1
    54    50    49    2
    55   120   121    1
    56   161   160    2
    57   163   162    1
    58   130   129    2
    59    49    58   am
    60    97    98    1
    61    97    94    1
    62    30    29    1
    63    30    31    2
    64    93    94    1
    65    98    99    1
    66    25    27   ar
    67    25    24    1
    68   127   121   am
    69   127   128    1
    70    29    32    1
    71    99   100    1
    72   160   159    1
    73   121   122    2
    74   162   159    1
    75   159   158    1
    76    85    86    1
    77   129   128    1
    78   129   134   am
    79    33    32    1
    80    33    35    1
    81    23    24    1
    82    23    20    1
    83    21    22    2
    84    21    20    1
    85    58    59    1
    86   128   131    1
    87   131   133    1
    88   131   132    1
    89    32    34    1
    90   139   138    1
    91    20    19    1
    92    63    62    1
    93   135   138    1
    94   135   134    1
    95   135   136    1
    96    86    87    1
    97    86    89    1
    98    59    62    1
    99    59    60    1
   100    91    90    2
   101    88    87    2
   102    62    64    1
   103   136   137    2
   104    89    90    1
   105    17    16    1
   106    60    61    2
   107    90    92   am
   108   145   144    1
   109   156   155    2
   110   157   154    1
   111    16    18    1
   112    16    15    2
   113   141   140    1
   114   141   144    1
   115   141   142    1
   116    14    15    1
   117    14    13    1
   118   155   154    1
   119   151   150    1
   120   153   154    1
   121    11    10    2
   122   150   152    1
   123   150   147    1
   124    12    13    1
   125    12     9    1
   126   149   148    2
   127    74    72   ar
   128    74    75   ar
   129   142   143    2
   130    10     9    1
   131    72    70   ar
   132    75    73   ar
   133   146   147    1
   134    70    69    1
   135    70    71   ar
   136    73    71   ar
   137     9     8    1
   138   148   147    1
   139    69    66    1
   140    84    83    1
   141    83    82    1
   142    66    65    1
   143    66    67    1
   144    82    81    1
   145    81    80    1
   146    67    68    2
   147    80    77    1
   148    77    76    1
   149    77    78    1
   150     7     5    1
   151     5     6    1
   152     5     2    1
   153    78    79    2
   154     1     2    1
   155     2     3    1
   156     3     4    2
