@<TRIPOS>MOLECULE
tmp/3qo8A01.pdb
 138 136 0 0 0
SMALL
GASTEIGER

@<TRIPOS>ATOM
      1  N        -27.3650  -34.6640   -0.9710 N.3   128  TRP128     -0.1241
      2  CA       -28.7200  -34.9000   -0.4860 C.3   128  TRP128      0.1605
      3  C        -29.6570  -33.7980   -0.9550 C.2   128  TRP128      0.2264
      4  O        -29.3030  -32.6250   -0.9200 O.2   128  TRP128     -0.2867
      5  CB       -28.7590  -34.9900    1.0480 C.3   128  TRP128      0.0550
      6  CG       -30.1360  -35.3160    1.5760 C.ar  128  TRP128      0.0003
      7  CD1      -30.6960  -36.5620    1.6950 C.ar  128  TRP128      0.0946
      8  CD2      -31.1280  -34.3870    2.0340 C.ar  128  TRP128      0.0152
      9  NE1      -31.9680  -36.4610    2.2110 N.ar  128  TRP128     -0.2442
     10  CE2      -32.2550  -35.1400    2.4330 C.ar  128  TRP128      0.0810
     11  CE3      -31.1650  -32.9920    2.1700 C.ar  128  TRP128      0.0012
     12  CZ2      -33.4130  -34.5440    2.9310 C.ar  128  TRP128      0.0191
     13  CZ3      -32.3100  -32.4030    2.6800 C.ar  128  TRP128      0.0001
     14  CH2      -33.4220  -33.1770    3.0450 C.ar  128  TRP128      0.0015
     15  N        -33.9220  -32.5580   -0.5490 N.3   130  PRO130     -0.2102
     16  CA       -35.2130  -32.8040    0.0850 C.3   130  PRO130      0.1504
     17  C        -36.2380  -33.3520   -0.9010 C.2   130  PRO130      0.2576
     18  O        -35.9900  -33.4420   -2.1160 O.2   130  PRO130     -0.2718
     19  CB       -35.6310  -31.4140    0.5750 C.3   130  PRO130      0.0282
     20  CG       -34.9220  -30.4660   -0.3280 C.3   130  PRO130      0.0208
     21  CD       -33.6050  -31.1260   -0.6450 C.3   130  PRO130      0.0893
     22  N        -37.3910  -33.7180   -0.3520 N.am  131  GLU131     -0.1966
     23  CA       -38.5080  -34.2630   -1.1110 C.3   131  GLU131      0.1733
     24  C        -39.0920  -33.1910   -2.0200 C.2   131  GLU131      0.2616
     25  O        -39.1400  -32.0170   -1.6580 O.2   131  GLU131     -0.2715
     26  CB       -39.5740  -34.7730   -0.1350 C.3   131  GLU131      0.0429
     27  CG       -40.8400  -35.3190   -0.7680 C.3   131  GLU131      0.1163
     28  CD       -41.8630  -35.7590    0.2720 C.2   131  GLU131      0.3649
     29  OE1      -41.5430  -35.7190    1.4820 O.co2 131  GLU131     -0.2457
     30  OE2      -42.9860  -36.1430   -0.1200 O.co2 131  GLU131     -0.2457
     31  N        -39.5320  -33.5930   -3.2030 N.am  132  ASN132     -0.1972
     32  CA       -40.1140  -32.6520   -4.1530 C.3   132  ASN132      0.1688
     33  C        -39.1310  -31.5870   -4.6130 C.2   132  ASN132      0.2292
     34  O        -39.5280  -30.5150   -5.0610 O.2   132  ASN132     -0.2864
     35  CB       -41.3660  -31.9950   -3.5690 C.3   132  ASN132      0.1181
     36  CG       -42.4720  -32.9920   -3.3030 C.2   132  ASN132      0.2629
     37  OD1      -42.7830  -33.8330   -4.1510 O.2   132  ASN132     -0.2716
     38  ND2      -43.0720  -32.9100   -2.1160 N.am  132  ASN132     -0.0877
     39  N        -37.7250  -25.5900   -0.4520 N.3   142  ALA142     -0.1231
     40  CA       -38.8350  -25.9420    0.4130 C.3   142  ALA142      0.1694
     41  C        -40.1870  -25.5400   -0.1600 C.2   142  ALA142      0.2592
     42  O        -41.1950  -26.1750    0.1200 O.2   142  ALA142     -0.2718
     43  CB       -38.6350  -25.3270    1.8130 C.3   142  ALA142      0.0304
     44  N        -40.2130  -24.4780   -0.9500 N.am  143  THR143     -0.1953
     45  CA       -41.4800  -23.9330   -1.4250 C.3   143  THR143      0.1897
     46  C        -41.7260  -24.1760   -2.9100 C.2   143  THR143      0.2313
     47  O        -42.8620  -24.0710   -3.3870 O.2   143  THR143     -0.2863
     48  CB       -41.5470  -22.4210   -1.1940 C.3   143  THR143      0.1794
     49  OG1      -40.5280  -21.7870   -1.9730 O.3   143  THR143     -0.2208
     50  CG2      -41.3440  -22.0970    0.2810 C.3   143  THR143      0.0378
     51  N        -31.0030  -32.0690    7.0550 N.3   325  GLN325     -0.1231
     52  CA       -32.1280  -32.7780    6.4590 C.3   325  GLN325      0.1698
     53  C        -33.4250  -32.3660    7.1420 C.2   325  GLN325      0.2593
     54  O        -34.4570  -32.1940    6.4860 O.2   325  GLN325     -0.2718
     55  CB       -31.9360  -34.2860    6.5680 C.3   325  GLN325      0.0381
     56  CG       -30.8460  -34.7950    5.6710 C.3   325  GLN325      0.0905
     57  CD       -30.7580  -36.2940    5.6950 C.2   325  GLN325      0.2608
     58  OE1      -31.7260  -36.9690    6.0370 O.2   325  GLN325     -0.2717
     59  NE2      -29.5960  -36.8300    5.3310 N.am  325  GLN325     -0.0878
     60  N        -33.3580  -32.1900    8.4580 N.am  326  SER326     -0.1938
     61  CA       -34.5370  -31.8390    9.2510 C.3   326  SER326      0.2055
     62  C        -35.0330  -30.4300    8.9190 C.2   326  SER326      0.2643
     63  O        -36.2000  -30.1010    9.1320 O.2   326  SER326     -0.2714
     64  CB       -34.2390  -31.9690   10.7510 C.3   326  SER326      0.2130
     65  OG       -33.6420  -30.7920   11.2670 O.3   326  SER326     -0.2179
     66  N        -34.1430  -29.6010    8.3830 N.am  327  LEU327     -0.1963
     67  CA       -34.5210  -28.2620    7.9480 C.3   327  LEU327      0.1728
     68  C        -34.8800  -28.2290    6.4680 C.2   327  LEU327      0.2616
     69  O        -35.2670  -27.1840    5.9450 O.2   327  LEU327     -0.2715
     70  CB       -33.3810  -27.2710    8.2090 C.3   327  LEU327      0.0311
     71  CG       -33.0820  -26.9480    9.6730 C.3   327  LEU327      0.0022
     72  CD1      -31.7120  -26.2680    9.8190 C.3   327  LEU327      0.0001
     73  CD2      -34.1910  -26.0620   10.2180 C.3   327  LEU327      0.0001
     74  N        -34.7360  -29.3670    5.7920 N.am  328  GLY328     -0.1955
     75  CA       -35.0860  -29.4610    4.3820 C.3   328  GLY328      0.1869
     76  C        -34.1520  -28.6800    3.4700 C.2   328  GLY328      0.2309
     77  O        -34.5690  -28.1490    2.4360 O.2   328  GLY328     -0.2863
     78  N        -36.6340  -20.9010    1.5440 N.3   409  TYR409     -0.1241
     79  CA       -37.9870  -20.8830    2.0960 C.3   409  TYR409      0.1605
     80  C        -38.7570  -19.6600    1.6350 C.2   409  TYR409      0.2264
     81  O        -39.8710  -19.4230    2.0810 O.2   409  TYR409     -0.2867
     82  CB       -37.9780  -20.9950    3.6320 C.3   409  TYR409      0.0534
     83  CG       -37.8830  -22.4260    4.1210 C.ar  409  TYR409     -0.0201
     84  CD1      -36.6610  -23.0920    4.1530 C.ar  409  TYR409     -0.0009
     85  CD2      -39.0150  -23.1140    4.5410 C.ar  409  TYR409     -0.0009
     86  CE1      -36.5670  -24.4130    4.5910 C.ar  409  TYR409      0.0417
     87  CE2      -38.9340  -24.4420    4.9830 C.ar  409  TYR409      0.0417
     88  CZ       -37.7020  -25.0810    5.0010 C.ar  409  TYR409      0.1957
     89  OH       -37.6030  -26.3920    5.4330 O.3   409  TYR409     -0.2866
     90  N        -41.7530  -18.8790    4.2530 N.3   416  VAL416     -0.1231
     91  CA       -42.2950  -20.0200    4.9840 C.3   416  VAL416      0.1692
     92  C        -41.3370  -20.3610    6.1510 C.2   416  VAL416      0.2592
     93  O        -40.1290  -20.3830    5.9790 O.2   416  VAL416     -0.2718
     94  CB       -42.4730  -21.2390    4.0420 C.3   416  VAL416      0.0266
     95  CG1      -42.7540  -22.5120    4.8400 C.3   416  VAL416      0.0020
     96  CG2      -43.5860  -20.9760    3.0300 C.3   416  VAL416      0.0020
     97  N        -41.8720  -20.5980    7.3430 N.am  417  ILE417     -0.1966
     98  CA       -41.0290  -20.9620    8.4820 C.3   417  ILE417      0.1712
     99  C        -40.7910  -22.4750    8.4780 C.2   417  ILE417      0.2458
    100  O        -41.7480  -23.2530    8.4490 O.2   417  ILE417     -0.2730
    101  CB       -41.6880  -20.5470    9.8250 C.3   417  ILE417      0.0289
    102  CG1      -41.9470  -19.0300    9.8680 C.3   417  ILE417      0.0022
    103  CG2      -40.8470  -21.0070   11.0140 C.3   417  ILE417      0.0023
    104  CD1      -40.7140  -18.1530    9.8190 C.3   417  ILE417      0.0001
    105  N        -39.5210  -22.9060    8.4990 N.am  418  PRO418     -0.2716
    106  CA       -39.2740  -24.3540    8.5150 C.3   418  PRO418      0.1536
    107  C        -40.0600  -25.0340    9.6470 C.2   418  PRO418      0.2598
    108  O        -40.0550  -24.5540   10.7740 O.2   418  PRO418     -0.2715
    109  CB       -37.7690  -24.4470    8.7650 C.3   418  PRO418      0.0310
    110  CG       -37.2200  -23.1760    8.1130 C.3   418  PRO418      0.0237
    111  CD       -38.2760  -22.1210    8.3620 C.3   418  PRO418      0.0939
    112  N        -40.7270  -26.1410    9.3510 N.am  419  GLU419     -0.1964
    113  CA       -41.6040  -26.7660   10.3420 C.3   419  GLU419      0.1733
    114  C        -40.9490  -27.0210   11.7050 C.2   419  GLU419      0.2616
    115  O        -41.5420  -26.7040   12.7240 O.2   419  GLU419     -0.2715
    116  CB       -42.2470  -28.0440    9.7960 C.3   419  GLU419      0.0429
    117  CG       -43.5240  -28.4540   10.5230 C.3   419  GLU419      0.1163
    118  CD       -43.2600  -29.1090   11.8690 C.2   419  GLU419      0.3649
    119  OE1      -42.1520  -29.6600   12.0630 O.co2 419  GLU419     -0.2457
    120  OE2      -44.1650  -29.0730   12.7350 O.co2 419  GLU419     -0.2457
    121  N        -39.7400  -27.5790   11.7310 N.am  420  VAL420     -0.1977
    122  CA       -39.0860  -27.9000   13.0030 C.3   420  VAL420      0.1596
    123  C        -38.7730  -26.6820   13.8660 C.2   420  VAL420      0.2287
    124  O        -38.5590  -26.8350   15.0590 O.2   420  VAL420     -0.2864
    125  CB       -37.7670  -28.6920   12.8220 C.3   420  VAL420      0.0276
    126  CG1      -38.0140  -29.9710   12.0430 C.3   420  VAL420      0.0022
    127  CG2      -36.7100  -27.8290   12.1380 C.3   420  VAL420      0.0022
    128  N        -40.8030  -23.9420   14.1190 N.3   422  ARG422     -0.1245
    129  CA       -42.0330  -23.2390   14.4910 C.3   422  ARG422      0.1563
    130  C        -42.3080  -23.1990   15.9860 C.2   422  ARG422      0.2260
    131  O        -42.7430  -22.1760   16.5140 O.2   422  ARG422     -0.2867
    132  CB       -43.2360  -23.8260   13.7380 C.3   422  ARG422      0.0307
    133  CG       -43.2170  -23.4490   12.2630 C.3   422  ARG422      0.0489
    134  CD       -44.2300  -24.2350   11.4180 C.3   422  ARG422      0.2205
    135  NE       -43.9200  -24.0680    9.9990 N.pl3 422  ARG422     -0.0865
    136  CZ       -44.6310  -24.5910    9.0060 C.cat 422  ARG422      0.5346
    137  NH1      -45.7010  -25.3290    9.2770 N.pl3 422  ARG422      0.1354
    138  NH2      -44.2650  -24.3790    7.7420 N.pl3 422  ARG422      0.1354
@<TRIPOS>BOND
     1    34    33    2
     2    33    32    1
     3    32    35    1
     4    32    31    1
     5    37    36    2
     6    35    36    1
     7    47    46    2
     8    36    38   am
     9    31    24   am
    10    46    45    1
    11    18    17    2
    12    24    25    2
    13    24    23    1
    14    49    48    1
    15    45    48    1
    16    45    44    1
    17    48    50    1
    18    23    22    1
    19    23    26    1
    20     1     2    1
    21     3     4    2
    22     3     2    1
    23    44    41   am
    24    17    22   am
    25    17    16    1
    26    27    26    1
    27    27    28    1
    28    21    15    1
    29    21    20    1
    30    15    16    1
    31     2     5    1
    32    39    40    1
    33    20    19    1
    34    41    42    2
    35    41    40    1
    36    30    28   ar
    37    16    19    1
    38    28    29   ar
    39    40    43    1
    40     5     6    1
    41    78    79    1
    42     6     7   ar
    43     6     8   ar
    44    80    81    2
    45    80    79    1
    46     7     9   ar
    47     8    11   ar
    48     8    10   ar
    49    79    82    1
    50    11    13   ar
    51     9    10   ar
    52    10    12   ar
    53    77    76    2
    54    13    14   ar
    55    12    14   ar
    56    96    94    1
    57    76    75    1
    58    82    83    1
    59    94    95    1
    60    94    91    1
    61    83    84   ar
    62    83    85   ar
    63    84    86   ar
    64    90    91    1
    65    75    74    1
    66    85    87   ar
    67    86    88   ar
    68    87    88   ar
    69    91    92    1
    70    88    89    1
    71    59    57   am
    72    56    57    1
    73    56    55    1
    74    57    58    2
    75    74    68   am
    76    69    68    2
    77    93    92    2
    78    92    97   am
    79    52    55    1
    80    52    51    1
    81    52    53    1
    82    68    67    1
    83    54    53    2
    84    53    60   am
    85    97    98    1
    86   138   136    1
    87    67    70    1
    88    67    66    1
    89   110   111    1
    90   110   109    1
    91    70    71    1
    92   111   105    1
    93    66    62   am
    94   100    99    2
    95    60    61    1
    96    99    98    1
    97    99   105   am
    98    98   101    1
    99   105   106    1
   100   106   109    1
   101   106   107    1
   102    62    63    2
   103    62    61    1
   104   136   137    1
   105   136   135    2
   106    61    64    1
   107   112   107   am
   108   112   113    1
   109   107   108    2
   110    71    72    1
   111    71    73    1
   112   116   113    1
   113   116   117    1
   114   104   102    1
   115   101   102    1
   116   101   103    1
   117   135   134    1
   118   113   114    1
   119   117   118    1
   120    64    65    1
   121   134   133    1
   122   114   121   am
   123   114   115    2
   124   121   122    1
   125   118   119   ar
   126   118   120   ar
   127   126   125    1
   128   127   125    1
   129   133   132    1
   130   125   122    1
   131   122   123    1
   132   132   129    1
   133   123   124    2
   134   128   129    1
   135   129   130    1
   136   130   131    2
