@<TRIPOS>MOLECULE
tmp/3qo8A00.pdb
 172 160 0 0 0
SMALL
GASTEIGER

@<TRIPOS>ATOM
      1  N         -7.3170  -13.4540   12.5890 N.3   227  GLU227     -0.1245
      2  CA        -8.6240  -13.9310   13.0330 C.3   227  GLU227      0.1567
      3  C         -9.0820  -13.3120   14.3510 C.2   227  GLU227      0.2260
      4  O        -10.2180  -12.8440   14.4450 O.2   227  GLU227     -0.2867
      5  CB        -8.6690  -15.4670   13.1120 C.3   227  GLU227      0.0388
      6  CG       -10.0850  -16.0510   13.1980 C.3   227  GLU227      0.1160
      7  CD       -10.1030  -17.5550   13.4980 C.2   227  GLU227      0.3649
      8  OE1       -9.2660  -18.0180   14.3130 O.co2 227  GLU227     -0.2457
      9  OE2      -10.9580  -18.2750   12.9250 O.co2 227  GLU227     -0.2457
     10  N        -14.5590  -19.4160   18.0120 N.3   243  THR243     -0.1218
     11  CA       -15.4550  -20.5710   18.0020 C.3   243  THR243      0.1862
     12  C        -15.4140  -21.1950   19.3850 C.2   243  THR243      0.2287
     13  O        -14.3720  -21.1670   20.0410 O.2   243  THR243     -0.2866
     14  CB       -15.0150  -21.6430   16.9350 C.3   243  THR243      0.1770
     15  OG1      -15.5800  -22.9170   17.2680 O.3   243  THR243     -0.2211
     16  CG2      -13.5000  -21.7890   16.9000 C.3   243  THR243      0.0375
     17  N        -15.1610  -24.0630   20.0500 N.3   245  GLU245     -0.1245
     18  CA       -14.1490  -25.1100   19.9680 C.3   245  GLU245      0.1567
     19  C        -12.9570  -24.7580   20.8520 C.2   245  GLU245      0.2260
     20  O        -12.4050  -25.6040   21.5500 O.2   245  GLU245     -0.2867
     21  CB       -13.6760  -25.2840   18.5190 C.3   245  GLU245      0.0388
     22  CG       -12.6010  -26.3450   18.3350 C.3   245  GLU245      0.1160
     23  CD       -11.7640  -26.1600   17.0590 C.2   245  GLU245      0.3649
     24  OE1      -12.2750  -25.6310   16.0360 O.co2 245  GLU245     -0.2457
     25  OE2      -10.5740  -26.5470   17.0950 O.co2 245  GLU245     -0.2457
     26  N        -14.6710  -12.8480   14.6510 N.3   276  ARG276     -0.1245
     27  CA       -13.5990  -13.0300   13.6940 C.3   276  ARG276      0.1563
     28  C        -13.3080  -11.7390   12.9430 C.2   276  ARG276      0.2260
     29  O        -14.2120  -11.1020   12.4270 O.2   276  ARG276     -0.2867
     30  CB       -13.9670  -14.1440   12.7180 C.3   276  ARG276      0.0307
     31  CG       -14.2860  -15.4480   13.4170 C.3   276  ARG276      0.0489
     32  CD       -14.4450  -16.5900   12.4330 C.3   276  ARG276      0.2205
     33  NE       -14.7930  -17.8140   13.1410 N.pl3 276  ARG276     -0.0865
     34  CZ       -14.7050  -19.0350   12.6210 C.cat 276  ARG276      0.5346
     35  NH1      -14.2600  -19.2070   11.3690 N.pl3 276  ARG276      0.1354
     36  NH2      -15.0500  -20.0860   13.3640 N.pl3 276  ARG276      0.1354
     37  N        -11.7680  -11.5060   10.1680 N.3   278  GLU278     -0.1245
     38  CA       -11.8680  -11.7390    8.7280 C.3   278  GLU278      0.1567
     39  C        -10.9410  -10.7700    8.0090 C.2   278  GLU278      0.2260
     40  O        -11.3210  -10.1460    7.0170 O.2   278  GLU278     -0.2867
     41  CB       -13.3050  -11.5380    8.2550 C.3   278  GLU278      0.0388
     42  CG       -14.3000  -12.5220    8.9000 C.3   278  GLU278      0.1160
     43  CD       -14.1150  -13.9470    8.3840 C.2   278  GLU278      0.3649
     44  OE1      -14.2760  -14.9110    9.1650 O.co2 278  GLU278     -0.2457
     45  OE2      -13.8100  -14.1070    7.1870 O.co2 278  GLU278     -0.2457
     46  N        -25.8410  -11.3580    6.4000 N.3   289  ILE289     -0.1231
     47  CA       -25.2340  -11.8790    7.6270 C.3   289  ILE289      0.1692
     48  C        -24.5830  -13.2320    7.3400 C.2   289  ILE289      0.2592
     49  O        -24.4980  -14.1020    8.2150 O.2   289  ILE289     -0.2718
     50  CB       -26.2720  -12.0200    8.7660 C.3   289  ILE289      0.0266
     51  CG1      -27.4700  -12.8570    8.3070 C.3   289  ILE289      0.0019
     52  CG2      -26.7310  -10.6450    9.2280 C.3   289  ILE289      0.0020
     53  CD1      -28.4720  -13.1370    9.4170 C.3   289  ILE289      0.0001
     54  N        -24.1300  -13.4000    6.1010 N.am  290  PHE290     -0.1962
     55  CA       -23.4950  -14.6390    5.6790 C.3   290  PHE290      0.1771
     56  C        -22.0740  -14.6960    6.1890 C.2   290  PHE290      0.2619
     57  O        -21.6280  -15.7250    6.6790 O.2   290  PHE290     -0.2715
     58  CB       -23.5060  -14.7700    4.1420 C.3   290  PHE290      0.0574
     59  CG       -22.8130  -16.0170    3.6390 C.ar  290  PHE290     -0.0200
     60  CD1      -23.5310  -17.1830    3.4140 C.ar  290  PHE290     -0.0042
     61  CD2      -21.4460  -16.0260    3.4200 C.ar  290  PHE290     -0.0042
     62  CE1      -22.8960  -18.3320    2.9570 C.ar  290  PHE290     -0.0003
     63  CE2      -20.8050  -17.1700    2.9710 C.ar  290  PHE290     -0.0003
     64  CZ       -21.5360  -18.3280    2.7410 C.ar  290  PHE290     -0.0000
     65  N        -21.3550  -13.5890    6.0530 N.am  291  ARG291     -0.1963
     66  CA       -19.9910  -13.5080    6.5390 C.3   291  ARG291      0.1729
     67  C        -19.8560  -12.2380    7.3490 C.2   291  ARG291      0.2616
     68  O        -19.8120  -11.1420    6.7830 O.2   291  ARG291     -0.2715
     69  CB       -18.9750  -13.4720    5.3850 C.3   291  ARG291      0.0348
     70  CG       -17.5420  -13.3910    5.9010 C.3   291  ARG291      0.0492
     71  CD       -16.4950  -13.3480    4.7800 C.3   291  ARG291      0.2205
     72  NE       -16.5160  -14.5680    3.9920 N.pl3 291  ARG291     -0.0865
     73  CZ       -15.9850  -15.7240    4.3830 C.cat 291  ARG291      0.5346
     74  NH1      -15.3810  -15.8170    5.5640 N.pl3 291  ARG291      0.1354
     75  NH2      -16.0580  -16.7880    3.5900 N.pl3 291  ARG291      0.1354
     76  N        -19.8080  -12.3870    8.6720 N.am  292  VAL292     -0.1977
     77  CA       -19.8280  -11.2390    9.5790 C.3   292  VAL292      0.1596
     78  C        -18.7220  -11.3550   10.6130 C.2   292  VAL292      0.2287
     79  O        -17.9990  -12.3450   10.6330 O.2   292  VAL292     -0.2864
     80  CB       -21.1920  -11.1220   10.2880 C.3   292  VAL292      0.0276
     81  CG1      -22.2730  -10.6440    9.3010 C.3   292  VAL292      0.0022
     82  CG2      -21.5760  -12.4700   10.9180 C.3   292  VAL292      0.0022
     83  N        -21.0380  -13.8120   15.3050 N.3   295  PHE295     -0.1241
     84  CA       -22.1490  -14.7060   14.9820 C.3   295  PHE295      0.1605
     85  C        -22.2850  -15.7540   16.0690 C.2   295  PHE295      0.2264
     86  O        -21.3510  -15.9540   16.8580 O.2   295  PHE295     -0.2867
     87  CB       -21.9700  -15.3540   13.5810 C.3   295  PHE295      0.0534
     88  CG       -20.7510  -16.2380   13.4550 C.ar  295  PHE295     -0.0203
     89  CD1      -20.8340  -17.6010   13.6940 C.ar  295  PHE295     -0.0042
     90  CD2      -19.5210  -15.7010   13.0890 C.ar  295  PHE295     -0.0042
     91  CE1      -19.7040  -18.4210   13.5650 C.ar  295  PHE295     -0.0003
     92  CE2      -18.3930  -16.4940   12.9840 C.ar  295  PHE295     -0.0003
     93  CZ       -18.4760  -17.8580   13.2110 C.ar  295  PHE295     -0.0000
     94  N        -23.0040  -19.8380   17.2180 N.3   297  LYS297     -0.1245
     95  CA       -22.7540  -21.1630   16.6630 C.3   297  LYS297      0.1561
     96  C        -22.9930  -22.2360   17.7150 C.2   297  LYS297      0.2260
     97  O        -22.4860  -22.1450   18.8440 O.2   297  LYS297     -0.2867
     98  CB       -21.3210  -21.2650   16.1030 C.3   297  LYS297      0.0271
     99  CG       -20.9880  -22.6480   15.4670 C.3   297  LYS297      0.0035
    100  CD       -19.6670  -22.6260   14.6360 C.3   297  LYS297      0.0206
    101  CE       -18.4630  -22.1150   15.4600 C.3   297  LYS297      0.1093
    102  NZ       -18.3300  -22.8060   16.7770 N.3   297  LYS297     -0.1314
    103  N        -21.9500  -25.8970   18.3890 N.3   299  GLU299     -0.1245
    104  CA       -20.7610  -26.6590   18.0570 C.3   299  GLU299      0.1567
    105  C        -20.8660  -28.0720   18.6390 C.2   299  GLU299      0.2260
    106  O        -21.3020  -28.2470   19.7800 O.2   299  GLU299     -0.2867
    107  CB       -19.5570  -25.9600   18.7180 C.3   299  GLU299      0.0388
    108  CG       -18.2100  -26.6390   18.4870 C.3   299  GLU299      0.1160
    109  CD       -17.6650  -26.4000   17.0820 C.2   299  GLU299      0.3649
    110  OE1      -18.3930  -25.7970   16.2580 O.co2 299  GLU299     -0.2457
    111  OE2      -16.5030  -26.8030   16.8070 O.co2 299  GLU299     -0.2457
    112  N        -20.3620  -23.3380    2.1140 N.3   363  GLU363     -0.1231
    113  CA       -19.9880  -23.9790    3.3640 C.3   363  GLU363      0.1699
    114  C        -20.8570  -23.5430    4.5630 C.2   363  GLU363      0.2592
    115  O        -20.9570  -22.3570    4.8570 O.2   363  GLU363     -0.2718
    116  CB       -18.5330  -23.6530    3.6570 C.3   363  GLU363      0.0402
    117  CG       -18.0600  -24.2010    4.9970 C.3   363  GLU363      0.1161
    118  CD       -16.8380  -23.4750    5.5140 C.2   363  GLU363      0.3649
    119  OE1      -16.1120  -22.8620    4.7030 O.co2 363  GLU363     -0.2457
    120  OE2      -16.6050  -23.5210    6.7350 O.co2 363  GLU363     -0.2457
    121  N        -21.4790  -24.4990    5.2510 N.am  364  LEU364     -0.1966
    122  CA       -22.1840  -24.2120    6.5190 C.3   364  LEU364      0.1728
    123  C        -21.5500  -24.9450    7.7040 C.2   364  LEU364      0.2616
    124  O        -21.8000  -24.6070    8.8580 O.2   364  LEU364     -0.2715
    125  CB       -23.6530  -24.6430    6.4510 C.3   364  LEU364      0.0311
    126  CG       -24.5830  -23.9080    5.4810 C.3   364  LEU364      0.0022
    127  CD1      -26.0160  -24.2590    5.8120 C.3   364  LEU364      0.0001
    128  CD2      -24.3850  -22.4070    5.5650 C.3   364  LEU364      0.0001
    129  N        -20.7740  -25.9820    7.4080 N.am  365  VAL365     -0.1963
    130  CA       -20.2530  -26.8690    8.4320 C.3   365  VAL365      0.1727
    131  C        -18.8520  -27.3510    8.0920 C.2   365  VAL365      0.2616
    132  O        -18.5950  -27.7430    6.9450 O.2   365  VAL365     -0.2715
    133  CB       -21.1700  -28.1150    8.6030 C.3   365  VAL365      0.0290
    134  CG1      -20.4770  -29.1930    9.4380 C.3   365  VAL365      0.0023
    135  CG2      -22.5100  -27.7250    9.2210 C.3   365  VAL365      0.0023
    136  N        -17.9500  -27.3140    9.0790 N.am  366  SER366     -0.1950
    137  CA       -16.6920  -28.0550    8.9950 C.3   366  SER366      0.1924
    138  C        -16.6460  -29.0620   10.1300 C.2   366  SER366      0.2314
    139  O        -16.9720  -28.7360   11.2690 O.2   366  SER366     -0.2863
    140  CB       -15.4720  -27.1370    9.0990 C.3   366  SER366      0.2116
    141  OG       -15.2720  -26.4250    7.8960 O.3   366  SER366     -0.2180
    142  N        -14.1380  -31.8910   16.3620 N.3   392  ASN392     -0.1240
    143  CA       -15.0860  -30.8010   16.4430 C.3   392  ASN392      0.1653
    144  C        -15.8330  -30.7050   15.1320 C.2   392  ASN392      0.2266
    145  O        -15.2760  -31.0040   14.0660 O.2   392  ASN392     -0.2867
    146  CB       -14.3840  -29.4800   16.7820 C.3   392  ASN392      0.1155
    147  CG       -13.5230  -28.9580   15.6370 C.2   392  ASN392      0.2627
    148  OD1      -14.0070  -28.2370   14.7510 O.2   392  ASN392     -0.2716
    149  ND2      -12.2370  -29.3090   15.6540 N.am  392  ASN392     -0.0877
    150  N        -19.0870  -28.1400   13.2960 N.3   394  THR394     -0.1218
    151  CA       -20.2110  -27.2310   13.3440 C.3   394  THR394      0.1862
    152  C        -21.4940  -28.0560   13.4110 C.2   394  THR394      0.2287
    153  O        -21.6160  -29.0560   12.7170 O.2   394  THR394     -0.2866
    154  CB       -20.2850  -26.3870   12.0720 C.3   394  THR394      0.1770
    155  OG1      -18.9830  -25.8740   11.7580 O.3   394  THR394     -0.2211
    156  CG2      -21.2860  -25.2490   12.2460 C.3   394  THR394      0.0375
    157  N        -23.9100  -22.7330   12.4770 N.3   397  ALA397     -0.1245
    158  CA       -23.5650  -21.3260   12.5980 C.3   397  ALA397      0.1562
    159  C        -24.8490  -20.5970   12.2390 C.2   397  ALA397      0.2260
    160  O        -25.2940  -20.6390   11.0940 O.2   397  ALA397     -0.2867
    161  CB       -22.4540  -20.9690   11.6380 C.3   397  ALA397      0.0290
    162  N        -25.5050  -17.7000    9.4110 N.3   400  ARG400     -0.1245
    163  CA       -25.2910  -18.2350    8.0570 C.3   400  ARG400      0.1563
    164  C        -26.3440  -19.2820    7.6930 C.2   400  ARG400      0.2260
    165  O        -26.8110  -19.3520    6.5490 O.2   400  ARG400     -0.2867
    166  CB       -23.8730  -18.7880    7.8550 C.3   400  ARG400      0.0307
    167  CG       -23.6290  -19.2020    6.3920 C.3   400  ARG400      0.0489
    168  CD       -22.1910  -19.6630    6.1250 C.3   400  ARG400      0.2205
    169  NE       -21.2570  -18.5540    6.2770 N.pl3 400  ARG400     -0.0865
    170  CZ       -19.9690  -18.6290    5.9690 C.cat 400  ARG400      0.5346
    171  NH1      -19.4730  -19.7590    5.4630 N.pl3 400  ARG400      0.1354
    172  NH2      -19.1900  -17.5690    6.1450 N.pl3 400  ARG400      0.1354
@<TRIPOS>BOND
     1   112   113    1
     2    64    62   ar
     3    64    63   ar
     4    62    60   ar
     5    63    61   ar
     6   113   116    1
     7   113   114    1
     8    60    59   ar
     9    61    59   ar
    10    75    73    1
    11    59    58    1
    12   116   117    1
    13    72    73    2
    14    72    71    1
    15    58    55    1
    16    73    74    1
    17   114   115    2
    18   114   121   am
    19   119   118   ar
    20    71    70    1
    21   117   118    1
    22   121   122    1
    23    69    70    1
    24    69    66    1
    25   171   170    1
    26   126   128    1
    27   126   127    1
    28   126   125    1
    29   118   120   ar
    30    55    54    1
    31    55    56    1
    32   170   172    1
    33   170   169    2
    34    65    56   am
    35    65    66    1
    36    54    48   am
    37   168   169    1
    38   168   167    1
    39    56    57    2
    40   167   166    1
    41    46    47    1
    42   125   122    1
    43   122   123    1
    44    66    67    1
    45   165   164    2
    46    68    67    2
    47   132   131    2
    48    40    39    2
    49    45    43   ar
    50    48    47    1
    51    48    49    2
    52    67    76   am
    53   129   123   am
    54   129   130    1
    55    47    50    1
    56   164   163    1
    57   123   124    2
    58   166   163    1
    59   141   140    1
    60    39    38    1
    61   163   162    1
    62   131   130    1
    63   131   136   am
    64    41    38    1
    65    41    42    1
    66    51    50    1
    67    51    53    1
    68    43    42    1
    69    43    44   ar
    70   130   133    1
    71   133   135    1
    72   133   134    1
    73    76    77    1
    74    38    37    1
    75    50    52    1
    76   137   136    1
    77   137   140    1
    78   137   138    1
    79    81    80    1
    80    77    80    1
    81    77    78    1
    82   138   139    2
    83    80    82    1
    84    78    79    2
    85   160   159    2
    86    35    34    1
    87   161   158    1
    88   155   154    1
    89   154   156    1
    90   154   151    1
    91   159   158    1
    92    29    28    2
    93    32    33    1
    94    32    31    1
    95   157   158    1
    96     1     2    1
    97    34    33    2
    98    34    36    1
    99   153   152    2
   100    30    31    1
   101    30    27    1
   102     9     7   ar
   103    28    27    1
   104    92    90   ar
   105    92    93   ar
   106     2     5    1
   107     2     3    1
   108    90    88   ar
   109     5     6    1
   110     6     7    1
   111    93    91   ar
   112   150   151    1
   113   151   152    1
   114    88    87    1
   115    88    89   ar
   116     7     8   ar
   117    91    89   ar
   118    87    84    1
   119    27    26    1
   120   145   144    2
   121     3     4    2
   122   100   101    1
   123   100    99    1
   124   148   147    2
   125    84    83    1
   126    84    85    1
   127   144   143    1
   128   101   102    1
   129    99    98    1
   130   147   149   am
   131   147   146    1
   132    24    23   ar
   133    85    86    2
   134    98    95    1
   135   110   109   ar
   136   142   143    1
   137   143   146    1
   138    95    94    1
   139    95    96    1
   140   111   109   ar
   141    16    14    1
   142    14    15    1
   143    14    11    1
   144    23    25   ar
   145    23    22    1
   146   109   108    1
   147    96    97    2
   148    11    10    1
   149    11    12    1
   150   104   103    1
   151   104   105    1
   152   104   107    1
   153    22    21    1
   154   108   107    1
   155    21    18    1
   156   105   106    2
   157    12    13    2
   158    18    17    1
   159    18    19    1
   160    19    20    2
