@<TRIPOS>MOLECULE
tmp/3qo9A00.pdb
 183 180 0 0 0
SMALL
GASTEIGER

@<TRIPOS>ATOM
      1  N         44.0030  -19.2070   37.7370 N.3    96  PRO96      -0.2116
      2  CA        44.6620  -19.8700   36.6090 C.3    96  PRO96       0.1372
      3  C         43.6100  -20.7200   35.9230 C.2    96  PRO96       0.2244
      4  O         42.7060  -21.2320   36.5790 O.2    96  PRO96      -0.2868
      5  CB        45.7360  -20.7180   37.2780 C.3    96  PRO96       0.0268
      6  CG        46.0330  -19.9530   38.5310 C.3    96  PRO96       0.0207
      7  CD        44.6420  -19.5760   39.0030 C.3    96  PRO96       0.0892
      8  N         47.5330  -24.4590   31.6480 N.3   101  LEU101     -0.1231
      9  CA        48.5530  -25.2480   32.3090 C.3   101  LEU101      0.1693
     10  C         49.4730  -25.9830   31.3290 C.2   101  LEU101      0.2592
     11  O         49.0370  -26.4920   30.2970 O.2   101  LEU101     -0.2718
     12  CB        47.8770  -26.2390   33.2580 C.3   101  LEU101      0.0284
     13  CG        46.7370  -25.6170   34.0820 C.3   101  LEU101      0.0019
     14  CD1       46.1130  -26.6750   34.9410 C.3   101  LEU101      0.0001
     15  CD2       47.2550  -24.4680   34.9460 C.3   101  LEU101      0.0001
     16  N         50.7580  -26.0140   31.6650 N.am  102  LYS102     -0.1966
     17  CA        51.7670  -26.6820   30.8560 C.3   102  LYS102      0.1728
     18  C         52.3070  -27.8820   31.6320 C.2   102  LYS102      0.2616
     19  O         53.0810  -27.7330   32.5740 O.2   102  LYS102     -0.2715
     20  CB        52.8960  -25.7040   30.5280 C.3   102  LYS102      0.0311
     21  CG        52.5070  -24.6180   29.5370 C.3   102  LYS102      0.0038
     22  CD        53.2180  -23.3140   29.8600 C.3   102  LYS102      0.0206
     23  CE        52.7590  -22.7470   31.2090 C.3   102  LYS102      0.1093
     24  NZ        53.4480  -21.4620   31.5230 N.3   102  LYS102     -0.1314
     25  N         51.8820  -29.0730   31.2250 N.am  103  LYS103     -0.1963
     26  CA        52.2850  -30.3100   31.8850 C.3   103  LYS103      0.1728
     27  C         53.7730  -30.6230   31.8420 C.2   103  LYS103      0.2616
     28  O         54.5020  -30.1410   30.9750 O.2   103  LYS103     -0.2715
     29  CB        51.5330  -31.4880   31.2830 C.3   103  LYS103      0.0311
     30  CG        52.0300  -32.8210   31.7720 C.3   103  LYS103      0.0038
     31  CD        51.4490  -33.9410   30.9510 C.3   103  LYS103      0.0206
     32  CE        50.4910  -34.7810   31.7660 C.3   103  LYS103      0.1093
     33  NZ        49.8680  -35.8400   30.9220 N.3   103  LYS103     -0.1314
     34  N         54.2020  -31.4390   32.8010 N.am  104  LYS104     -0.1977
     35  CA        55.5890  -31.8810   32.9130 C.3   104  LYS104      0.1596
     36  C         55.5600  -33.3910   33.1390 C.2   104  LYS104      0.2287
     37  O         54.5650  -33.9210   33.6490 O.2   104  LYS104     -0.2864
     38  CB        56.2830  -31.1830   34.0900 C.3   104  LYS104      0.0298
     39  CG        56.5620  -29.7130   33.8510 C.3   104  LYS104      0.0038
     40  CD        57.5140  -29.5250   32.6920 C.3   104  LYS104      0.0206
     41  CE        57.7150  -28.0470   32.3750 C.3   104  LYS104      0.1093
     42  NZ        58.7630  -27.8110   31.3380 N.3   104  LYS104     -0.1314
     43  N         56.3060  -34.5640   38.4850 N.3   107  VAL107     -0.1245
     44  CA        55.7480  -33.5490   39.3780 C.3   107  VAL107      0.1561
     45  C         55.6340  -34.0400   40.8210 C.2   107  VAL107      0.2260
     46  O         54.9330  -35.0060   41.0820 O.2   107  VAL107     -0.2867
     47  CB        54.3480  -33.1180   38.8910 C.3   107  VAL107      0.0252
     48  CG1       53.5500  -32.5160   40.0240 C.3   107  VAL107      0.0019
     49  CG2       54.4910  -32.1230   37.7700 C.3   107  VAL107      0.0019
     50  N         54.7680  -33.1530   44.9980 N.3   109  VAL109     -0.1245
     51  CA        54.0710  -32.2390   45.8960 C.3   109  VAL109      0.1561
     52  C         54.6850  -32.2050   47.2970 C.2   109  VAL109      0.2260
     53  O         54.6800  -33.2100   48.0030 O.2   109  VAL109     -0.2867
     54  CB        52.5830  -32.6300   46.0420 C.3   109  VAL109      0.0252
     55  CG1       51.8250  -31.5460   46.8140 C.3   109  VAL109      0.0019
     56  CG2       51.9690  -32.8610   44.6780 C.3   109  VAL109      0.0019
     57  N         60.2890  -26.3000   37.3450 N.3   180  VAL180     -0.1245
     58  CA        59.2480  -25.3400   37.6750 C.3   180  VAL180      0.1561
     59  C         58.7560  -25.5860   39.0900 C.2   180  VAL180      0.2260
     60  O         58.4450  -26.7240   39.4620 O.2   180  VAL180     -0.2867
     61  CB        58.0050  -25.4470   36.7450 C.3   180  VAL180      0.0252
     62  CG1       58.3300  -24.9430   35.3540 C.3   180  VAL180      0.0019
     63  CG2       57.5140  -26.8940   36.6980 C.3   180  VAL180      0.0019
     64  N         55.8180  -24.2190   41.6610 N.3   182  TYR182     -0.1227
     65  CA        54.5670  -23.4690   41.8050 C.3   182  TYR182      0.1736
     66  C         54.2060  -23.3050   43.2980 C.2   182  TYR182      0.2595
     67  O         54.5500  -24.1570   44.1210 O.2   182  TYR182     -0.2718
     68  CB        53.4300  -24.2170   41.0870 C.3   182  TYR182      0.0548
     69  CG        53.6290  -24.4160   39.6000 C.ar  182  TYR182     -0.0200
     70  CD1       53.3620  -23.3920   38.6960 C.ar  182  TYR182     -0.0009
     71  CD2       54.0790  -25.6320   39.0920 C.ar  182  TYR182     -0.0009
     72  CE1       53.5370  -23.5710   37.3230 C.ar  182  TYR182      0.0417
     73  CE2       54.2570  -25.8200   37.7250 C.ar  182  TYR182      0.0417
     74  CZ        53.9820  -24.7850   36.8500 C.ar  182  TYR182      0.1957
     75  OH        54.1410  -24.9580   35.4940 O.3   182  TYR182     -0.2866
     76  N         53.5190  -22.2180   43.6470 N.am  183  GLN183     -0.1965
     77  CA        53.1130  -21.9940   45.0360 C.3   183  GLN183      0.1733
     78  C         51.6080  -21.8220   45.1520 C.2   183  GLN183      0.2616
     79  O         51.0730  -20.7720   44.7920 O.2   183  GLN183     -0.2715
     80  CB        53.7460  -20.7350   45.6130 C.3   183  GLN183      0.0408
     81  CG        55.2490  -20.7440   45.7670 C.3   183  GLN183      0.0908
     82  CD        55.7440  -19.4790   46.4380 C.2   183  GLN183      0.2608
     83  OE1       56.9430  -19.2410   46.5430 O.2   183  GLN183     -0.2717
     84  NE2       54.8120  -18.6580   46.9060 N.am  183  GLN183     -0.0878
     85  N         50.9190  -22.8380   45.6540 N.am  184  TYR184     -0.1974
     86  CA        49.4840  -22.7270   45.8150 C.3   184  TYR184      0.1639
     87  C         49.0960  -23.2080   47.1890 C.2   184  TYR184      0.2290
     88  O         49.3840  -24.3480   47.5720 O.2   184  TYR184     -0.2864
     89  CB        48.7370  -23.5450   44.7660 C.3   184  TYR184      0.0560
     90  CG        47.2350  -23.3310   44.7840 C.ar  184  TYR184     -0.0198
     91  CD1       46.6820  -22.1160   44.3840 C.ar  184  TYR184     -0.0009
     92  CD2       46.3680  -24.3370   45.2230 C.ar  184  TYR184     -0.0009
     93  CE1       45.3010  -21.9060   44.4160 C.ar  184  TYR184      0.0417
     94  CE2       44.9830  -24.1360   45.2630 C.ar  184  TYR184      0.0417
     95  CZ        44.4580  -22.9170   44.8600 C.ar  184  TYR184      0.1957
     96  OH        43.0990  -22.6990   44.9070 O.3   184  TYR184     -0.2866
     97  N         54.6390  -27.1470   44.2730 N.3   189  TYR189     -0.1241
     98  CA        54.5210  -28.1310   43.2170 C.3   189  TYR189      0.1605
     99  C         55.7530  -28.0980   42.3420 C.2   189  TYR189      0.2264
    100  O         56.0040  -27.1150   41.6460 O.2   189  TYR189     -0.2867
    101  CB        53.2670  -27.8710   42.3940 C.3   189  TYR189      0.0534
    102  CG        52.0080  -28.1210   43.1760 C.ar  189  TYR189     -0.0201
    103  CD1       51.5180  -27.1660   44.0650 C.ar  189  TYR189     -0.0009
    104  CD2       51.3330  -29.3380   43.0700 C.ar  189  TYR189     -0.0009
    105  CE1       50.3780  -27.4200   44.8390 C.ar  189  TYR189      0.0417
    106  CE2       50.1960  -29.6060   43.8370 C.ar  189  TYR189      0.0417
    107  CZ        49.7230  -28.6440   44.7200 C.ar  189  TYR189      0.1957
    108  OH        48.6110  -28.9020   45.4920 O.3   189  TYR189     -0.2866
    109  N         57.7970  -29.5880   39.2150 N.3   191  GLY191     -0.1225
    110  CA        57.6940  -30.3750   38.0090 C.3   191  GLY191      0.1811
    111  C         58.8760  -30.1670   37.1030 C.2   191  GLY191      0.2280
    112  O         59.5090  -29.1140   37.1110 O.2   191  GLY191     -0.2866
    113  N         51.4580  -33.2590   51.4450 N.3   221  LYS221     -0.1245
    114  CA        50.0780  -32.9610   51.0730 C.3   221  LYS221      0.1561
    115  C         49.5210  -34.3570   50.7860 C.2   221  LYS221      0.2260
    116  O         50.0830  -35.0830   49.9600 O.2   221  LYS221     -0.2867
    117  CB        50.0140  -32.0290   49.8560 C.3   221  LYS221      0.0271
    118  CG        48.6110  -31.4750   49.6000 C.3   221  LYS221      0.0035
    119  CD        48.4310  -31.0220   48.1600 C.3   221  LYS221      0.0206
    120  CE        46.9580  -30.9370   47.7820 C.3   221  LYS221      0.1093
    121  NZ        46.8090  -31.0640   46.3080 N.3   221  LYS221     -0.1314
    122  N         41.8970  -34.5260   40.0740 N.3   228  PHE228     -0.1241
    123  CA        41.9240  -33.6200   41.2140 C.3   228  PHE228      0.1605
    124  C         40.8800  -32.5210   41.0820 C.2   228  PHE228      0.2264
    125  O         40.9370  -31.7300   40.1480 O.2   228  PHE228     -0.2867
    126  CB        43.3140  -32.9850   41.3300 C.3   228  PHE228      0.0534
    127  CG        44.4480  -33.9650   41.1450 C.ar  228  PHE228     -0.0203
    128  CD1       45.4580  -33.7080   40.2200 C.ar  228  PHE228     -0.0042
    129  CD2       44.5100  -35.1390   41.8960 C.ar  228  PHE228     -0.0042
    130  CE1       46.5000  -34.6100   40.0270 C.ar  228  PHE228     -0.0003
    131  CE2       45.5470  -36.0510   41.7130 C.ar  228  PHE228     -0.0003
    132  CZ        46.5520  -35.7810   40.7790 C.ar  228  PHE228     -0.0000
    133  N         40.0510  -29.4090   41.4650 N.3   230  TRP230     -0.1241
    134  CA        40.6030  -28.0820   41.7120 C.3   230  TRP230      0.1605
    135  C         39.6700  -27.0040   41.1650 C.2   230  TRP230      0.2264
    136  O         39.2910  -27.0110   39.9910 O.2   230  TRP230     -0.2867
    137  CB        41.9850  -27.9490   41.0600 C.3   230  TRP230      0.0550
    138  CG        42.6030  -26.5970   41.2210 C.ar  230  TRP230      0.0003
    139  CD1       43.1280  -26.0640   42.3610 C.ar  230  TRP230      0.0946
    140  CD2       42.7100  -25.5810   40.2180 C.ar  230  TRP230      0.0152
    141  NE1       43.5460  -24.7750   42.1370 N.ar  230  TRP230     -0.2442
    142  CE2       43.2940  -24.4470   40.8340 C.ar  230  TRP230      0.0810
    143  CE3       42.3460  -25.5110   38.8670 C.ar  230  TRP230      0.0012
    144  CZ2       43.5460  -23.2570   40.1350 C.ar  230  TRP230      0.0191
    145  CZ3       42.5970  -24.3220   38.1670 C.ar  230  TRP230      0.0001
    146  CH2       43.1830  -23.2090   38.8100 C.ar  230  TRP230      0.0015
    147  N         41.1720  -32.2440   36.9310 N.3   235  LEU235     -0.1231
    148  CA        42.4390  -32.2370   36.2280 C.3   235  LEU235      0.1693
    149  C         42.9960  -33.6420   36.0350 C.2   235  LEU235      0.2592
    150  O         43.6800  -34.1770   36.9030 O.2   235  LEU235     -0.2718
    151  CB        43.4350  -31.3440   36.9690 C.3   235  LEU235      0.0284
    152  CG        43.0070  -29.8790   37.1470 C.3   235  LEU235      0.0019
    153  CD1       43.9850  -29.2110   38.0710 C.3   235  LEU235      0.0001
    154  CD2       42.9550  -29.1420   35.8080 C.3   235  LEU235      0.0001
    155  N         42.6790  -34.2320   34.8870 N.am  236  HIS236     -0.1962
    156  CA        43.1390  -35.5660   34.5380 C.3   236  HIS236      0.1772
    157  C         44.5680  -35.4700   34.0470 C.2   236  HIS236      0.2462
    158  O         45.0440  -34.3890   33.7210 O.2   236  HIS236     -0.2730
    159  CB        42.2430  -36.1590   33.4480 C.3   236  HIS236      0.0785
    160  CG        40.8210  -36.2970   33.8680 C.ar  236  HIS236      0.0821
    161  ND1       40.1530  -37.5100   33.8710 N.ar  236  HIS236     -0.2267
    162  CD2       39.9440  -35.3990   34.3740 C.ar  236  HIS236      0.1154
    163  CE1       38.9460  -37.3470   34.3610 C.ar  236  HIS236      0.1986
    164  NE2       38.7880  -36.0690   34.6780 N.ar  236  HIS236     -0.2212
    165  N         45.2710  -36.6030   33.9820 N.am  237  PRO237     -0.2727
    166  CA        46.6630  -36.6340   33.5280 C.3   237  PRO237      0.1402
    167  C         46.9390  -35.9140   32.2220 C.2   237  PRO237      0.2269
    168  O         47.9200  -35.1940   32.1140 O.2   237  PRO237     -0.2865
    169  CB        46.9600  -38.1270   33.4410 C.3   237  PRO237      0.0296
    170  CG        46.1490  -38.6720   34.5690 C.3   237  PRO237      0.0237
    171  CD        44.8310  -37.9490   34.3890 C.3   237  PRO237      0.0939
    172  N         45.7790  -29.5580   27.6220 N.3   319  TYR319     -0.1241
    173  CA        46.7140  -28.7390   28.3920 C.3   319  TYR319      0.1605
    174  C         47.5480  -28.0430   27.3200 C.2   319  TYR319      0.2264
    175  O         47.5780  -28.4900   26.1710 O.2   319  TYR319     -0.2867
    176  CB        47.5940  -29.6140   29.2980 C.3   319  TYR319      0.0534
    177  CG        46.8560  -30.1990   30.4950 C.ar  319  TYR319     -0.0201
    178  CD1       46.9790  -31.5570   30.8300 C.ar  319  TYR319     -0.0009
    179  CD2       46.0250  -29.4060   31.2840 C.ar  319  TYR319     -0.0009
    180  CE1       46.2810  -32.1120   31.9260 C.ar  319  TYR319      0.0417
    181  CE2       45.3280  -29.9460   32.3820 C.ar  319  TYR319      0.0417
    182  CZ        45.4590  -31.3010   32.6960 C.ar  319  TYR319      0.1957
    183  OH        44.7590  -31.8350   33.7630 O.3   319  TYR319     -0.2866
@<TRIPOS>BOND
     1   175   174    2
     2   174   173    1
     3   172   173    1
     4   173   176    1
     5   176   177    1
     6    21    22    1
     7    21    20    1
     8    22    23    1
     9    11    10    2
    10   177   178   ar
    11   177   179   ar
    12    20    17    1
    13   178   180   ar
    14    17    18    1
    15    17    16    1
    16    33    32    1
    17    31    32    1
    18    31    30    1
    19    28    27    2
    20    23    24    1
    21    25    18   am
    22    25    26    1
    23    29    30    1
    24    29    26    1
    25   179   181   ar
    26    10    16   am
    27    10     9    1
    28    42    41    1
    29    18    19    2
    30     8     9    1
    31    27    26    1
    32    27    34   am
    33   180   182   ar
    34   168   167    2
    35   167   166    1
    36     9    12    1
    37    41    40    1
    38   181   182   ar
    39    40    39    1
    40   182   183    1
    41    34    35    1
    42    35    36    1
    43    35    38    1
    44    36    37    2
    45    12    13    1
    46   169   166    1
    47   169   170    1
    48   159   160    1
    49   159   156    1
    50   166   165    1
    51   158   157    2
    52    39    38    1
    53   160   161   ar
    54   160   162   ar
    55   161   163   ar
    56   165   157   am
    57   165   171    1
    58   157   156    1
    59    13    14    1
    60    13    15    1
    61   163   164   ar
    62   162   164   ar
    63   171   170    1
    64   156   155    1
    65   155   149   am
    66    62    61    1
    67    75    74    1
    68   154   152    1
    69     3     4    2
    70     3     2    1
    71   149   148    1
    72   149   150    2
    73   148   147    1
    74   148   151    1
    75     2     5    1
    76     2     1    1
    77    63    61    1
    78    61    58    1
    79    74    72   ar
    80    74    73   ar
    81   151   152    1
    82   111   112    2
    83   111   110    1
    84   152   153    1
    85     5     6    1
    86    72    70   ar
    87    57    58    1
    88    58    59    1
    89    73    71   ar
    90     1     7    1
    91    49    47    1
    92   110   109    1
    93   145   146   ar
    94   145   143   ar
    95    43    44    1
    96     6     7    1
    97    70    69   ar
    98   146   144   ar
    99   143   140   ar
   100    47    44    1
   101    47    48    1
   102    59    60    2
   103    71    69   ar
   104    44    45    1
   105    69    68    1
   106   136   135    2
   107   130   128   ar
   108   130   132   ar
   109   122   123    1
   110   144   142   ar
   111   125   124    2
   112   140   142   ar
   113   140   138   ar
   114   128   127   ar
   115   132   131   ar
   116    45    46    2
   117   142   141   ar
   118   137   138    1
   119   137   134    1
   120   124   123    1
   121    68    65    1
   122   127   126    1
   123   127   129   ar
   124   135   134    1
   125   123   126    1
   126   138   139   ar
   127   133   134    1
   128   100    99    2
   129    64    65    1
   130   131   129   ar
   131    65    66    1
   132   141   139   ar
   133    99    98    1
   134   101   102    1
   135   101    98    1
   136   104   102   ar
   137   104   106   ar
   138   102   103   ar
   139    98    97    1
   140    66    76   am
   141    66    67    2
   142    76    77    1
   143   106   107   ar
   144   103   105   ar
   145    91    93   ar
   146    91    90   ar
   147    93    95   ar
   148    56    54    1
   149   107   105   ar
   150   107   108    1
   151    89    90    1
   152    89    86    1
   153    90    92   ar
   154    79    78    2
   155    95    96    1
   156    95    94   ar
   157    50    51    1
   158    77    78    1
   159    77    80    1
   160    78    85   am
   161    92    94   ar
   162    80    81    1
   163    85    86    1
   164    81    82    1
   165    86    87    1
   166    51    54    1
   167    51    52    1
   168    54    55    1
   169   121   120    1
   170    82    83    2
   171    82    84   am
   172    87    88    2
   173    52    53    2
   174   120   119    1
   175   119   118    1
   176   118   117    1
   177   117   114    1
   178   116   115    2
   179   115   114    1
   180   114   113    1
