@<TRIPOS>MOLECULE
tmp/3qomA00.pdb
 122 114 0 0 0
SMALL
GASTEIGER

@<TRIPOS>ATOM
      1  N         23.7950   42.8030   19.5700 N.3   133  PHE133     -0.1241
      2  CA        23.7370   44.0830   18.8640 C.3   133  PHE133      0.1605
      3  C         23.5710   43.8870   17.3520 C.2   133  PHE133      0.2264
      4  O         24.0470   44.6870   16.5370 O.2   133  PHE133     -0.2867
      5  CB        24.9950   44.9260   19.1060 C.3   133  PHE133      0.0534
      6  CG        25.3570   45.1760   20.5190 C.ar  133  PHE133     -0.0203
      7  CD1       24.4770   45.0250   21.5550 C.ar  133  PHE133     -0.0042
      8  CD2       26.6270   45.6060   20.7900 C.ar  133  PHE133     -0.0042
      9  CE1       24.9050   45.3300   22.8920 C.ar  133  PHE133     -0.0003
     10  CE2       27.0500   45.8950   22.0690 C.ar  133  PHE133     -0.0003
     11  CZ        26.1980   45.7660   23.1070 C.ar  133  PHE133     -0.0000
     12  N         25.5790   42.7720   27.1080 N.3   176  GLU176     -0.1245
     13  CA        25.5460   44.0860   27.7480 C.3   176  GLU176      0.1567
     14  C         24.1170   44.6260   27.7520 C.2   176  GLU176      0.2260
     15  O         23.8240   45.7220   27.2720 O.2   176  GLU176     -0.2867
     16  CB        26.5200   45.0790   27.0900 C.3   176  GLU176      0.0388
     17  CG        27.9710   44.6680   27.2260 C.3   176  GLU176      0.1160
     18  CD        28.9570   45.7200   26.7720 C.2   176  GLU176      0.3649
     19  OE1       28.6570   46.4020   25.7870 O.co2 176  GLU176     -0.2457
     20  OE2       30.0560   45.8590   27.3710 O.co2 176  GLU176     -0.2457
     21  N         23.4570   48.3810   28.8570 N.3   179  ASN179     -0.1240
     22  CA        23.9490   49.6240   28.2280 C.3   179  ASN179      0.1653
     23  C         22.8560   50.6880   28.1310 C.2   179  ASN179      0.2266
     24  O         23.1170   51.9090   28.2410 O.2   179  ASN179     -0.2867
     25  CB        24.5380   49.3490   26.8450 C.3   179  ASN179      0.1155
     26  CG        25.8840   48.6840   26.8960 C.2   179  ASN179      0.2627
     27  OD1       26.4470   48.4670   27.9710 O.2   179  ASN179     -0.2716
     28  ND2       26.3940   48.2860   25.7380 N.am  179  ASN179     -0.0877
     29  N         27.4390   44.8160   31.4430 N.3   236  ALA236     -0.1245
     30  CA        28.5010   45.7950   31.2780 C.3   236  ALA236      0.1562
     31  C         28.8020   46.3980   32.6530 C.2   236  ALA236      0.2260
     32  O         28.0030   47.1550   33.2200 O.2   236  ALA236     -0.2867
     33  CB        28.0920   46.8890   30.3030 C.3   236  ALA236      0.0290
     34  N         30.5240   48.7410   34.5970 N.3   237  CYS237     -0.1235
     35  CA        31.1850   50.0300   34.8970 C.3   237  CYS237      0.1677
     36  C         30.7700   50.4060   36.3280 C.2   237  CYS237      0.2270
     37  O         29.6590   50.8950   36.5490 O.2   237  CYS237     -0.2867
     38  CB        30.7040   51.1430   33.9430 C.3   237  CYS237      0.0956
     39  SG        30.8770   50.7830   32.1770 S.3   237  CYS237     -0.0801
     40  N         21.9530   51.0670   37.1600 N.3   258  ARG258     -0.1245
     41  CA        22.7220   50.4260   36.1030 C.3   258  ARG258      0.1563
     42  C         22.7070   48.9010   36.2040 C.2   258  ARG258      0.2260
     43  O         22.9100   48.2000   35.2050 O.2   258  ARG258     -0.2867
     44  CB        24.1660   50.9620   36.0720 C.3   258  ARG258      0.0307
     45  CG        24.9240   50.5130   34.8250 C.3   258  ARG258      0.0489
     46  CD        26.2520   51.2730   34.6020 C.3   258  ARG258      0.2205
     47  NE        26.3930   51.8340   33.2600 N.pl3 258  ARG258     -0.0865
     48  CZ        26.9710   51.2390   32.2260 C.cat 258  ARG258      0.5346
     49  NH1       27.0730   51.9040   31.0790 N.pl3 258  ARG258      0.1354
     50  NH2       27.4390   50.0090   32.3120 N.pl3 258  ARG258      0.1354
     51  N         31.6050   42.4090   31.0080 N.3   306  SER306     -0.1217
     52  CA        32.6960   43.1910   30.4490 C.3   306  SER306      0.1889
     53  C         33.2170   44.1730   31.4760 C.2   306  SER306      0.2288
     54  O         32.4460   44.6900   32.3070 O.2   306  SER306     -0.2866
     55  CB        32.2260   43.9830   29.2120 C.3   306  SER306      0.2089
     56  OG        31.1270   44.8090   29.5560 O.3   306  SER306     -0.2183
     57  N         35.8450   47.6220   31.2620 N.3   308  TYR308     -0.1241
     58  CA        36.7340   48.5310   30.5820 C.3   308  TYR308      0.1605
     59  C         37.1420   49.7190   31.4360 C.2   308  TYR308      0.2264
     60  O         38.2320   50.2680   31.2590 O.2   308  TYR308     -0.2867
     61  CB        36.0690   49.0940   29.3280 C.3   308  TYR308      0.0534
     62  CG        35.7530   48.0460   28.2700 C.ar  308  TYR308     -0.0201
     63  CD1       36.7310   47.5740   27.4160 C.ar  308  TYR308     -0.0009
     64  CD2       34.4780   47.5160   28.1420 C.ar  308  TYR308     -0.0009
     65  CE1       36.4530   46.5750   26.4740 C.ar  308  TYR308      0.0417
     66  CE2       34.1930   46.5130   27.2000 C.ar  308  TYR308      0.0417
     67  CZ        35.1960   46.0690   26.3570 C.ar  308  TYR308      0.1957
     68  OH        34.9630   45.1220   25.3780 O.3   308  TYR308     -0.2866
     69  N         33.2000   54.8020   36.5220 N.3   310  PHE310     -0.1241
     70  CA        32.5680   56.1160   36.4750 C.3   310  PHE310      0.1605
     71  C         32.5570   56.7040   37.8870 C.2   310  PHE310      0.2264
     72  O         32.6760   55.9750   38.8670 O.2   310  PHE310     -0.2867
     73  CB        31.1040   56.0070   36.0610 C.3   310  PHE310      0.0534
     74  CG        30.8370   55.4540   34.6770 C.ar  310  PHE310     -0.0203
     75  CD1       31.7590   55.5420   33.6730 C.ar  310  PHE310     -0.0042
     76  CD2       29.5780   54.9290   34.3780 C.ar  310  PHE310     -0.0042
     77  CE1       31.4600   55.0300   32.3720 C.ar  310  PHE310     -0.0003
     78  CE2       29.2670   54.4530   33.1030 C.ar  310  PHE310     -0.0003
     79  CZ        30.2010   54.4930   32.1170 C.ar  310  PHE310     -0.0000
     80  N         22.5460   58.6580   33.2430 N.3   322  GLU322     -0.1245
     81  CA        23.9310   58.4540   32.8200 C.3   322  GLU322      0.1567
     82  C         24.4220   59.4370   31.7540 C.2   322  GLU322      0.2260
     83  O         25.6060   59.7460   31.6950 O.2   322  GLU322     -0.2867
     84  CB        24.0810   57.0290   32.3220 C.3   322  GLU322      0.0388
     85  CG        25.4780   56.6530   31.9170 C.3   322  GLU322      0.1160
     86  CD        25.7260   55.1410   31.9670 C.2   322  GLU322      0.3649
     87  OE1       25.5740   54.5110   33.0710 O.co2 322  GLU322     -0.2457
     88  OE2       26.1210   54.5880   30.9010 O.co2 322  GLU322     -0.2457
     89  N         37.9330   56.7330   27.7440 N.3   339  TRP339     -0.1241
     90  CA        37.5370   55.6640   28.6570 C.3   339  TRP339      0.1605
     91  C         38.5330   55.5670   29.8150 C.2   339  TRP339      0.2264
     92  O         39.7120   55.2930   29.5980 O.2   339  TRP339     -0.2867
     93  CB        37.4140   54.3210   27.9240 C.3   339  TRP339      0.0550
     94  CG        36.2910   54.2710   26.9300 C.ar  339  TRP339      0.0003
     95  CD1       35.6020   55.3300   26.3790 C.ar  339  TRP339      0.0946
     96  CD2       35.7150   53.0950   26.3740 C.ar  339  TRP339      0.0152
     97  NE1       34.6290   54.8540   25.5150 N.ar  339  TRP339     -0.2442
     98  CE2       34.6860   53.4940   25.4810 C.ar  339  TRP339      0.0810
     99  CE3       35.9470   51.7370   26.5620 C.ar  339  TRP339      0.0012
    100  CZ2       33.8920   52.5590   24.7770 C.ar  339  TRP339      0.0191
    101  CZ3       35.2030   50.8340   25.8440 C.ar  339  TRP339      0.0001
    102  CH2       34.1650   51.2370   24.9940 C.ar  339  TRP339      0.0015
    103  N         34.8250   40.2480   28.3430 N.3   364  GLU364     -0.1245
    104  CA        35.4530   41.3490   27.6150 C.3   364  GLU364      0.1567
    105  C         36.3100   42.1420   28.5750 C.2   364  GLU364      0.2260
    106  O         35.8940   42.4320   29.7010 O.2   364  GLU364     -0.2867
    107  CB        34.4570   42.3280   26.9760 C.3   364  GLU364      0.0388
    108  CG        33.3680   41.6740   26.1780 C.3   364  GLU364      0.1160
    109  CD        32.4370   42.6180   25.4550 C.2   364  GLU364      0.3649
    110  OE1       32.6760   43.8560   25.4250 O.co2 364  GLU364     -0.2457
    111  OE2       31.4690   42.1060   24.8080 O.co2 364  GLU364     -0.2457
    112  N         32.4450   49.2960   17.9400 N.3   420  ALA420     -0.1231
    113  CA        30.9960   49.4920   18.0570 C.3   420  ALA420      0.1694
    114  C         30.5790   50.9450   18.1140 C.2   420  ALA420      0.2592
    115  O         29.7140   51.4040   17.3430 O.2   420  ALA420     -0.2718
    116  CB        30.4960   48.7810   19.2670 C.3   420  ALA420      0.0304
    117  N         31.2050   51.6750   19.0240 N.am  421  SER421     -0.1952
    118  CA        30.8600   53.0740   19.2370 C.3   421  SER421      0.1924
    119  C         31.0040   53.9280   17.9750 C.2   421  SER421      0.2314
    120  O         30.1710   54.7920   17.6930 O.2   421  SER421     -0.2863
    121  CB        31.7340   53.6640   20.3550 C.3   421  SER421      0.2116
    122  OG        33.1040   53.4180   20.0720 O.3   421  SER421     -0.2180
@<TRIPOS>BOND
     1     4     3    2
     2   115   114    2
     3     3     2    1
     4   120   119    2
     5   112   113    1
     6   119   118    1
     7   113   114    1
     8   113   116    1
     9   114   117   am
    10     2     5    1
    11     2     1    1
    12   117   118    1
    13     5     6    1
    14   118   121    1
    15   122   121    1
    16     6     8   ar
    17     6     7   ar
    18     8    10   ar
    19     7     9   ar
    20    10    11   ar
    21     9    11   ar
    22   100   102   ar
    23   100    98   ar
    24   111   109   ar
    25   102   101   ar
    26    68    67    1
    27   110   109   ar
    28   109   108    1
    29    98    97   ar
    30    98    96   ar
    31    97    95   ar
    32    28    26   am
    33    19    18   ar
    34   101    99   ar
    35   108   107    1
    36    67    65   ar
    37    67    66   ar
    38    96    99   ar
    39    96    94   ar
    40    95    94   ar
    41    65    63   ar
    42    18    17    1
    43    18    20   ar
    44    25    26    1
    45    25    22    1
    46    26    27    2
    47    94    93    1
    48   107   104    1
    49    16    17    1
    50    16    13    1
    51    12    13    1
    52    66    64   ar
    53    15    14    2
    54    63    62   ar
    55   104   103    1
    56   104   105    1
    57    89    90    1
    58    13    14    1
    59    93    90    1
    60    23    22    1
    61    23    24    2
    62    64    62   ar
    63    22    21    1
    64    62    61    1
    65   105   106    2
    66    90    91    1
    67    55    56    1
    68    55    52    1
    69    61    58    1
    70    92    91    2
    71    33    30    1
    72    52    51    1
    73    52    53    1
    74    58    57    1
    75    58    59    1
    76    88    86   ar
    77    49    48    1
    78    60    59    2
    79    30    29    1
    80    30    31    1
    81    53    54    2
    82    83    82    2
    83    82    81    1
    84    85    86    1
    85    85    84    1
    86    86    87   ar
    87    79    77   ar
    88    79    78   ar
    89    39    38    1
    90    48    50    1
    91    48    47    2
    92    84    81    1
    93    77    75   ar
    94    31    32    2
    95    81    80    1
    96    78    76   ar
    97    47    46    1
    98    75    74   ar
    99    38    35    1
   100    76    74   ar
   101    34    35    1
   102    46    45    1
   103    74    73    1
   104    45    44    1
   105    35    36    1
   106    43    42    2
   107    73    70    1
   108    44    41    1
   109    41    42    1
   110    41    40    1
   111    36    37    2
   112    70    69    1
   113    70    71    1
   114    71    72    2
