@<TRIPOS>MOLECULE
tmp/3qowA00.pdb
 218 214 0 0 0
SMALL
GASTEIGER

@<TRIPOS>ATOM
      1  N         17.9860   69.2050  -13.1460 N.3   129  PRO129     -0.2102
      2  CA        18.1090   68.2800  -12.0010 C.3   129  PRO129      0.1504
      3  C         19.3460   67.3910  -12.0390 C.2   129  PRO129      0.2576
      4  O         19.7030   66.7850  -11.0300 O.2   129  PRO129     -0.2718
      5  CB        16.8450   67.4200  -12.1190 C.3   129  PRO129      0.0282
      6  CG        15.8320   68.3890  -12.6630 C.3   129  PRO129      0.0208
      7  CD        16.6200   69.1800  -13.7090 C.3   129  PRO129      0.0893
      8  N         20.0020   67.3310  -13.1870 N.am  130  GLU130     -0.1966
      9  CA        21.1880   66.5080  -13.3470 C.3   130  GLU130      0.1733
     10  C         22.4370   67.0960  -12.6730 C.2   130  GLU130      0.2616
     11  O         23.4480   66.4100  -12.5390 O.2   130  GLU130     -0.2715
     12  CB        21.4580   66.2420  -14.8270 C.3   130  GLU130      0.0429
     13  CG        22.4680   65.1310  -15.0480 C.3   130  GLU130      0.1163
     14  CD        22.5740   64.7050  -16.4940 C.2   130  GLU130      0.3649
     15  OE1       22.3380   65.5470  -17.4030 O.co2 130  GLU130     -0.2457
     16  OE2       22.9060   63.5220  -16.7110 O.co2 130  GLU130     -0.2457
     17  N         22.3680   68.3590  -12.2560 N.am  131  VAL131     -0.1963
     18  CA        23.5270   69.0180  -11.6400 C.3   131  VAL131      0.1727
     19  C         24.1450   68.1410  -10.5290 C.2   131  VAL131      0.2616
     20  O         23.4510   67.7600   -9.5670 O.2   131  VAL131     -0.2715
     21  CB        23.1560   70.4130  -11.1000 C.3   131  VAL131      0.0290
     22  CG1       24.2420   70.9470  -10.1600 C.3   131  VAL131      0.0023
     23  CG2       22.9010   71.4110  -12.2750 C.3   131  VAL131      0.0023
     24  N         25.4330   67.8100  -10.7040 N.am  132  TYR132     -0.1960
     25  CA        26.1870   66.9830   -9.7560 C.3   132  TYR132      0.1771
     26  C         26.8830   67.8430   -8.7080 C.2   132  TYR132      0.2620
     27  O         27.4320   68.8840   -9.0180 O.2   132  TYR132     -0.2715
     28  CB        27.2350   66.1330  -10.4890 C.3   132  TYR132      0.0574
     29  CG        27.9340   65.1140   -9.6140 C.ar  132  TYR132     -0.0198
     30  CD1       27.3500   63.8670   -9.3620 C.ar  132  TYR132     -0.0009
     31  CD2       29.1770   65.3860   -9.0410 C.ar  132  TYR132     -0.0009
     32  CE1       27.9880   62.9210   -8.5640 C.ar  132  TYR132      0.0417
     33  CE2       29.8280   64.4360   -8.2380 C.ar  132  TYR132      0.0417
     34  CZ        29.2240   63.2120   -8.0060 C.ar  132  TYR132      0.1957
     35  OH        29.8410   62.2680   -7.2310 O.3   132  TYR132     -0.2866
     36  N         26.8390   67.3860   -7.4680 N.am  133  GLY133     -0.1940
     37  CA        27.6350   67.9330   -6.3610 C.3   133  GLY133      0.2014
     38  C         27.6650   66.8670   -5.2790 C.2   133  GLY133      0.2639
     39  O         26.7420   66.0510   -5.2110 O.2   133  GLY133     -0.2714
     40  N         28.7070   66.8580   -4.4360 N.am  134  GLU134     -0.1963
     41  CA        28.8310   65.8320   -3.4010 C.3   134  GLU134      0.1733
     42  C         28.7210   66.4700   -2.0350 C.2   134  GLU134      0.2617
     43  O         29.3200   67.5090   -1.7740 O.2   134  GLU134     -0.2715
     44  CB        30.1490   65.0230   -3.5160 C.3   134  GLU134      0.0429
     45  CG        30.5420   64.6930   -4.9640 C.3   134  GLU134      0.1163
     46  CD        31.8390   63.8870   -5.1190 C.2   134  GLU134      0.3649
     47  OE1       32.7250   63.9180   -4.2300 O.co2 134  GLU134     -0.2457
     48  OE2       31.9750   63.2330   -6.1610 O.co2 134  GLU134     -0.2457
     49  N         27.9030   65.8570   -1.1970 N.am  135  THR135     -0.1951
     50  CA        27.7980   66.1870    0.2000 C.3   135  THR135      0.1897
     51  C         29.1110   65.6980    0.8140 C.2   135  THR135      0.2313
     52  O         29.5460   64.6010    0.5070 O.2   135  THR135     -0.2863
     53  CB        26.6210   65.4330    0.8080 C.3   135  THR135      0.1794
     54  OG1       25.4150   65.8290    0.1330 O.3   135  THR135     -0.2208
     55  CG2       26.4880   65.7260    2.3100 C.3   135  THR135      0.0378
     56  N         19.2910   57.2700   -0.2540 N.3   157  ASP157     -0.1225
     57  CA        19.8040   58.4800   -0.8680 C.3   157  ASP157      0.1805
     58  C         19.1530   58.5600   -2.2380 C.2   157  ASP157      0.2598
     59  O         19.4660   57.7680   -3.1320 O.2   157  ASP157     -0.2718
     60  CB        21.3430   58.4390   -0.9930 C.3   157  ASP157      0.1424
     61  CG        21.9210   59.7340   -1.5390 C.2   157  ASP157      0.3668
     62  OD1       21.1400   60.6620   -1.8650 O.co2 157  ASP157     -0.2456
     63  OD2       23.1610   59.8340   -1.6530 O.co2 157  ASP157     -0.2456
     64  N         18.2250   59.5040   -2.3720 N.am  158  LEU158     -0.1966
     65  CA        17.5670   59.7960   -3.6440 C.3   158  LEU158      0.1728
     66  C         18.4570   60.6820   -4.4920 C.2   158  LEU158      0.2617
     67  O         18.6870   61.8390   -4.1460 O.2   158  LEU158     -0.2715
     68  CB        16.2300   60.5060   -3.3970 C.3   158  LEU158      0.0311
     69  CG        15.1940   59.7390   -2.5660 C.3   158  LEU158      0.0022
     70  CD1       14.0110   60.6460   -2.2460 C.3   158  LEU158      0.0001
     71  CD2       14.7760   58.4680   -3.3230 C.3   158  LEU158      0.0001
     72  N         18.9110   60.1480   -5.6220 N.am  159  GLY159     -0.1940
     73  CA        19.9540   60.7800   -6.4190 C.3   159  GLY159      0.2014
     74  C         21.3260   60.5960   -5.8000 C.2   159  GLY159      0.2640
     75  O         21.9800   61.5580   -5.4270 O.2   159  GLY159     -0.2714
     76  N         21.7710   59.3470   -5.7350 N.am  160  SER160     -0.1935
     77  CA        22.9160   58.9590   -4.9190 C.3   160  SER160      0.2055
     78  C         24.3170   59.2160   -5.5150 C.2   160  SER160      0.2643
     79  O         25.3150   59.0290   -4.8280 O.2   160  SER160     -0.2714
     80  CB        22.7650   57.4930   -4.5120 C.3   160  SER160      0.2130
     81  OG        22.3660   56.7000   -5.6250 O.3   160  SER160     -0.2179
     82  N         24.3730   59.6670   -6.7710 N.am  161  GLY161     -0.1954
     83  CA        25.6200   60.0000   -7.4440 C.3   161  GLY161      0.1869
     84  C         26.4870   58.7840   -7.6420 C.2   161  GLY161      0.2309
     85  O         26.0460   57.8030   -8.2160 O.2   161  GLY161     -0.2863
     86  N         28.6520   57.4790   -2.4830 N.3   164  GLN164     -0.1231
     87  CA        29.5040   57.5880   -1.2970 C.3   164  GLN164      0.1698
     88  C         28.7580   57.9590   -0.0130 C.2   164  GLN164      0.2592
     89  O         29.2590   57.6810    1.0730 O.2   164  GLN164     -0.2718
     90  CB        30.7250   58.4980   -1.5480 C.3   164  GLN164      0.0381
     91  CG        30.5720   60.0020   -1.2610 C.3   164  GLN164      0.0905
     92  CD        29.6130   60.7190   -2.1910 C.2   164  GLN164      0.2608
     93  OE1       29.2770   60.2360   -3.2930 O.2   164  GLN164     -0.2717
     94  NE2       29.1570   61.8850   -1.7500 N.am  164  GLN164     -0.0878
     95  N         27.5780   58.5660   -0.1390 N.am  165  VAL165     -0.1980
     96  CA        26.7200   58.7910    1.0230 C.3   165  VAL165      0.1595
     97  C         26.2240   57.4690    1.5960 C.2   165  VAL165      0.2287
     98  O         26.3490   57.2350    2.8090 O.2   165  VAL165     -0.2864
     99  CB        25.5110   59.7510    0.7520 C.3   165  VAL165      0.0276
    100  CG1       24.6800   59.9790    2.0440 C.3   165  VAL165      0.0022
    101  CG2       25.9930   61.1030    0.2120 C.3   165  VAL165      0.0022
    102  N         19.7650   55.4760   -5.3750 N.3   181  VAL181     -0.1231
    103  CA        19.2320   55.4230   -6.7060 C.3   181  VAL181      0.1692
    104  C         19.7000   56.6420   -7.4620 C.2   181  VAL181      0.2592
    105  O         19.5420   57.7780   -6.9970 O.2   181  VAL181     -0.2718
    106  CB        17.6960   55.2470   -6.7350 C.3   181  VAL181      0.0266
    107  CG1       16.9780   56.2900   -5.8600 C.3   181  VAL181      0.0020
    108  CG2       17.1990   55.2660   -8.1600 C.3   181  VAL181      0.0020
    109  N         20.3200   56.3780   -8.6090 N.am  182  GLU182     -0.1966
    110  CA        20.9040   57.4130   -9.4460 C.3   182  GLU182      0.1733
    111  C         20.4370   57.1880  -10.8740 C.2   182  GLU182      0.2616
    112  O         20.4940   56.0640  -11.3850 O.2   182  GLU182     -0.2715
    113  CB        22.4400   57.3880   -9.3750 C.3   182  GLU182      0.0429
    114  CG        23.1360   58.3430  -10.3710 C.3   182  GLU182      0.1163
    115  CD        22.6750   59.7960  -10.2180 C.2   182  GLU182      0.3649
    116  OE1       22.7920   60.3550   -9.1010 O.co2 182  GLU182     -0.2457
    117  OE2       22.2130   60.3840  -11.2260 O.co2 182  GLU182     -0.2457
    118  N         19.9930   58.2690  -11.5040 N.am  183  LYS183     -0.1963
    119  CA        19.5140   58.2500  -12.8840 C.3   183  LYS183      0.1728
    120  C         20.6090   58.4200  -13.9410 C.2   183  LYS183      0.2616
    121  O         20.5500   57.7810  -14.9880 O.2   183  LYS183     -0.2715
    122  CB        18.4910   59.3610  -13.0630 C.3   183  LYS183      0.0311
    123  CG        17.4360   59.0950  -14.1240 C.3   183  LYS183      0.0038
    124  CD        16.3240   60.1340  -14.0120 C.3   183  LYS183      0.0206
    125  CE        16.5290   61.2870  -14.9910 C.3   183  LYS183      0.1093
    126  NZ        15.9730   60.8990  -16.3290 N.3   183  LYS183     -0.1314
    127  N         21.5800   59.3020  -13.6960 N.am  184  ALA184     -0.1977
    128  CA        22.5240   59.6980  -14.7570 C.3   184  ALA184      0.1597
    129  C         23.5980   58.6440  -14.9670 C.2   184  ALA184      0.2287
    130  O         24.1280   58.0760  -14.0020 O.2   184  ALA184     -0.2864
    131  CB        23.1410   61.0440  -14.4760 C.3   184  ALA184      0.0319
    132  N         27.5480   58.9460  -13.3020 N.3   187  PRO187     -0.2116
    133  CA        27.7430   58.5610  -11.8790 C.3   187  PRO187      0.1372
    134  C         27.2680   57.1390  -11.5550 C.2   187  PRO187      0.2244
    135  O         27.9400   56.4210  -10.7880 O.2   187  PRO187     -0.2868
    136  CB        26.9540   59.6150  -11.0950 C.3   187  PRO187      0.0268
    137  CG        25.9890   60.2300  -12.1080 C.3   187  PRO187      0.0207
    138  CD        26.6290   60.0910  -13.4660 C.3   187  PRO187      0.0892
    139  N         18.4100   54.2130  -11.7030 N.3   217  GLY217     -0.1210
    140  CA        16.9500   54.4070  -11.8080 C.3   217  GLY217      0.1956
    141  C         16.4340   55.8340  -11.6490 C.2   217  GLY217      0.2612
    142  O         17.2050   56.7570  -11.3800 O.2   217  GLY217     -0.2717
    143  N         15.1180   56.0010  -11.8110 N.am  218  ASP218     -0.1959
    144  CA        14.4340   57.2900  -11.6520 C.3   218  ASP218      0.1840
    145  C         13.6030   57.2940  -10.3550 C.2   218  ASP218      0.2622
    146  O         12.6040   56.5780  -10.2430 O.2   218  ASP218     -0.2715
    147  CB        13.5230   57.5160  -12.8690 C.3   218  ASP218      0.1450
    148  CG        12.9610   58.9310  -12.9640 C.2   218  ASP218      0.3671
    149  OD1       12.8520   59.6520  -11.9530 O.co2 218  ASP218     -0.2456
    150  OD2       12.5980   59.3240  -14.0950 O.co2 218  ASP218     -0.2456
    151  N         13.9860   58.1000   -9.3690 N.am  219  PHE219     -0.1960
    152  CA        13.2430   58.0500   -8.0960 C.3   219  PHE219      0.1771
    153  C         11.8090   58.6150   -8.1930 C.2   219  PHE219      0.2619
    154  O         11.0580   58.6360   -7.2110 O.2   219  PHE219     -0.2715
    155  CB        14.0200   58.7150   -6.9560 C.3   219  PHE219      0.0574
    156  CG        14.3370   60.1640   -7.1900 C.ar  219  PHE219     -0.0200
    157  CD1       13.3280   61.0950   -7.4410 C.ar  219  PHE219     -0.0042
    158  CD2       15.6580   60.6140   -7.1150 C.ar  219  PHE219     -0.0042
    159  CE1       13.6320   62.4490   -7.6530 C.ar  219  PHE219     -0.0003
    160  CE2       15.9690   61.9580   -7.3200 C.ar  219  PHE219     -0.0003
    161  CZ        14.9480   62.8780   -7.5910 C.ar  219  PHE219     -0.0000
    162  N         11.4430   59.0930   -9.3670 N.am  220  LEU220     -0.1977
    163  CA        10.0770   59.5670   -9.5790 C.3   220  LEU220      0.1596
    164  C          9.1510   58.5000  -10.1850 C.2   220  LEU220      0.2287
    165  O          7.9270   58.7030  -10.2550 O.2   220  LEU220     -0.2864
    166  CB        10.0680   60.8440  -10.4200 C.3   220  LEU220      0.0297
    167  CG        10.7180   62.0840   -9.8010 C.3   220  LEU220      0.0022
    168  CD1       10.6090   63.2380  -10.7490 C.3   220  LEU220      0.0001
    169  CD2       10.0700   62.4510   -8.4760 C.3   220  LEU220      0.0001
    170  N         17.5880   60.6700    2.4710 N.3   235  PHE235     -0.1241
    171  CA        18.5570   61.7330    2.2420 C.3   235  PHE235      0.1605
    172  C         18.4050   62.1500    0.7950 C.2   235  PHE235      0.2264
    173  O         18.3750   61.3010   -0.0820 O.2   235  PHE235     -0.2867
    174  CB        20.0070   61.2660    2.4900 C.3   235  PHE235      0.0534
    175  CG        21.0350   62.3430    2.1980 C.ar  235  PHE235     -0.0203
    176  CD1       21.3100   63.3200    3.1430 C.ar  235  PHE235     -0.0042
    177  CD2       21.6740   62.4150    0.9560 C.ar  235  PHE235     -0.0042
    178  CE1       22.2030   64.3250    2.8780 C.ar  235  PHE235     -0.0003
    179  CE2       22.5770   63.4300    0.6780 C.ar  235  PHE235     -0.0003
    180  CZ        22.8500   64.3860    1.6400 C.ar  235  PHE235     -0.0000
    181  N         19.8140   65.3990   -1.9110 N.3   237  ASN237     -0.1240
    182  CA        20.5790   66.6320   -2.1140 C.3   237  ASN237      0.1653
    183  C         19.8740   67.3700   -3.2320 C.2   237  ASN237      0.2266
    184  O         20.2920   67.2870   -4.3770 O.2   237  ASN237     -0.2867
    185  CB        22.0490   66.3300   -2.4920 C.3   237  ASN237      0.1155
    186  CG        22.9290   67.6080   -2.5540 C.2   237  ASN237      0.2627
    187  OD1       22.4340   68.7500   -2.5370 O.2   237  ASN237     -0.2716
    188  ND2       24.2200   67.4080   -2.6570 N.am  237  ASN237     -0.0877
    189  N         19.5790   71.7170   -6.4530 N.3   240  ALA240     -0.1231
    190  CA        19.4170   72.1060   -7.8550 C.3   240  ALA240      0.1694
    191  C         18.2820   71.3520   -8.5760 C.2   240  ALA240      0.2592
    192  O         18.1900   71.4130   -9.8020 O.2   240  ALA240     -0.2718
    193  CB        20.7320   71.9240   -8.6010 C.3   240  ALA240      0.0304
    194  N         17.4250   70.6440   -7.8420 N.am  241  PHE241     -0.1976
    195  CA        16.3290   69.8970   -8.4980 C.3   241  PHE241      0.1639
    196  C         15.2940   70.8140   -9.1720 C.2   241  PHE241      0.2290
    197  O         14.8070   70.5070  -10.2540 O.2   241  PHE241     -0.2864
    198  CB        15.6200   68.9300   -7.5230 C.3   241  PHE241      0.0560
    199  CG        16.4070   67.6950   -7.1770 C.ar  241  PHE241     -0.0200
    200  CD1       17.6430   67.4210   -7.7770 C.ar  241  PHE241     -0.0042
    201  CD2       15.8810   66.7670   -6.2780 C.ar  241  PHE241     -0.0042
    202  CE1       18.3550   66.2510   -7.4590 C.ar  241  PHE241     -0.0003
    203  CE2       16.5860   65.6180   -5.9420 C.ar  241  PHE241     -0.0003
    204  CZ        17.8220   65.3510   -6.5320 C.ar  241  PHE241     -0.0000
    205  N         10.4880   69.1370   -9.6100 N.3   245  VAL245     -0.1245
    206  CA        10.9330   67.8930   -8.9900 C.3   245  VAL245      0.1561
    207  C         10.5920   67.9010   -7.4970 C.2   245  VAL245      0.2260
    208  O         10.0290   66.9370   -7.0020 O.2   245  VAL245     -0.2867
    209  CB        12.4350   67.5730   -9.3110 C.3   245  VAL245      0.0252
    210  CG1       12.9520   66.3390   -8.5520 C.3   245  VAL245      0.0019
    211  CG2       12.6240   67.3780  -10.8210 C.3   245  VAL245      0.0019
    212  N         25.2860   74.3350   -2.1360 N.3   301  PRO301     -0.2116
    213  CA        24.5670   73.8170   -0.9580 C.3   301  PRO301      0.1372
    214  C         25.4730   73.6460    0.2750 C.2   301  PRO301      0.2244
    215  O         26.4440   72.8830    0.2390 O.2   301  PRO301     -0.2868
    216  CB        24.0130   72.4600   -1.4360 C.3   301  PRO301      0.0268
    217  CG        24.7220   72.1520   -2.7170 C.3   301  PRO301      0.0207
    218  CD        25.0950   73.4700   -3.3160 C.3   301  PRO301      0.0892
@<TRIPOS>BOND
     1    15    14   ar
     2    16    14   ar
     3    14    13    1
     4   126   125    1
     5    13    12    1
     6   125   124    1
     7   121   120    2
     8   129   128    1
     9   129   130    2
    10    12     9    1
    11   128   131    1
    12   128   127    1
    13   123   124    1
    14   123   122    1
    15   150   148   ar
    16   120   127   am
    17   120   119    1
    18     7     1    1
    19     7     6    1
    20   138   132    1
    21   138   137    1
    22     9     8    1
    23     9    10    1
    24   132   133    1
    25     8     3   am
    26     1     2    1
    27   122   119    1
    28   148   147    1
    29   148   149   ar
    30   119   118    1
    31   147   144    1
    32    10    11    2
    33    10    17   am
    34     6     5    1
    35    23    21    1
    36    17    18    1
    37     5     2    1
    38   137   136    1
    39     3     2    1
    40     3     4    2
    41   133   134    1
    42   133   136    1
    43   143   144    1
    44   143   141   am
    45   140   139    1
    46   140   141    1
    47   144   145    1
    48   141   142    2
    49    18    21    1
    50    18    19    1
    51   134   135    2
    52   118   111   am
    53   112   111    2
    54   117   115   ar
    55    21    22    1
    56   111   110    1
    57   211   209    1
    58   168   167    1
    59    24    19   am
    60    24    25    1
    61    19    20    2
    62    28    25    1
    63    28    29    1
    64   166   167    1
    65   166   163    1
    66   114   115    1
    67   114   113    1
    68   145   146    2
    69   145   151   am
    70   165   164    2
    71   197   196    2
    72   115   116   ar
    73   164   163    1
    74   192   191    2
    75   167   169    1
    76    25    26    1
    77    29    30   ar
    78    29    31   ar
    79   205   206    1
    80   163   162    1
    81   110   113    1
    82   110   109    1
    83   151   152    1
    84   162   153   am
    85    30    32   ar
    86   209   206    1
    87   209   210    1
    88   196   195    1
    89    31    33   ar
    90    27    26    2
    91   206   207    1
    92    26    36   am
    93   109   104   am
    94   193   190    1
    95   191   190    1
    96   191   194   am
    97    32    34   ar
    98   195   194    1
    99   195   198    1
   100    33    34   ar
   101    85    84    2
   102   153   152    1
   103   153   154    2
   104   108   106    1
   105   152   155    1
   106    34    35    1
   107   190   189    1
   108   200   202   ar
   109   200   199   ar
   110   159   161   ar
   111   159   157   ar
   112    84    83    1
   113   161   160   ar
   114   198   199    1
   115   207   208    2
   116    36    37    1
   117   104   105    2
   118   104   103    1
   119   202   204   ar
   120    83    82    1
   121   157   156   ar
   122   160   158   ar
   123   156   158   ar
   124   156   155    1
   125   199   201   ar
   126    82    78   am
   127   106   103    1
   128   106   107    1
   129   103   102    1
   130   204   203   ar
   131    73    74    1
   132    73    72    1
   133    37    38    1
   134   201   203   ar
   135    48    46   ar
   136    74    76   am
   137    74    75    2
   138    76    77    1
   139    81    80    1
   140    72    66   am
   141    78    77    1
   142    78    79    2
   143    38    39    2
   144    38    40   am
   145    46    45    1
   146    46    47   ar
   147    45    44    1
   148    77    80    1
   149    66    67    2
   150    66    65    1
   151    40    41    1
   152   184   183    2
   153    65    68    1
   154    65    64    1
   155    44    41    1
   156    41    42    1
   157    68    69    1
   158    71    69    1
   159   218   217    1
   160   218   212    1
   161    93    92    2
   162   183   182    1
   163    59    58    2
   164   217   216    1
   165   188   186   am
   166    69    70    1
   167   186   187    2
   168   186   185    1
   169   185   182    1
   170    86    87    1
   171    64    58   am
   172    58    57    1
   173    92    94   am
   174    92    91    1
   175   212   213    1
   176   182   181    1
   177    42    43    2
   178    42    49   am
   179    62    61   ar
   180    63    61   ar
   181    90    87    1
   182    90    91    1
   183    61    60    1
   184   216   213    1
   185    87    88    1
   186    49    50    1
   187    60    57    1
   188   213   214    1
   189    57    56    1
   190    95    88   am
   191    95    96    1
   192   173   172    2
   193    88    89    2
   194    54    53    1
   195    50    53    1
   196    50    51    1
   197   101    99    1
   198   215   214    2
   199    52    51    2
   200   179   177   ar
   201   179   180   ar
   202    99    96    1
   203    99   100    1
   204   172   171    1
   205    53    55    1
   206   177   175   ar
   207    96    97    1
   208    97    98    2
   209   180   178   ar
   210   175   174    1
   211   175   176   ar
   212   171   170    1
   213   171   174    1
   214   178   176   ar
