@<TRIPOS>MOLECULE
tmp/3qp0A00.pdb
 99 92 0 0 0
SMALL
GASTEIGER

@<TRIPOS>ATOM
      1  N         -3.0200   19.1180   -5.8970 N.3     8  ARG8       -0.1245
      2  CA        -4.2150   18.4560   -6.4190 C.3     8  ARG8        0.1563
      3  C         -3.8680   17.0550   -6.9260 C.2     8  ARG8        0.2260
      4  O         -2.9000   16.8840   -7.6730 O.2     8  ARG8       -0.2867
      5  CB        -4.8370   19.2870   -7.5400 C.3     8  ARG8        0.0307
      6  CG        -5.4010   20.6060   -7.0580 C.3     8  ARG8        0.0489
      7  CD        -5.9420   21.4580   -8.1920 C.3     8  ARG8        0.2205
      8  NE        -6.4720   22.7080   -7.6570 N.pl3   8  ARG8       -0.0865
      9  CZ        -6.6340   23.8250   -8.3580 C.cat   8  ARG8        0.5346
     10  NH1       -6.3080   23.8590   -9.6470 N.pl3   8  ARG8        0.1354
     11  NH2       -7.1240   24.9110   -7.7670 N.pl3   8  ARG8        0.1354
     12  N         -9.0230   14.6420  -11.7190 N.3    23  LEU23      -0.1245
     13  CA        -8.8130   14.8590  -10.2960 C.3    23  LEU23       0.1561
     14  C         -9.5050   13.7600   -9.4820 C.2    23  LEU23       0.2260
     15  O        -10.6990   13.5130   -9.6530 O.2    23  LEU23      -0.2867
     16  CB        -9.3930   16.2280   -9.9340 C.3    23  LEU23       0.0270
     17  CG        -9.3220   16.7000   -8.4850 C.3    23  LEU23       0.0019
     18  CD1       -7.8790   16.9870   -8.1510 C.3    23  LEU23       0.0001
     19  CD2      -10.1860   17.9470   -8.3010 C.3    23  LEU23       0.0001
     20  N        -11.4030   12.7700   -6.6170 N.3    25  ASP25      -0.1239
     21  CA       -12.2350   13.6710   -5.8130 C.3    25  ASP25       0.1674
     22  C        -13.1710   12.8900   -4.8920 C.2    25  ASP25       0.2266
     23  O        -14.2470   12.4580   -5.3060 O.2    25  ASP25      -0.2867
     24  CB       -13.0400   14.5760   -6.7500 C.3    25  ASP25       0.1410
     25  CG       -13.7810   15.6730   -6.0180 C.2    25  ASP25       0.3668
     26  OD1      -13.9540   15.5520   -4.7930 O.co2  25  ASP25      -0.2456
     27  OD2      -14.2000   16.6570   -6.6700 O.co2  25  ASP25      -0.2456
     28  N        -14.8920   13.9590   -2.5640 N.3    27  GLY27      -0.1210
     29  CA       -16.0830   14.7430   -2.2820 C.3    27  GLY27       0.1956
     30  C        -17.1630   14.6460   -3.3460 C.2    27  GLY27       0.2612
     31  O        -18.2810   15.1290   -3.1510 O.2    27  GLY27      -0.2717
     32  N        -16.8420   14.0220   -4.4750 N.am   28  ALA28      -0.1965
     33  CA       -17.8010   13.8930   -5.5680 C.3    28  ALA28       0.1728
     34  C        -18.4240   12.5070   -5.5670 C.2    28  ALA28       0.2616
     35  O        -17.7040   11.5170   -5.5780 O.2    28  ALA28      -0.2715
     36  CB       -17.0960   14.1280   -6.9030 C.3    28  ALA28       0.0334
     37  N        -19.7510   12.4250   -5.5630 N.am   29  ASP29      -0.1957
     38  CA       -20.4150   11.1220   -5.6850 C.3    29  ASP29       0.1840
     39  C        -20.1490   10.4880   -7.0490 C.2    29  ASP29       0.2622
     40  O        -20.0090    9.2650   -7.1600 O.2    29  ASP29      -0.2715
     41  CB       -21.9350   11.2620   -5.5570 C.3    29  ASP29       0.1450
     42  CG       -22.3850   11.7830   -4.2010 C.2    29  ASP29       0.3671
     43  OD1      -21.6150   11.7320   -3.2200 O.co2  29  ASP29      -0.2456
     44  OD2      -23.5460   12.2390   -4.1270 O.co2  29  ASP29      -0.2456
     45  N        -20.1190   11.3330   -8.0800 N.am   30  ASP30      -0.1971
     46  CA       -20.1360   10.9110   -9.4720 C.3    30  ASP30       0.1709
     47  C        -18.8940   11.4050  -10.1960 C.2    30  ASP30       0.2293
     48  O        -18.1890   12.2970   -9.7240 O.2    30  ASP30      -0.2864
     49  CB       -21.3720   11.4840  -10.1900 C.3    30  ASP30       0.1436
     50  CG       -22.6700   11.2750   -9.4130 C.2    30  ASP30       0.3671
     51  OD1      -23.0700   10.1130   -9.2120 O.co2  30  ASP30      -0.2456
     52  OD2      -23.3080   12.2810   -9.0270 O.co2  30  ASP30      -0.2456
     53  N        -17.3720   13.1820  -13.5550 N.3    32  VAL32      -0.1245
     54  CA       -17.7860   14.1220  -14.5970 C.3    32  VAL32       0.1561
     55  C        -16.5930   14.5280  -15.4480 C.2    32  VAL32       0.2260
     56  O        -15.5430   14.9290  -14.9340 O.2    32  VAL32      -0.2867
     57  CB       -18.3820   15.4020  -13.9770 C.3    32  VAL32       0.0252
     58  CG1      -19.2070   16.1590  -15.0130 C.3    32  VAL32       0.0019
     59  CG2      -19.2190   15.0700  -12.7440 C.3    32  VAL32       0.0019
     60  N        -26.0030   18.5150  -11.9990 N.3    47  ILE47      -0.1231
     61  CA       -25.1560   18.3250  -10.8310 C.3    47  ILE47       0.1692
     62  C        -24.6820   19.6750  -10.3540 C.2    47  ILE47       0.2593
     63  O        -24.5630   20.6280  -11.1290 O.2    47  ILE47      -0.2718
     64  CB       -23.9470   17.4130  -11.1020 C.3    47  ILE47       0.0266
     65  CG1      -23.0770   17.9630  -12.2380 C.3    47  ILE47       0.0019
     66  CG2      -24.4230   15.9980  -11.4090 C.3    47  ILE47       0.0020
     67  CD1      -21.8030   17.1760  -12.4690 C.3    47  ILE47       0.0001
     68  N        -24.4130   19.7740   -9.0680 N.am   48  GLY48      -0.1942
     69  CA       -24.0430   21.0640   -8.5520 C.3    48  GLY48       0.2014
     70  C        -23.3150   21.0130   -7.2420 C.2    48  GLY48       0.2639
     71  O        -23.0740   19.9550   -6.6600 O.2    48  GLY48      -0.2714
     72  N        -22.9580   22.1960   -6.7840 N.am   49  GLY49      -0.1939
     73  CA       -22.2550   22.3380   -5.5310 C.3    49  GLY49       0.2014
     74  C        -22.1580   23.8080   -5.2150 C.2    49  GLY49       0.2639
     75  O        -22.9890   24.6110   -5.6560 O.2    49  GLY49      -0.2714
     76  N        -21.1140   24.1590   -4.4800 N.am   50  ILE50      -0.1963
     77  CA       -20.9790   25.4930   -3.9180 C.3    50  ILE50       0.1727
     78  C        -21.0570   26.6300   -4.9520 C.2    50  ILE50       0.2617
     79  O        -21.5880   27.6960   -4.6590 O.2    50  ILE50      -0.2715
     80  CB       -19.6960   25.5810   -3.0580 C.3    50  ILE50       0.0290
     81  CG1      -19.7230   26.8210   -2.1650 C.3    50  ILE50       0.0022
     82  CG2      -18.4460   25.4960   -3.9400 C.3    50  ILE50       0.0023
     83  CD1      -18.6410   26.8240   -1.1050 C.3    50  ILE50       0.0001
     84  N        -20.5650   26.3960   -6.1620 N.am   51  GLY51      -0.1940
     85  CA       -20.5240   27.4460   -7.1680 C.3    51  GLY51       0.2014
     86  C        -21.6900   27.4800   -8.1360 C.2    51  GLY51       0.2639
     87  O        -21.7190   28.3260   -9.0340 O.2    51  GLY51      -0.2714
     88  N        -22.6470   26.5690   -7.9680 N.am   52  GLY52      -0.1954
     89  CA       -23.7730   26.4780   -8.8810 C.3    52  GLY52       0.1869
     90  C        -23.9230   25.1040   -9.5020 C.2    52  GLY52       0.2309
     91  O        -23.2600   24.1520   -9.0850 O.2    52  GLY52      -0.2863
     92  N        -13.2820   15.1320  -13.2600 N.3    84  ILE84      -0.1245
     93  CA       -13.4270   14.6720  -11.8820 C.3    84  ILE84       0.1561
     94  C        -13.6870   13.1720  -11.8290 C.2    84  ILE84       0.2260
     95  O        -14.6560   12.7010  -12.4210 O.2    84  ILE84      -0.2867
     96  CB       -14.6480   15.3560  -11.2210 C.3    84  ILE84       0.0252
     97  CG1      -14.4540   16.8690  -11.1570 C.3    84  ILE84       0.0019
     98  CG2      -14.9150   14.7710   -9.8410 C.3    84  ILE84       0.0019
     99  CD1      -13.3200   17.2710  -10.2710 C.3    84  ILE84       0.0001
@<TRIPOS>BOND
     1    55    56    2
     2    55    54    1
     3    58    57    1
     4    54    57    1
     5    54    53    1
     6    57    59    1
     7    92    93    1
     8    67    65    1
     9    95    94    2
    10    65    64    1
    11    60    61    1
    12    93    94    1
    13    93    96    1
    14    12    13    1
    15    66    64    1
    16    96    97    1
    17    96    98    1
    18    97    99    1
    19    63    62    2
    20    64    61    1
    21    61    62    1
    22    62    68   am
    23    13    16    1
    24    13    14    1
    25    47    48    2
    26    47    46    1
    27    49    46    1
    28    49    50    1
    29    16    17    1
    30    15    14    2
    31    10     9    1
    32    90    91    2
    33    90    89    1
    34    46    45    1
    35    50    51   ar
    36    50    52   ar
    37    68    69    1
    38    87    86    2
    39    89    88    1
    40    69    70    1
    41    17    19    1
    42    17    18    1
    43     9    11    1
    44     9     8    2
    45     7     8    1
    46     7     6    1
    47    86    88   am
    48    86    85    1
    49    45    39   am
    50     4     3    2
    51     5     6    1
    52     5     2    1
    53    70    72   am
    54    70    71    2
    55    85    84    1
    56    40    39    2
    57    39    38    1
    58     3     2    1
    59    36    33    1
    60    72    73    1
    61    24    25    1
    62    24    21    1
    63    27    25   ar
    64    20    21    1
    65     2     1    1
    66    84    78   am
    67    25    26   ar
    68    21    22    1
    69    38    37    1
    70    38    41    1
    71    75    74    2
    72    35    34    2
    73    33    34    1
    74    33    32    1
    75    34    37   am
    76    41    42    1
    77    73    74    1
    78    23    22    2
    79    74    76   am
    80    78    79    2
    81    78    77    1
    82    76    77    1
    83    32    30   am
    84    42    44   ar
    85    42    43   ar
    86    82    80    1
    87    77    80    1
    88    30    31    2
    89    30    29    1
    90    80    81    1
    91    28    29    1
    92    81    83    1
