@<TRIPOS>MOLECULE
tmp/3qp2A00.pdb
 169 161 0 0 0
SMALL
GASTEIGER

@<TRIPOS>ATOM
      1  N         12.7310   12.5580  -16.8860 N.3    49  LEU49      -0.1245
      2  CA        12.5740   12.7370  -15.4430 C.3    49  LEU49       0.1561
      3  C         12.3460   14.2200  -15.1540 C.2    49  LEU49       0.2260
      4  O         12.9560   15.0880  -15.7810 O.2    49  LEU49      -0.2867
      5  CB        13.8080   12.2200  -14.6830 C.3    49  LEU49       0.0270
      6  CG        13.7850   12.3460  -13.1520 C.3    49  LEU49       0.0019
      7  CD1       14.4510   11.1360  -12.4630 C.3    49  LEU49       0.0001
      8  CD2       14.4230   13.6550  -12.7100 C.3    49  LEU49       0.0001
      9  N         12.2410   17.0250  -11.8740 N.3    51  ALA51      -0.1245
     10  CA        12.4990   17.1960  -10.4450 C.3    51  ALA51       0.1562
     11  C         12.2920   18.6360  -10.0060 C.2    51  ALA51       0.2260
     12  O         12.5180   19.5770  -10.7720 O.2    51  ALA51      -0.2867
     13  CB        13.8980   16.7200  -10.0870 C.3    51  ALA51       0.0290
     14  N         16.6000   18.5610   -3.1320 N.3    64  LEU64      -0.1245
     15  CA        15.5670   18.0190   -4.0110 C.3    64  LEU64       0.1561
     16  C         14.2830   17.8020   -3.2290 C.2    64  LEU64       0.2260
     17  O         14.2790   17.1060   -2.2140 O.2    64  LEU64      -0.2867
     18  CB        16.0300   16.7000   -4.6270 C.3    64  LEU64       0.0270
     19  CG        17.1010   16.7800   -5.7080 C.3    64  LEU64       0.0019
     20  CD1       17.7350   15.4200   -5.9010 C.3    64  LEU64       0.0001
     21  CD2       16.5000   17.2930   -7.0090 C.3    64  LEU64       0.0001
     22  N         10.8830   14.2170   -6.8960 N.3    67  VAL67      -0.1245
     23  CA        11.4050   13.6520   -8.1320 C.3    67  VAL67       0.1561
     24  C         10.2660   12.8870   -8.7700 C.2    67  VAL67       0.2260
     25  O          9.6750   12.0050   -8.1400 O.2    67  VAL67      -0.2867
     26  CB        12.5880   12.6980   -7.8910 C.3    67  VAL67       0.0252
     27  CG1       13.0530   12.0700   -9.2090 C.3    67  VAL67       0.0019
     28  CG2       13.7420   13.4190   -7.1960 C.3    67  VAL67       0.0019
     29  N         13.2070    7.0770  -16.5930 N.3    72  TYR72      -0.1241
     30  CA        14.5590    6.6470  -16.2420 C.3    72  TYR72       0.1605
     31  C         14.4670    5.2100  -15.7460 C.2    72  TYR72       0.2264
     32  O         13.5250    4.8560  -15.0370 O.2    72  TYR72      -0.2867
     33  CB        15.1460    7.5100  -15.1220 C.3    72  TYR72       0.0534
     34  CG        15.8340    8.7880  -15.5620 C.ar   72  TYR72      -0.0201
     35  CD1       16.8100    9.3720  -14.7620 C.ar   72  TYR72      -0.0009
     36  CD2       15.4910    9.4220  -16.7470 C.ar   72  TYR72      -0.0009
     37  CE1       17.4480   10.5340  -15.1350 C.ar   72  TYR72       0.0417
     38  CE2       16.1230   10.6010  -17.1350 C.ar   72  TYR72       0.0417
     39  CZ        17.0950   11.1500  -16.3200 C.ar   72  TYR72       0.1957
     40  OH        17.7420   12.3110  -16.6700 O.3    72  TYR72      -0.2866
     41  N         18.9570    2.4590  -12.4630 N.3    76  TRP76      -0.1227
     42  CA        19.8400    3.6260  -12.4770 C.3    76  TRP76       0.1737
     43  C         19.5050    4.5810  -11.3230 C.2    76  TRP76       0.2595
     44  O         20.3980    5.1000  -10.6480 O.2    76  TRP76      -0.2718
     45  CB        19.7610    4.3590  -13.8340 C.3    76  TRP76       0.0564
     46  CG        20.5060    5.6770  -13.8630 C.ar   76  TRP76       0.0003
     47  CD1       19.9690    6.9290  -14.0660 C.ar   76  TRP76       0.0946
     48  CD2       21.9120    5.8740  -13.6500 C.ar   76  TRP76       0.0152
     49  NE1       20.9590    7.8840  -13.9980 N.ar   76  TRP76      -0.2442
     50  CE2       22.1620    7.2610  -13.7580 C.ar   76  TRP76       0.0810
     51  CE3       22.9870    5.0080  -13.3950 C.ar   76  TRP76       0.0012
     52  CZ2       23.4440    7.8060  -13.6010 C.ar   76  TRP76       0.0191
     53  CZ3       24.2650    5.5470  -13.2380 C.ar   76  TRP76       0.0001
     54  CH2       24.4820    6.9350  -13.3390 C.ar   76  TRP76       0.0015
     55  N         18.2150    4.8080  -11.0960 N.am   77  LEU77      -0.1980
     56  CA        17.7820    5.6940  -10.0200 C.3    77  LEU77       0.1596
     57  C         18.1600    5.1290   -8.6560 C.2    77  LEU77       0.2287
     58  O         18.6280    5.8510   -7.7800 O.2    77  LEU77      -0.2864
     59  CB        16.2780    5.9090  -10.0860 C.3    77  LEU77       0.0297
     60  CG        15.8080    6.7480  -11.2650 C.3    77  LEU77       0.0022
     61  CD1       14.3190    6.9740  -11.1440 C.3    77  LEU77       0.0001
     62  CD2       16.5570    8.0680  -11.2700 C.3    77  LEU77       0.0001
     63  N         21.8790    5.7190   -8.3240 N.3    80  TYR80      -0.1227
     64  CA        22.0950    7.1470   -8.1340 C.3    80  TYR80       0.1736
     65  C         21.8780    7.5440   -6.6680 C.2    80  TYR80       0.2595
     66  O         22.6720    8.2780   -6.0760 O.2    80  TYR80      -0.2718
     67  CB        21.1160    7.8880   -9.0380 C.3    80  TYR80       0.0548
     68  CG        21.4000    9.3540   -9.2480 C.ar   80  TYR80      -0.0200
     69  CD1       21.9280    9.8160  -10.4530 C.ar   80  TYR80      -0.0009
     70  CD2       21.1320   10.2760   -8.2460 C.ar   80  TYR80      -0.0009
     71  CE1       22.1810   11.1600  -10.6470 C.ar   80  TYR80       0.0417
     72  CE2       21.3760   11.6140   -8.4270 C.ar   80  TYR80       0.0417
     73  CZ        21.8960   12.0520   -9.6280 C.ar   80  TYR80       0.1957
     74  OH        22.1440   13.3860   -9.7960 O.3    80  TYR80      -0.2866
     75  N         20.7890    7.0640   -6.0900 N.am   81  MET81      -0.1979
     76  CA        20.5150    7.3490   -4.6880 C.3    81  MET81       0.1605
     77  C         21.4890    6.5960   -3.7870 C.2    81  MET81       0.2287
     78  O         22.1080    7.1860   -2.9020 O.2    81  MET81      -0.2864
     79  CB        19.0550    7.0330   -4.3480 C.3    81  MET81       0.0413
     80  CG        18.0680    8.0090   -4.9920 C.3    81  MET81       0.0598
     81  SD        16.3360    7.4940   -4.9330 S.3    81  MET81      -0.1393
     82  CE        16.0260    7.5130   -3.1730 C.3    81  MET81       0.0692
     83  N         27.0190   14.7260   -9.7060 N.3    89  ASP89      -0.1239
     84  CA        26.3890   14.8480  -11.0260 C.3    89  ASP89       0.1674
     85  C         26.4440   16.3030  -11.4710 C.2    89  ASP89       0.2266
     86  O         25.8020   17.1510  -10.8620 O.2    89  ASP89      -0.2867
     87  CB        24.9380   14.3660  -10.9400 C.3    89  ASP89       0.1410
     88  CG        24.1740   14.5250  -12.2480 C.2    89  ASP89       0.3668
     89  OD1       24.7400   15.0340  -13.2380 O.co2  89  ASP89      -0.2456
     90  OD2       23.0020   14.0980  -12.2830 O.co2  89  ASP89      -0.2456
     91  N         25.0340   17.7700  -13.7290 N.3    91  ILE91      -0.1231
     92  CA        23.7050   18.2800  -14.0800 C.3    91  ILE91       0.1692
     93  C         22.9910   18.9330  -12.8810 C.2    91  ILE91       0.2591
     94  O         22.2380   19.9020  -13.0480 O.2    91  ILE91      -0.2718
     95  CB        22.8160   17.1870  -14.7210 C.3    91  ILE91       0.0266
     96  CG1       23.5230   16.5640  -15.9320 C.3    91  ILE91       0.0019
     97  CG2       21.4430   17.7630  -15.0970 C.3    91  ILE91       0.0020
     98  CD1       24.1110   17.5620  -16.8890 C.3    91  ILE91       0.0001
     99  N         23.2310   18.4310  -11.6670 N.am   92  LEU92      -0.1980
    100  CA        22.6060   19.0450  -10.4950 C.3    92  LEU92       0.1596
    101  C         23.2900   20.3430  -10.0660 C.2    92  LEU92       0.2287
    102  O         22.8360   21.0010   -9.1310 O.2    92  LEU92      -0.2864
    103  CB        22.4870   18.0680   -9.3160 C.3    92  LEU92       0.0297
    104  CG        21.4970   16.9140   -9.4890 C.3    92  LEU92       0.0022
    105  CD1       21.2790   16.2190   -8.1540 C.3    92  LEU92       0.0001
    106  CD2       20.1620   17.4010  -10.0580 C.3    92  LEU92       0.0001
    107  N         24.3060   17.5670  -22.1130 N.3   103  TRP103     -0.1241
    108  CA        25.1170   16.8270  -21.1430 C.3   103  TRP103      0.1605
    109  C         26.5380   16.5720  -21.6400 C.2   103  TRP103      0.2264
    110  O         27.4950   16.7030  -20.8810 O.2   103  TRP103     -0.2867
    111  CB        24.4830   15.4900  -20.7730 C.3   103  TRP103      0.0550
    112  CG        23.1400   15.5650  -20.1090 C.ar  103  TRP103      0.0003
    113  CD1       22.4550   16.6850  -19.7400 C.ar  103  TRP103      0.0946
    114  CD2       22.3250   14.4490  -19.7420 C.ar  103  TRP103      0.0152
    115  NE1       21.2580   16.3290  -19.1670 N.ar  103  TRP103     -0.2442
    116  CE2       21.1540   14.9590  -19.1620 C.ar  103  TRP103      0.0810
    117  CE3       22.4720   13.0560  -19.8670 C.ar  103  TRP103      0.0012
    118  CZ2       20.1300   14.1300  -18.6840 C.ar  103  TRP103      0.0191
    119  CZ3       21.4640   12.2340  -19.3930 C.ar  103  TRP103      0.0001
    120  CH2       20.2990   12.7740  -18.8180 C.ar  103  TRP103      0.0015
    121  N         29.6960   17.3970  -19.5680 N.3   107  PHE107     -0.1241
    122  CA        30.5330   16.2980  -19.0790 C.3   107  PHE107      0.1605
    123  C         31.9850   16.4290  -19.5380 C.2   107  PHE107      0.2264
    124  O         32.9150   16.1190  -18.7930 O.2   107  PHE107     -0.2867
    125  CB        29.9700   14.9380  -19.5070 C.3   107  PHE107      0.0534
    126  CG        28.6800   14.5730  -18.8300 C.ar  107  PHE107     -0.0203
    127  CD1       28.2240   15.2990  -17.7360 C.ar  107  PHE107     -0.0042
    128  CD2       27.9320   13.4890  -19.2700 C.ar  107  PHE107     -0.0042
    129  CE1       27.0410   14.9620  -17.1080 C.ar  107  PHE107     -0.0003
    130  CE2       26.7450   13.1430  -18.6360 C.ar  107  PHE107     -0.0003
    131  CZ        26.2990   13.8830  -17.5560 C.ar  107  PHE107     -0.0000
    132  N         31.4960    9.4190  -11.9090 N.3   118  PHE118     -0.1241
    133  CA        30.0550    9.4660  -12.1650 C.3   118  PHE118      0.1605
    134  C         29.7580    9.4380  -13.6620 C.2   118  PHE118      0.2264
    135  O         28.8890    8.6980  -14.1280 O.2   118  PHE118     -0.2867
    136  CB        29.4160   10.7190  -11.5550 C.3   118  PHE118      0.0534
    137  CG        28.0280   10.9840  -12.0680 C.ar  118  PHE118     -0.0203
    138  CD1       26.9450   10.2910  -11.5520 C.ar  118  PHE118     -0.0042
    139  CD2       27.8150   11.8890  -13.0940 C.ar  118  PHE118     -0.0042
    140  CE1       25.6600   10.5190  -12.0410 C.ar  118  PHE118     -0.0003
    141  CE2       26.5320   12.1190  -13.5980 C.ar  118  PHE118     -0.0003
    142  CZ        25.4580   11.4290  -13.0780 C.ar  118  PHE118     -0.0000
    143  N         27.5090    6.8270  -15.5650 N.3   122  ALA122     -0.1245
    144  CA        26.3320    7.2670  -16.3180 C.3   122  ALA122      0.1562
    145  C         26.4020    6.8090  -17.7630 C.2   122  ALA122      0.2260
    146  O         25.4130    6.3220  -18.3160 O.2   122  ALA122     -0.2867
    147  CB        26.1670    8.7940  -16.2510 C.3   122  ALA122      0.0290
    148  N         23.2900    6.8510  -20.0620 N.3   127  MET127     -0.1245
    149  CA        22.9670    8.2030  -19.6170 C.3   127  MET127      0.1570
    150  C         24.0840    9.2010  -19.9180 C.2   127  MET127      0.2261
    151  O         24.2140   10.2150  -19.2290 O.2   127  MET127     -0.2867
    152  CB        22.7130    8.2060  -18.1000 C.3   127  MET127      0.0387
    153  CG        21.5570    7.3240  -17.6450 C.3   127  MET127      0.0595
    154  SD        20.0740    7.7460  -18.5810 S.3   127  MET127     -0.1393
    155  CE        18.7940    6.9700  -17.6100 C.3   127  MET127      0.0692
    156  N         13.8200   21.0260  -12.9570 N.3   145  ILE145     -0.1245
    157  CA        14.5970   20.5650  -14.0880 C.3   145  ILE145      0.1561
    158  C         13.8030   19.4850  -14.8220 C.2   145  ILE145      0.2260
    159  O         13.1160   18.6580  -14.2010 O.2   145  ILE145     -0.2867
    160  CB        15.9780   19.9990  -13.6690 C.3   145  ILE145      0.0252
    161  CG1       15.8420   18.9390  -12.5690 C.3   145  ILE145      0.0019
    162  CG2       16.9130   21.1150  -13.2210 C.3   145  ILE145      0.0019
    163  CD1       17.1270   18.1100  -12.4140 C.3   145  ILE145      0.0001
    164  N         14.6990   16.5750  -17.5160 N.3   147  SER147     -0.1217
    165  CA        15.8350   15.8980  -18.1350 C.3   147  SER147      0.1889
    166  C         15.3480   14.8640  -19.1120 C.2   147  SER147      0.2288
    167  O         14.4280   14.1010  -18.8080 O.2   147  SER147     -0.2866
    168  CB        16.6890   15.1870  -17.0840 C.3   147  SER147      0.2089
    169  OG        17.5360   16.0970  -16.4010 O.3   147  SER147     -0.2183
@<TRIPOS>BOND
     1   107   108    1
     2   109   108    1
     3   109   110    2
     4   108   111    1
     5   111   112    1
     6   112   114   ar
     7   112   113   ar
     8   148   149    1
     9   150   149    1
    10   150   151    2
    11   117   114   ar
    12   117   119   ar
    13   114   116   ar
    14   113   115   ar
    15   149   152    1
    16   121   122    1
    17   123   122    1
    18   123   124    2
    19   125   122    1
    20   125   126    1
    21   119   120   ar
    22   128   126   ar
    23   128   130   ar
    24   115   116   ar
    25   116   118   ar
    26   166   167    2
    27   166   165    1
    28   126   127   ar
    29   120   118   ar
    30   130   131   ar
    31   154   153    1
    32   154   155    1
    33   146   145    2
    34   165   164    1
    35   165   168    1
    36   152   153    1
    37   145   144    1
    38   127   129   ar
    39   131   129   ar
    40    38    36   ar
    41    38    39   ar
    42   168   169    1
    43    98    96    1
    44     1     2    1
    45    36    34   ar
    46    40    39    1
    47    29    30    1
    48    39    37   ar
    49   144   147    1
    50   144   143    1
    51    30    31    1
    52    30    33    1
    53    96    95    1
    54     4     3    2
    55    31    32    2
    56    34    33    1
    57    34    35   ar
    58     2     3    1
    59     2     5    1
    60    37    35   ar
    61    97    95    1
    62   158   159    2
    63   158   157    1
    64    95    92    1
    65     5     6    1
    66   135   134    2
    67   157   160    1
    68   157   156    1
    69    92    91    1
    70    92    93    1
    71    47    49   ar
    72    47    46   ar
    73    49    50   ar
    74    46    45    1
    75    46    48   ar
    76    45    42    1
    77    50    48   ar
    78    50    52   ar
    79   160   162    1
    80   160   161    1
    81   134   133    1
    82    48    51   ar
    83    52    54   ar
    84   141   139   ar
    85   141   142   ar
    86    51    53   ar
    87    54    53   ar
    88    89    88   ar
    89     6     8    1
    90     6     7    1
    91   139   137   ar
    92   142   140   ar
    93    94    93    2
    94    93    99   am
    95   161   163    1
    96    42    41    1
    97    42    43    1
    98    90    88   ar
    99    88    87    1
   100   133   132    1
   101   133   136    1
   102   137   136    1
   103   137   138   ar
   104   140   138   ar
   105     9    10    1
   106    99   100    1
   107    85    84    1
   108    85    86    2
   109    43    55   am
   110    43    44    2
   111    62    60    1
   112    60    61    1
   113    60    59    1
   114    55    56    1
   115    84    87    1
   116    84    83    1
   117    12    11    2
   118    71    69   ar
   119    71    73   ar
   120   100   101    1
   121   100   103    1
   122    69    68   ar
   123    10    13    1
   124    10    11    1
   125    59    56    1
   126   101   102    2
   127   106   104    1
   128    56    57    1
   129    74    73    1
   130    73    72   ar
   131   104   103    1
   132   104   105    1
   133    68    67    1
   134    68    70   ar
   135    27    26    1
   136    67    64    1
   137    24    25    2
   138    24    23    1
   139    57    58    2
   140    72    70   ar
   141    63    64    1
   142    64    65    1
   143    23    26    1
   144    23    22    1
   145    26    28    1
   146    21    19    1
   147    65    75   am
   148    65    66    2
   149    75    76    1
   150    20    19    1
   151    19    18    1
   152    80    81    1
   153    80    79    1
   154    81    82    1
   155    76    79    1
   156    76    77    1
   157    18    15    1
   158    15    16    1
   159    15    14    1
   160    77    78    2
   161    16    17    2
