@<TRIPOS>MOLECULE
tmp/3qp5A00.pdb
 177 168 0 0 0
SMALL
GASTEIGER

@<TRIPOS>ATOM
      1  N         37.0860    6.7680   -3.9900 N.3    49  LEU49      -0.1245
      2  CA        36.7300    7.7370   -2.9770 C.3    49  LEU49       0.1561
      3  C         36.4130    7.0910   -1.6500 C.2    49  LEU49       0.2260
      4  O         35.6320    6.1670   -1.5910 O.2    49  LEU49      -0.2867
      5  CB        35.5330    8.5740   -3.4290 C.3    49  LEU49       0.0270
      6  CG        34.9880    9.6000   -2.4340 C.3    49  LEU49       0.0019
      7  CD1       36.0330   10.6510   -2.1310 C.3    49  LEU49       0.0001
      8  CD2       33.6910   10.2170   -2.9390 C.3    49  LEU49       0.0001
      9  N         28.4910   15.2160    5.3960 N.3    64  LEU64      -0.1245
     10  CA        29.7530   14.5080    5.3370 C.3    64  LEU64       0.1561
     11  C         30.7040   14.9820    6.4300 C.2    64  LEU64       0.2260
     12  O         30.7200   16.1490    6.7750 O.2    64  LEU64      -0.2867
     13  CB        30.3680   14.6030    3.9370 C.3    64  LEU64       0.0270
     14  CG        29.7080   13.6560    2.9100 C.3    64  LEU64       0.0019
     15  CD1       30.4470   13.5050    1.5640 C.3    64  LEU64       0.0001
     16  CD2       29.5280   12.2720    3.5410 C.3    64  LEU64       0.0001
     17  N         36.6740   13.5300    4.1450 N.3    67  VAL67      -0.1245
     18  CA        36.9060   12.7510    2.9580 C.3    67  VAL67       0.1561
     19  C         38.3790   12.4200    2.9370 C.2    67  VAL67       0.2260
     20  O         39.2220   13.3240    2.9630 O.2    67  VAL67      -0.2867
     21  CB        36.4610   13.4790    1.6730 C.3    67  VAL67       0.0252
     22  CG1       36.8340   12.6790    0.4400 C.3    67  VAL67       0.0019
     23  CG2       34.9400   13.7550    1.7030 C.3    67  VAL67       0.0019
     24  N         39.7980   11.0740    0.0140 N.3    69  ASN69      -0.1240
     25  CA        39.5930   10.7410   -1.3880 C.3    69  ASN69       0.1653
     26  C         40.8070   10.1200   -2.0040 C.2    69  ASN69       0.2266
     27  O         41.8630   10.0770   -1.3910 O.2    69  ASN69      -0.2867
     28  CB        39.3080   11.9730   -2.2050 C.3    69  ASN69       0.1155
     29  CG        38.9550   11.6280   -3.6120 C.2    69  ASN69       0.2627
     30  OD1       39.2580   10.5500   -4.0900 O.2    69  ASN69      -0.2716
     31  ND2       38.3260   12.5570   -4.3000 N.am   69  ASN69      -0.0877
     32  N         39.3610   10.7120   -7.9580 N.3    72  TYR72      -0.1241
     33  CA        38.3400   11.3940   -8.7640 C.3    72  TYR72       0.1605
     34  C         38.8950   12.5830   -9.5620 C.2    72  TYR72       0.2264
     35  O         39.7330   13.3340   -9.0620 O.2    72  TYR72      -0.2867
     36  CB        37.1790   11.8530   -7.8780 C.3    72  TYR72       0.0534
     37  CG        36.4330   10.7200   -7.2110 C.ar   72  TYR72      -0.0201
     38  CD1       35.3420   10.1220   -7.8280 C.ar   72  TYR72      -0.0009
     39  CD2       36.8200   10.2480   -5.9640 C.ar   72  TYR72      -0.0009
     40  CE1       34.6570    9.0870   -7.2220 C.ar   72  TYR72       0.0417
     41  CE2       36.1410    9.2120   -5.3500 C.ar   72  TYR72       0.0417
     42  CZ        35.0610    8.6360   -5.9830 C.ar   72  TYR72       0.1957
     43  OH        34.3820    7.6040   -5.3760 O.3    72  TYR72      -0.2866
     44  N         35.4350   17.2180  -12.1930 N.3    76  TRP76      -0.1227
     45  CA        34.1830   16.7290  -11.6610 C.3    76  TRP76       0.1737
     46  C         34.0280   17.1250  -10.1900 C.2    76  TRP76       0.2595
     47  O         32.9130   17.2910   -9.6850 O.2    76  TRP76      -0.2718
     48  CB        34.1090   15.2210  -11.8260 C.3    76  TRP76       0.0564
     49  CG        32.8920   14.6370  -11.2040 C.ar   76  TRP76       0.0003
     50  CD1       32.8420   13.8740  -10.0760 C.ar   76  TRP76       0.0946
     51  CD2       31.5300   14.7770  -11.6560 C.ar   76  TRP76       0.0152
     52  NE1       31.5370   13.5210   -9.7960 N.ar   76  TRP76      -0.2442
     53  CE2       30.7150   14.0580  -10.7490 C.ar   76  TRP76       0.0810
     54  CE3       30.9240   15.4310  -12.7380 C.ar   76  TRP76       0.0012
     55  CZ2       29.3270   13.9710  -10.8990 C.ar   76  TRP76       0.0191
     56  CZ3       29.5480   15.3410  -12.8850 C.ar   76  TRP76       0.0001
     57  CH2       28.7670   14.6180  -11.9690 C.ar   76  TRP76       0.0015
     58  N         35.1480   17.2920   -9.5020 N.am   77  LEU77      -0.1980
     59  CA        35.1060   17.7980   -8.1390 C.3    77  LEU77       0.1596
     60  C         34.6580   19.2510   -8.1350 C.2    77  LEU77       0.2287
     61  O         33.6300   19.5860   -7.5350 O.2    77  LEU77      -0.2864
     62  CB        36.4690   17.6450   -7.4550 C.3    77  LEU77       0.0297
     63  CG        36.8320   16.1770   -7.1860 C.3    77  LEU77       0.0022
     64  CD1       38.2100   16.0110   -6.5520 C.3    77  LEU77       0.0001
     65  CD2       35.7590   15.5290   -6.3240 C.3    77  LEU77       0.0001
     66  N         31.1440   19.4170   -8.9460 N.3    80  TYR80      -0.1227
     67  CA        30.2820   18.7710   -7.9550 C.3    80  TYR80       0.1736
     68  C         29.9770   19.7410   -6.8210 C.2    80  TYR80       0.2595
     69  O         28.8480   19.8250   -6.3360 O.2    80  TYR80      -0.2718
     70  CB        30.9640   17.5060   -7.4020 C.3    80  TYR80       0.0548
     71  CG        30.0280   16.5230   -6.6820 C.ar   80  TYR80      -0.0200
     72  CD1       29.7030   15.2880   -7.2500 C.ar   80  TYR80      -0.0009
     73  CD2       29.4720   16.8350   -5.4390 C.ar   80  TYR80      -0.0009
     74  CE1       28.8510   14.4050   -6.6080 C.ar   80  TYR80       0.0417
     75  CE2       28.6230   15.9490   -4.7850 C.ar   80  TYR80       0.0417
     76  CZ        28.3140   14.7330   -5.3720 C.ar   80  TYR80       0.1957
     77  OH        27.4690   13.8450   -4.7200 O.3    80  TYR80      -0.2866
     78  N         31.0130   20.4600   -6.4030 N.am   81  MET81      -0.1979
     79  CA        30.8830   21.5060   -5.4000 C.3    81  MET81       0.1605
     80  C         30.0550   22.6840   -5.9090 C.2    81  MET81       0.2287
     81  O         28.9930   22.9770   -5.3590 O.2    81  MET81      -0.2864
     82  CB        32.2580   21.9790   -4.9430 C.3    81  MET81       0.0413
     83  CG        32.9700   20.9580   -4.0730 C.3    81  MET81       0.0598
     84  SD        34.6200   21.4280   -3.4860 S.3    81  MET81      -0.1393
     85  CE        35.6570   20.9810   -4.8640 C.3    81  MET81       0.0692
     86  N         25.6170   17.5860   -4.4680 N.3    86  ALA86      -0.1245
     87  CA        25.5740   16.8170   -3.2260 C.3    86  ALA86       0.1562
     88  C         24.1570   16.4120   -2.8580 C.2    86  ALA86       0.2260
     89  O         23.9320   15.3290   -2.3390 O.2    86  ALA86      -0.2867
     90  CB        26.1980   17.6100   -2.0930 C.3    86  ALA86       0.0290
     91  N         22.6410   14.0530   -5.8660 N.3    89  ASP89      -0.1239
     92  CA        23.2900   12.7730   -6.0820 C.3    89  ASP89       0.1674
     93  C         22.5060   11.6440   -5.4290 C.2    89  ASP89       0.2266
     94  O         22.3560   11.6080   -4.2070 O.2    89  ASP89      -0.2867
     95  CB        24.7140   12.8500   -5.5270 C.3    89  ASP89       0.1410
     96  CG        25.5440   11.6200   -5.8750 C.2    89  ASP89       0.3668
     97  OD1       24.9520   10.5810   -6.2330 O.co2  89  ASP89      -0.2456
     98  OD2       26.7880   11.6890   -5.7920 O.co2  89  ASP89      -0.2456
     99  N         23.2340    8.7340   -4.9770 N.3    91  ILE91      -0.1231
    100  CA        24.0790    7.7560   -4.3080 C.3    91  ILE91       0.1692
    101  C         24.1850    8.0720   -2.8280 C.2    91  ILE91       0.2591
    102  O         24.2730    7.1750   -2.0270 O.2    91  ILE91      -0.2718
    103  CB        25.4780    7.6790   -4.9220 C.3    91  ILE91       0.0266
    104  CG1       25.3920    7.1860   -6.3600 C.3    91  ILE91       0.0019
    105  CG2       26.3450    6.7380   -4.1310 C.3    91  ILE91       0.0020
    106  CD1       24.9040    5.7790   -6.4680 C.3    91  ILE91       0.0001
    107  N         24.1600    9.3420   -2.4530 N.am   92  LEU92      -0.1980
    108  CA        24.3110    9.6900   -1.0410 C.3    92  LEU92       0.1596
    109  C         23.0370    9.3020   -0.3190 C.2    92  LEU92       0.2287
    110  O         22.9030    9.4500    0.8920 O.2    92  LEU92      -0.2864
    111  CB        24.6340   11.1790   -0.8590 C.3    92  LEU92       0.0297
    112  CG        26.0940   11.6650   -0.9550 C.3    92  LEU92       0.0022
    113  CD1       26.6060   11.4740   -2.3580 C.3    92  LEU92       0.0001
    114  CD2       26.3070   13.1170   -0.5570 C.3    92  LEU92       0.0001
    115  N         26.0150    1.8230   -9.9250 N.3   103  TRP103     -0.1241
    116  CA        25.5950    3.1570  -10.3660 C.3   103  TRP103      0.1605
    117  C         24.5760    3.0170  -11.4840 C.2   103  TRP103      0.2264
    118  O         23.4620    3.5370  -11.3680 O.2   103  TRP103     -0.2867
    119  CB        26.7660    4.0660  -10.7640 C.3   103  TRP103      0.0550
    120  CG        27.5440    4.5270   -9.5630 C.ar  103  TRP103      0.0003
    121  CD1       27.2070    4.3360   -8.2580 C.ar  103  TRP103      0.0946
    122  CD2       28.7920    5.2370   -9.5500 C.ar  103  TRP103      0.0152
    123  NE1       28.1640    4.8730   -7.4320 N.ar  103  TRP103     -0.2442
    124  CE2       29.1530    5.4270   -8.2000 C.ar  103  TRP103      0.0810
    125  CE3       29.6440    5.7220  -10.5490 C.ar  103  TRP103      0.0012
    126  CZ2       30.3260    6.0800   -7.8230 C.ar  103  TRP103      0.0191
    127  CZ3       30.8100    6.3690  -10.1750 C.ar  103  TRP103      0.0001
    128  CH2       31.1400    6.5410   -8.8250 C.ar  103  TRP103      0.0015
    129  N         20.6230    4.4160  -11.4970 N.3   107  PHE107     -0.1241
    130  CA        20.4910    5.6170  -12.3200 C.3   107  PHE107      0.1605
    131  C         19.2990    5.5140  -13.2750 C.2   107  PHE107      0.2264
    132  O         18.7450    6.5330  -13.6860 O.2   107  PHE107     -0.2867
    133  CB        21.7900    5.9020  -13.1010 C.3   107  PHE107      0.0534
    134  CG        22.8770    6.5990  -12.2810 C.ar  107  PHE107     -0.0203
    135  CD1       22.6860    6.8740  -10.9280 C.ar  107  PHE107     -0.0042
    136  CD2       24.0880    6.9780  -12.8770 C.ar  107  PHE107     -0.0042
    137  CE1       23.6720    7.5100  -10.1860 C.ar  107  PHE107     -0.0003
    138  CE2       25.0750    7.6130  -12.1400 C.ar  107  PHE107     -0.0003
    139  CZ        24.8690    7.8800  -10.7950 C.ar  107  PHE107     -0.0000
    140  N         21.5370   15.5820  -13.0860 N.3   118  PHE118     -0.1241
    141  CA        22.8360   15.2450  -12.5030 C.3   118  PHE118      0.1605
    142  C         23.4060   13.9930  -13.1590 C.2   118  PHE118      0.2264
    143  O         24.5350   13.9890  -13.6380 O.2   118  PHE118     -0.2867
    144  CB        22.6980   15.0300  -10.9910 C.3   118  PHE118      0.0534
    145  CG        23.8350   14.2570  -10.3790 C.ar  118  PHE118     -0.0203
    146  CD1       24.9740   14.9080   -9.9330 C.ar  118  PHE118     -0.0042
    147  CD2       23.7670   12.8770  -10.2410 C.ar  118  PHE118     -0.0042
    148  CE1       26.0400   14.1900   -9.3640 C.ar  118  PHE118     -0.0003
    149  CE2       24.8180   12.1510   -9.6740 C.ar  118  PHE118     -0.0003
    150  CZ        25.9540   12.8070   -9.2380 C.ar  118  PHE118     -0.0000
    151  N         26.9530   13.5850  -15.0370 N.3   122  ALA122     -0.1245
    152  CA        27.9260   12.6260  -14.5620 C.3   122  ALA122      0.1562
    153  C         28.4150   11.7830  -15.7380 C.2   122  ALA122      0.2260
    154  O         29.6130   11.4590  -15.8390 O.2   122  ALA122     -0.2867
    155  CB        27.3020   11.7540  -13.4870 C.3   122  ALA122      0.0290
    156  N         31.3550    9.3740  -14.9220 N.3   127  MET127     -0.1245
    157  CA        30.6700    8.8940  -13.7280 C.3   127  MET127      0.1570
    158  C         29.2900    8.3960  -14.0830 C.2   127  MET127      0.2261
    159  O         28.3930    8.3880  -13.2520 O.2   127  MET127     -0.2867
    160  CB        30.5750    9.9900  -12.6720 C.3   127  MET127      0.0387
    161  CG        31.7730   10.9310  -12.6500 C.3   127  MET127      0.0595
    162  SD        33.3800   10.1700  -12.3060 S.3   127  MET127     -0.1393
    163  CE        33.0880    9.4930  -10.6750 C.3   127  MET127      0.0692
    164  N         31.3760    5.2210    3.1400 N.3   145  ILE145     -0.1245
    165  CA        31.1070    4.8730    1.7600 C.3   145  ILE145      0.1561
    166  C         32.4520    4.7030    1.0860 C.2   145  ILE145      0.2260
    167  O         33.4360    5.3490    1.4510 O.2   145  ILE145     -0.2867
    168  CB        30.2960    5.9590    0.9770 C.3   145  ILE145      0.0252
    169  CG1       31.0470    7.2980    0.9520 C.3   145  ILE145      0.0019
    170  CG2       28.8920    6.1410    1.5230 C.3   145  ILE145      0.0019
    171  CD1       30.4110    8.3120    0.0160 C.3   145  ILE145      0.0001
    172  N         33.6130    4.3420   -2.9990 N.3   147  SER147     -0.1217
    173  CA        33.2000    4.2900   -4.3850 C.3   147  SER147      0.1889
    174  C         34.3600    4.0330   -5.3220 C.2   147  SER147      0.2288
    175  O         35.4840    4.4700   -5.0740 O.2   147  SER147     -0.2866
    176  CB        32.5530    5.6100   -4.7840 C.3   147  SER147      0.2089
    177  OG        31.4920    5.9040   -3.9110 O.3   147  SER147     -0.2183
@<TRIPOS>BOND
     1   154   153    2
     2   153   152    1
     3   151   152    1
     4   156   157    1
     5   152   155    1
     6   158   157    1
     7   158   159    2
     8   157   160    1
     9   132   131    2
    10   143   142    2
    11   131   130    1
    12   142   141    1
    13   133   130    1
    14   133   134    1
    15   140   141    1
    16    56    54   ar
    17    56    57   ar
    18   136   134   ar
    19   136   138   ar
    20    54    51   ar
    21   160   161    1
    22   161   162    1
    23   141   144    1
    24   130   129    1
    25   162   163    1
    26   134   135   ar
    27    44    45    1
    28   138   139   ar
    29    57    55   ar
    30    48    45    1
    31    48    49    1
    32    45    46    1
    33    51    49   ar
    34    51    53   ar
    35   117   118    2
    36   117   116    1
    37    49    50   ar
    38   144   145    1
    39   135   137   ar
    40    55    53   ar
    41   139   137   ar
    42   119   116    1
    43   119   120    1
    44    53    52   ar
    45   125   127   ar
    46   125   122   ar
    47   145   147   ar
    48   145   146   ar
    49   116   115    1
    50   147   149   ar
    51    46    47    2
    52    46    58   am
    53   127   128   ar
    54    50    52   ar
    55   146   148   ar
    56   149   150   ar
    57   120   122   ar
    58   120   121   ar
    59    34    35    2
    60    34    33    1
    61   122   124   ar
    62    58    59    1
    63   148   150   ar
    64    66    67    1
    65   128   126   ar
    66    33    32    1
    67    33    36    1
    68   121   123   ar
    69   124   126   ar
    70   124   123   ar
    71    59    60    1
    72    59    62    1
    73    60    61    2
    74    67    70    1
    75    67    68    1
    76    36    37    1
    77    38    40   ar
    78    38    37   ar
    79    62    63    1
    80    70    71    1
    81    72    71   ar
    82    72    74   ar
    83    40    42   ar
    84    37    39   ar
    85    63    64    1
    86    63    65    1
    87    68    78   am
    88    68    69    2
    89    71    73   ar
    90    74    76   ar
    91   106   104    1
    92    78    79    1
    93   104   103    1
    94    97    96   ar
    95    92    91    1
    96    92    95    1
    97    92    93    1
    98    42    43    1
    99    42    41   ar
   100    39    41   ar
   101    80    79    1
   102    80    81    2
   103    96    98   ar
   104    96    95    1
   105    73    75   ar
   106    93    94    2
   107    79    82    1
   108    76    75   ar
   109    76    77    1
   110   174   175    2
   111   174   173    1
   112    99   100    1
   113    82    83    1
   114   103   100    1
   115   103   105    1
   116    85    84    1
   117   176   173    1
   118   176   177    1
   119    86    87    1
   120   173   172    1
   121   100   101    1
   122    31    29   am
   123    30    29    2
   124    83    84    1
   125     1     2    1
   126    29    28    1
   127     5     2    1
   128     5     6    1
   129    87    88    1
   130    87    90    1
   131     2     3    1
   132     8     6    1
   133    88    89    2
   134   101   107   am
   135   101   102    2
   136   107   108    1
   137     6     7    1
   138   113   112    1
   139    28    25    1
   140    26    27    2
   141    26    25    1
   142     3     4    2
   143    25    24    1
   144   108   111    1
   145   108   109    1
   146   112   111    1
   147   112   114    1
   148   109   110    2
   149   171   169    1
   150    22    21    1
   151   169   168    1
   152   168   170    1
   153   168   165    1
   154   166   167    2
   155   166   165    1
   156    15    14    1
   157    21    23    1
   158    21    18    1
   159   165   164    1
   160    14    16    1
   161    14    13    1
   162    19    18    1
   163    19    20    2
   164    18    17    1
   165    13    10    1
   166    10     9    1
   167    10    11    1
   168    11    12    2
