@<TRIPOS>MOLECULE
tmp/3qp6A00.pdb
 163 155 0 0 0
SMALL
GASTEIGER

@<TRIPOS>ATOM
      1  N          7.4740    2.0590   51.6920 N.3    51  ILE51      -0.1245
      2  CA         7.2880    3.4120   51.1860 C.3    51  ILE51       0.1561
      3  C          7.5320    3.4310   49.6800 C.2    51  ILE51       0.2260
      4  O          8.2710    2.5970   49.1420 O.2    51  ILE51      -0.2867
      5  CB         8.2220    4.4120   51.9060 C.3    51  ILE51       0.0252
      6  CG1        7.7510    5.8620   51.7160 C.3    51  ILE51       0.0019
      7  CG2        9.6680    4.2350   51.4340 C.3    51  ILE51       0.0019
      8  CD1        8.2530    6.7970   52.8280 C.3    51  ILE51       0.0001
      9  N          8.6240    6.3670   46.7960 N.3    53  VAL53      -0.1245
     10  CA         9.0890    7.7350   46.5790 C.3    53  VAL53       0.1561
     11  C          9.2160    8.0110   45.0770 C.2    53  VAL53       0.2260
     12  O          9.9040    7.2740   44.3530 O.2    53  VAL53      -0.2867
     13  CB        10.4250    8.0230   47.2790 C.3    53  VAL53       0.0252
     14  CG1       10.9830    9.3960   46.8560 C.3    53  VAL53       0.0019
     15  CG2       10.2580    7.9610   48.7930 C.3    53  VAL53       0.0019
     16  N         12.7190   14.9740   45.1890 N.3    66  MET66      -0.1245
     17  CA        11.4980   14.1940   45.3240 C.3    66  MET66       0.1570
     18  C         10.3150   14.9840   44.7730 C.2    66  MET66       0.2261
     19  O         10.2730   16.2120   44.9040 O.2    66  MET66      -0.2867
     20  CB        11.2700   13.8220   46.7880 C.3    66  MET66       0.0387
     21  CG        12.3250   12.8500   47.3400 C.3    66  MET66       0.0595
     22  SD        11.9880   12.4640   49.0720 S.3    66  MET66      -0.1393
     23  CE        13.4920   11.6100   49.5410 C.3    66  MET66       0.0692
     24  N          6.1330   11.7560   48.1880 N.3    69  VAL69      -0.1245
     25  CA         6.4020   10.7240   49.1600 C.3    69  VAL69       0.1561
     26  C          5.0930   10.0270   49.5070 C.2    69  VAL69       0.2260
     27  O          4.1600   10.6360   50.0590 O.2    69  VAL69      -0.2867
     28  CB         7.0880   11.2940   50.4160 C.3    69  VAL69       0.0252
     29  CG1        7.2050   10.2290   51.5010 C.3    69  VAL69       0.0019
     30  CG2        8.4740   11.8320   50.0490 C.3    69  VAL69       0.0019
     31  N          6.2780    3.2760   56.7840 N.3    74  TYR74      -0.1241
     32  CA         7.4730    3.7950   57.4570 C.3    74  TYR74       0.1605
     33  C          7.0370    4.4840   58.7580 C.2    74  TYR74       0.2264
     34  O          6.0160    5.1620   58.7810 O.2    74  TYR74      -0.2867
     35  CB         8.2410    4.7710   56.5530 C.3    74  TYR74       0.0534
     36  CG         9.3210    4.1080   55.6980 C.ar   74  TYR74      -0.0201
     37  CD1        9.1650    2.8090   55.2300 C.ar   74  TYR74      -0.0009
     38  CD2       10.4850    4.7910   55.3550 C.ar   74  TYR74      -0.0009
     39  CE1       10.1510    2.1960   54.4420 C.ar   74  TYR74       0.0417
     40  CE2       11.4700    4.1970   54.5710 C.ar   74  TYR74       0.0417
     41  CZ        11.3020    2.9020   54.1140 C.ar   74  TYR74       0.1957
     42  OH        12.2780    2.3000   53.3470 O.3    74  TYR74      -0.2866
     43  N         10.7260    8.1340   62.1870 N.3    78  TRP78      -0.1227
     44  CA        11.8390    7.9910   61.2480 C.3    78  TRP78       0.1737
     45  C         11.7400    8.9950   60.0830 C.2    78  TRP78       0.2595
     46  O         12.7310    9.6260   59.7200 O.2    78  TRP78      -0.2718
     47  CB        11.9520    6.5340   60.7640 C.3    78  TRP78       0.0564
     48  CG        12.9830    6.3220   59.6750 C.ar   78  TRP78       0.0003
     49  CD1       12.7510    5.9090   58.3940 C.ar   78  TRP78       0.0946
     50  CD2       14.3950    6.5330   59.7810 C.ar   78  TRP78       0.0152
     51  NE1       13.9390    5.8500   57.6890 N.ar   78  TRP78      -0.2442
     52  CE2       14.9610    6.2360   58.5190 C.ar   78  TRP78       0.0810
     53  CE3       15.2380    6.9610   60.8160 C.ar   78  TRP78       0.0012
     54  CZ2       16.3350    6.3260   58.2760 C.ar   78  TRP78       0.0191
     55  CZ3       16.6060    7.0610   60.5680 C.ar   78  TRP78       0.0001
     56  CH2       17.1370    6.7470   59.3080 C.ar   78  TRP78       0.0015
     57  N         10.5480    9.1530   59.5110 N.am   79  LEU79      -0.1980
     58  CA        10.3450   10.1310   58.4400 C.3    79  LEU79       0.1596
     59  C         10.6500   11.5500   58.9340 C.2    79  LEU79       0.2287
     60  O         11.2690   12.3550   58.2370 O.2    79  LEU79      -0.2864
     61  CB         8.9180   10.0360   57.8760 C.3    79  LEU79       0.0297
     62  CG         8.5120    8.7270   57.1540 C.3    79  LEU79       0.0022
     63  CD1        7.0540    8.7840   56.6940 C.3    79  LEU79       0.0001
     64  CD2        9.4230    8.4340   55.9570 C.3    79  LEU79       0.0001
     65  N         14.3540   11.8280   59.1390 N.3    82  TYR82      -0.1241
     66  CA        14.8970   11.7780   57.7760 C.3    82  TYR82       0.1605
     67  C         14.7710   13.1540   57.1110 C.2    82  TYR82       0.2264
     68  O         15.7040   13.6510   56.4640 O.2    82  TYR82      -0.2867
     69  CB        14.1470   10.7050   56.9800 C.3    82  TYR82       0.0534
     70  CG        14.8210   10.2250   55.7060 C.ar   82  TYR82      -0.0201
     71  CD1       15.3890    8.9470   55.6270 C.ar   82  TYR82      -0.0009
     72  CD2       14.8670   11.0310   54.5770 C.ar   82  TYR82      -0.0009
     73  CE1       15.9950    8.4980   54.4530 C.ar   82  TYR82       0.0417
     74  CE2       15.4740   10.5920   53.4090 C.ar   82  TYR82       0.0417
     75  CZ        16.0270    9.3180   53.3540 C.ar   82  TYR82       0.1957
     76  OH        16.6260    8.8930   52.1930 O.3    82  TYR82      -0.2866
     77  N         21.7340    9.0990   52.4830 N.3    91  ASP91      -0.1239
     78  CA        21.1930    7.7440   52.3670 C.3    91  ASP91       0.1674
     79  C         21.7360    7.0590   51.1110 C.2    91  ASP91       0.2266
     80  O         21.3820    7.4490   50.0010 O.2    91  ASP91      -0.2867
     81  CB        19.6620    7.8440   52.2820 C.3    91  ASP91       0.1410
     82  CG        18.9770    6.5000   52.2520 C.2    91  ASP91       0.3668
     83  OD1       19.6610    5.4610   52.1450 O.co2  91  ASP91      -0.2456
     84  OD2       17.7320    6.4880   52.3470 O.co2  91  ASP91      -0.2456
     85  N         20.8750    4.4390   49.7030 N.3    93  ILE93      -0.1231
     86  CA        19.7720    3.9590   48.8460 C.3    93  ILE93       0.1692
     87  C         19.2960    5.0570   47.8920 C.2    93  ILE93       0.2591
     88  O         18.8130    4.7700   46.8000 O.2    93  ILE93      -0.2718
     89  CB        18.5820    3.4000   49.6780 C.3    93  ILE93       0.0266
     90  CG1       19.1080    2.4320   50.7390 C.3    93  ILE93       0.0019
     91  CG2       17.5600    2.6880   48.7820 C.3    93  ILE93       0.0020
     92  CD1       20.1530    1.4370   50.1810 C.3    93  ILE93       0.0001
     93  N         19.4480    6.3110   48.3030 N.am   94  MET94      -0.1979
     94  CA        19.0500    7.4470   47.4670 C.3    94  MET94       0.1605
     95  C         20.0100    7.6880   46.2940 C.2    94  MET94       0.2287
     96  O         19.6990    8.4730   45.4000 O.2    94  MET94      -0.2864
     97  CB        18.9020    8.7340   48.3000 C.3    94  MET94       0.0413
     98  CG        17.6230    8.7990   49.1590 C.3    94  MET94       0.0598
     99  SD        16.0920    8.6710   48.1830 S.3    94  MET94      -0.1393
    100  CE        16.1060   10.2510   47.3520 C.3    94  MET94       0.0692
    101  N         19.6780   -3.5050   50.8640 N.3   105  TRP105     -0.1241
    102  CA        20.3820   -2.3280   51.4130 C.3   105  TRP105      0.1605
    103  C         21.8180   -2.5960   51.8460 C.2   105  TRP105      0.2264
    104  O         22.6930   -1.7460   51.6560 O.2   105  TRP105     -0.2867
    105  CB        19.6100   -1.6920   52.5730 C.3   105  TRP105      0.0550
    106  CG        18.2540   -1.2290   52.1660 C.ar  105  TRP105      0.0003
    107  CD1       17.7790   -1.0950   50.8830 C.ar  105  TRP105      0.0946
    108  CD2       17.1860   -0.8510   53.0290 C.ar  105  TRP105      0.0152
    109  NE1       16.4710   -0.6610   50.9060 N.ar  105  TRP105     -0.2442
    110  CE2       16.0910   -0.4880   52.2110 C.ar  105  TRP105      0.0810
    111  CE3       17.0460   -0.7690   54.4180 C.ar  105  TRP105      0.0012
    112  CZ2       14.8780   -0.0750   52.7360 C.ar  105  TRP105      0.0191
    113  CZ3       15.8340   -0.3500   54.9370 C.ar  105  TRP105      0.0001
    114  CH2       14.7710   -0.0110   54.1000 C.ar  105  TRP105      0.0015
    115  N         25.1790   -0.4960   52.1780 N.3   109  PHE109     -0.1241
    116  CA        25.6510   -0.1480   53.5200 C.3   109  PHE109      0.1605
    117  C         27.0460   -0.7350   53.8220 C.2   109  PHE109      0.2264
    118  O         27.8670   -0.0760   54.4510 O.2   109  PHE109     -0.2867
    119  CB        24.6490   -0.5840   54.6130 C.3   109  PHE109      0.0534
    120  CG        23.2990    0.1070   54.5380 C.ar  109  PHE109     -0.0203
    121  CD1       22.2690   -0.2720   55.3970 C.ar  109  PHE109     -0.0042
    122  CD2       23.0630    1.1290   53.6270 C.ar  109  PHE109     -0.0042
    123  CE1       21.0260    0.3490   55.3480 C.ar  109  PHE109     -0.0003
    124  CE2       21.8300    1.7690   53.5770 C.ar  109  PHE109     -0.0003
    125  CZ        20.8030    1.3740   54.4370 C.ar  109  PHE109     -0.0000
    126  N         24.2710    7.9410   58.9670 N.3   120  PHE120     -0.1241
    127  CA        22.9360    7.5850   58.5050 C.3   120  PHE120      0.1605
    128  C         22.6670    6.1050   58.7610 C.2   120  PHE120      0.2264
    129  O         21.5920    5.7420   59.2550 O.2   120  PHE120     -0.2867
    130  CB        22.7320    7.8810   57.0200 C.3   120  PHE120      0.0534
    131  CG        21.4840    7.2440   56.4630 C.ar  120  PHE120     -0.0203
    132  CD1       21.5340    5.9760   55.8710 C.ar  120  PHE120     -0.0042
    133  CD2       20.2480    7.8830   56.5810 C.ar  120  PHE120     -0.0042
    134  CE1       20.3700    5.3700   55.3790 C.ar  120  PHE120     -0.0003
    135  CE2       19.0790    7.2730   56.1010 C.ar  120  PHE120     -0.0003
    136  CZ        19.1490    6.0210   55.4980 C.ar  120  PHE120     -0.0000
    137  N         19.5930    4.8280   60.9670 N.3   124  ALA124     -0.1245
    138  CA        18.6460    3.8750   60.3910 C.3   124  ALA124      0.1562
    139  C         18.5630    2.6100   61.2390 C.2   124  ALA124      0.2260
    140  O         17.4720    2.1440   61.5750 O.2   124  ALA124     -0.2867
    141  CB        19.0300    3.5230   58.9650 C.3   124  ALA124      0.0290
    142  N         15.4700    0.2730   60.8680 N.3   129  MET129     -0.1245
    143  CA        15.4970    0.4370   59.4210 C.3   129  MET129      0.1570
    144  C         16.8240   -0.0280   58.8280 C.2   129  MET129      0.2261
    145  O         17.2320    0.4350   57.7540 O.2   129  MET129     -0.2867
    146  CB        15.2440    1.9110   59.0520 C.3   129  MET129      0.0387
    147  CG        13.8860    2.4560   59.5080 C.3   129  MET129      0.0595
    148  SD        12.4550    1.5750   58.8030 S.3   129  MET129     -0.1393
    149  CE        12.7920    1.7180   57.0440 C.3   129  MET129      0.0692
    150  N         11.2030    4.7820   43.5650 N.3   147  ILE147     -0.1245
    151  CA        11.7110    3.6600   44.3220 C.3   147  ILE147      0.1561
    152  C         10.6160    3.1200   45.2180 C.2   147  ILE147      0.2260
    153  O          9.8220    3.8810   45.7730 O.2   147  ILE147     -0.2867
    154  CB        12.9380    4.0200   45.1650 C.3   147  ILE147      0.0252
    155  CG1       12.6080    5.1530   46.1230 C.3   147  ILE147      0.0019
    156  CG2       14.0930    4.4140   44.2690 C.3   147  ILE147      0.0019
    157  CD1       13.3250    5.0280   47.4340 C.3   147  ILE147      0.0001
    158  N         10.5110    0.8590   48.4900 N.3   149  SER149     -0.1217
    159  CA        11.3520    0.2880   49.5380 C.3   149  SER149      0.1889
    160  C         10.5570   -0.5620   50.5070 C.2   149  SER149      0.2288
    161  O          9.4500   -0.1950   50.9250 O.2   149  SER149     -0.2866
    162  CB        12.0960    1.3940   50.2970 C.3   149  SER149      0.2089
    163  OG        13.1390    1.9350   49.5010 O.3   149  SER149     -0.2183
@<TRIPOS>BOND
     1   150   151    1
     2   156   154    1
     3   151   154    1
     4   151   152    1
     5    12    11    2
     6    18    19    2
     7    18    17    1
     8    11    10    1
     9   154   155    1
    10    16    17    1
    11   152   153    2
    12    17    20    1
    13    96    95    2
    14   155   157    1
    15    95    94    1
    16    10     9    1
    17    10    13    1
    18    20    21    1
    19    88    87    2
    20    14    13    1
    21    13    15    1
    22    21    22    1
    23   100    99    1
    24    94    97    1
    25    94    93    1
    26    87    93   am
    27    87    86    1
    28    99    98    1
    29    24    25    1
    30    97    98    1
    31   158   159    1
    32    91    89    1
    33    86    89    1
    34    86    85    1
    35    22    23    1
    36     4     3    2
    37    25    26    1
    38    25    28    1
    39   163   162    1
    40    26    27    2
    41   159   162    1
    42   159   160    1
    43    89    90    1
    44     3     2    1
    45    80    79    2
    46    30    28    1
    47    92    90    1
    48    28    29    1
    49   160   161    2
    50   101   102    1
    51   107   109   ar
    52   107   106   ar
    53   109   110   ar
    54    79    78    1
    55     2     1    1
    56     2     5    1
    57   102   103    1
    58   102   105    1
    59     7     5    1
    60   104   103    2
    61     6     5    1
    62     6     8    1
    63    83    82   ar
    64   106   105    1
    65   106   108   ar
    66   115   116    1
    67    76    75    1
    68   110   112   ar
    69   110   108   ar
    70    82    81    1
    71    82    84   ar
    72    81    78    1
    73    78    77    1
    74   112   114   ar
    75   108   111   ar
    76    42    41    1
    77    75    74   ar
    78    75    73   ar
    79    74    72   ar
    80   116   117    1
    81   116   119    1
    82   124   122   ar
    83   124   125   ar
    84   122   120   ar
    85   117   118    2
    86   114   113   ar
    87    41    39   ar
    88    41    40   ar
    89   111   113   ar
    90   125   123   ar
    91    39    37   ar
    92    73    71   ar
    93   120   119    1
    94   120   121   ar
    95    40    38   ar
    96    72    70   ar
    97    37    36   ar
    98   123   121   ar
    99    38    36   ar
   100   134   136   ar
   101   134   132   ar
   102   136   135   ar
   103    71    70   ar
   104    36    35    1
   105    70    69    1
   106   132   131   ar
   107    64    62    1
   108   135   133   ar
   109   131   133   ar
   110   131   130    1
   111    68    67    2
   112    35    32    1
   113    63    62    1
   114    31    32    1
   115    69    66    1
   116   130   127    1
   117   149   148    1
   118    67    66    1
   119    62    61    1
   120    32    33    1
   121    51    49   ar
   122    51    52   ar
   123   145   144    2
   124    66    65    1
   125    61    58    1
   126    60    59    2
   127    54    52   ar
   128    54    56   ar
   129    49    48   ar
   130    58    59    1
   131    58    57    1
   132   127   128    1
   133   127   126    1
   134    52    50   ar
   135    33    34    2
   136   128   129    2
   137   148   147    1
   138   144   143    1
   139   141   138    1
   140   146   143    1
   141   146   147    1
   142    56    55   ar
   143   143   142    1
   144    57    45   am
   145    48    50   ar
   146    48    47    1
   147    46    45    2
   148    50    53   ar
   149    45    44    1
   150   138   137    1
   151   138   139    1
   152    55    53   ar
   153    47    44    1
   154   139   140    2
   155    44    43    1
