@<TRIPOS>MOLECULE
tmp/3qp8B00.pdb
 169 161 0 0 0
SMALL
GASTEIGER

@<TRIPOS>ATOM
      1  N        -15.1900   -2.4470   26.3460 N.3    54  ILE54      -0.1245
      2  CA       -14.0880   -2.2670   25.4020 C.3    54  ILE54       0.1561
      3  C        -13.6680   -0.8040   25.3510 C.2    54  ILE54       0.2260
      4  O        -14.4950    0.0850   25.6090 O.2    54  ILE54      -0.2867
      5  CB       -14.4460   -2.7760   23.9850 C.3    54  ILE54       0.0252
      6  CG1      -13.2060   -3.0020   23.1130 C.3    54  ILE54       0.0019
      7  CG2      -15.4760   -1.8910   23.2810 C.3    54  ILE54       0.0019
      8  CD1      -13.4520   -3.9600   21.9650 C.3    54  ILE54       0.0001
      9  N        -11.5170    1.7340   22.6170 N.3    56  VAL56      -0.1245
     10  CA       -10.9430    1.8160   21.2630 C.3    56  VAL56       0.1561
     11  C        -10.3660    3.2200   21.0760 C.2    56  VAL56       0.2260
     12  O        -11.0390    4.2190   21.3310 O.2    56  VAL56      -0.2867
     13  CB       -12.0110    1.5370   20.1920 C.3    56  VAL56       0.0252
     14  CG1      -11.4400    1.6800   18.7790 C.3    56  VAL56       0.0019
     15  CG2      -12.6080    0.1160   20.3990 C.3    56  VAL56       0.0019
     16  N         -9.2980    2.5490   13.4130 N.3    69  MET69      -0.1245
     17  CA        -8.9360    2.1460   14.7460 C.3    69  MET69       0.1570
     18  C         -7.4280    2.0010   14.8200 C.2    69  MET69       0.2261
     19  O         -6.8070    1.3260   13.9590 O.2    69  MET69      -0.2867
     20  CB        -9.6460    0.8490   15.1230 C.3    69  MET69       0.0387
     21  CG       -11.1610    0.9670   15.0890 C.3    69  MET69       0.0595
     22  SD       -11.9320   -0.5570   15.6810 S.3    69  MET69      -0.1393
     23  CE       -13.6410   -0.3060   15.2210 C.3    69  MET69       0.0692
     24  N         -7.1950   -1.3460   19.7480 N.3    72  VAL72      -0.1245
     25  CA        -8.3630   -1.9370   20.3810 C.3    72  VAL72       0.1561
     26  C         -7.9300   -2.5960   21.6810 C.2    72  VAL72       0.2260
     27  O         -7.0570   -3.4790   21.6870 O.2    72  VAL72      -0.2867
     28  CB        -9.0410   -2.9750   19.4460 C.3    72  VAL72       0.0252
     29  CG1      -10.1590   -3.7100   20.1810 C.3    72  VAL72       0.0019
     30  CG2       -9.5820   -2.2860   18.2020 C.3    72  VAL72       0.0019
     31  N        -15.6370   -7.8400   25.5110 N.3    77  TYR77      -0.1241
     32  CA       -16.3650   -8.2020   24.2990 C.3    77  TYR77       0.1605
     33  C        -15.9240   -9.6200   23.9430 C.2    77  TYR77       0.2264
     34  O        -14.7360   -9.9290   24.0720 O.2    77  TYR77      -0.2867
     35  CB       -16.0730   -7.2430   23.1440 C.3    77  TYR77       0.0534
     36  CG       -16.9150   -5.9720   23.1220 C.ar   77  TYR77      -0.0201
     37  CD1      -17.1510   -5.2910   21.9080 C.ar   77  TYR77      -0.0009
     38  CD2      -17.4840   -5.4510   24.2960 C.ar   77  TYR77      -0.0009
     39  CE1      -17.9380   -4.1010   21.8800 C.ar   77  TYR77       0.0417
     40  CE2      -18.2640   -4.2680   24.2750 C.ar   77  TYR77       0.0417
     41  CZ       -18.4750   -3.6200   23.0660 C.ar   77  TYR77       0.1957
     42  OH       -19.2470   -2.4940   23.0470 O.3    77  TYR77      -0.2866
     43  N        -16.7260  -12.1970   18.6220 N.3    81  TRP81      -0.1227
     44  CA       -17.4850  -11.0500   18.1760 C.3    81  TRP81       0.1737
     45  C        -16.5630  -10.0740   17.4610 C.2    81  TRP81       0.2595
     46  O        -16.9190   -9.5510   16.4190 O.2    81  TRP81      -0.2718
     47  CB       -18.1780  -10.3810   19.3590 C.3    81  TRP81       0.0564
     48  CG       -18.8290   -9.0660   19.0150 C.ar   81  TRP81       0.0003
     49  CD1      -18.4470   -7.8300   19.4500 C.ar   81  TRP81       0.0946
     50  CD2      -19.9710   -8.8580   18.1630 C.ar   81  TRP81       0.0152
     51  NE1      -19.2870   -6.8560   18.9330 N.ar   81  TRP81      -0.2442
     52  CE2      -20.2280   -7.4600   18.1430 C.ar   81  TRP81       0.0810
     53  CE3      -20.7980   -9.7140   17.4100 C.ar   81  TRP81       0.0012
     54  CZ2      -21.2830   -6.9030   17.4070 C.ar   81  TRP81       0.0191
     55  CZ3      -21.8320   -9.1590   16.6660 C.ar   81  TRP81       0.0001
     56  CH2      -22.0800   -7.7750   16.6870 C.ar   81  TRP81       0.0015
     57  N        -15.3810   -9.8530   18.0230 N.am   82  LEU82      -0.1980
     58  CA       -14.3930   -8.9910   17.3650 C.3    82  LEU82       0.1596
     59  C        -13.9740   -9.5630   16.0130 C.2    82  LEU82       0.2287
     60  O        -13.8570   -8.8240   15.0370 O.2    82  LEU82      -0.2864
     61  CB       -13.1800   -8.7930   18.2630 C.3    82  LEU82       0.0297
     62  CG       -13.4050   -8.0930   19.6190 C.3    82  LEU82       0.0022
     63  CD1      -12.0600   -7.7330   20.2250 C.3    82  LEU82       0.0001
     64  CD2      -14.3120   -6.8690   19.5610 C.3    82  LEU82       0.0001
     65  N        -16.8180   -8.8700   13.7250 N.3    85  TYR85      -0.1227
     66  CA       -16.9140   -7.4410   13.4940 C.3    85  TYR85       0.1736
     67  C        -15.9230   -7.0490   12.3870 C.2    85  TYR85       0.2596
     68  O        -16.2780   -6.2930   11.4880 O.2    85  TYR85      -0.2718
     69  CB       -16.6620   -6.7060   14.8190 C.3    85  TYR85       0.0548
     70  CG       -17.1170   -5.2630   14.8630 C.ar   85  TYR85      -0.0200
     71  CD1      -18.1970   -4.8720   15.6820 C.ar   85  TYR85      -0.0009
     72  CD2      -16.4260   -4.2700   14.1470 C.ar   85  TYR85      -0.0009
     73  CE1      -18.5990   -3.5340   15.7410 C.ar   85  TYR85       0.0417
     74  CE2      -16.8240   -2.9420   14.1930 C.ar   85  TYR85       0.0417
     75  CZ       -17.9020   -2.5760   14.9920 C.ar   85  TYR85       0.1957
     76  OH       -18.2740   -1.2560   15.0390 O.3    85  TYR85      -0.2866
     77  N        -14.7160   -7.6130   12.4470 N.am   86  SER86      -0.1952
     78  CA       -13.6830   -7.3990   11.4100 C.3    86  SER86       0.1924
     79  C        -14.0480   -8.0510   10.0910 C.2    86  SER86       0.2314
     80  O        -14.0090   -7.4070    9.0400 O.2    86  SER86      -0.2863
     81  CB       -12.3410   -7.9430   11.8880 C.3    86  SER86       0.2116
     82  OG       -11.3690   -7.8480   10.8500 O.3    86  SER86      -0.2180
     83  N        -22.3640   -0.1350   12.1970 N.3    94  ASP94      -0.1239
     84  CA       -22.5240    0.0810   13.6520 C.3    94  ASP94       0.1674
     85  C        -22.8050    1.5660   13.9550 C.2    94  ASP94       0.2266
     86  O        -21.9050    2.4020   13.7700 O.2    94  ASP94      -0.2867
     87  CB       -21.2250   -0.3210   14.3510 C.3    94  ASP94       0.1410
     88  CG       -21.3140   -0.2370   15.8850 C.2    94  ASP94       0.3668
     89  OD1      -22.3490    0.2240   16.4200 O.co2  94  ASP94      -0.2456
     90  OD2      -20.3320   -0.6420   16.5360 O.co2  94  ASP94      -0.2456
     91  N        -22.8630    3.1660   16.6270 N.3    96  ILE96      -0.1231
     92  CA       -21.9800    3.6740   17.6740 C.3    96  ILE96       0.1692
     93  C        -20.6690    4.1850   17.0760 C.2    96  ILE96       0.2591
     94  O        -20.0770    5.1050   17.6220 O.2    96  ILE96      -0.2718
     95  CB       -21.7190    2.6140   18.7580 C.3    96  ILE96       0.0266
     96  CG1      -23.0610    2.0800   19.2730 C.3    96  ILE96       0.0019
     97  CG2      -20.8130    3.1790   19.8810 C.3    96  ILE96       0.0020
     98  CD1      -24.1400    3.1440   19.5690 C.3    96  ILE96       0.0001
     99  N        -20.2510    3.6540   15.9240 N.am   97  MET97      -0.1979
    100  CA       -19.0340    4.1390   15.2800 C.3    97  MET97       0.1605
    101  C        -19.2270    5.5020   14.6160 C.2    97  MET97       0.2287
    102  O        -18.2680    6.1240   14.0990 O.2    97  MET97      -0.2864
    103  CB       -18.5110    3.1110   14.2650 C.3    97  MET97       0.0413
    104  CG       -17.8820    1.8650   14.9280 C.3    97  MET97       0.0598
    105  SD       -16.5500    2.2550   16.1230 S.3    97  MET97      -0.1393
    106  CE       -15.3700    2.9790   15.0240 C.3    97  MET97       0.0692
    107  N        -27.0070    3.6930   23.7080 N.3   108  TRP108     -0.1241
    108  CA       -27.1230    2.9970   22.4140 C.3   108  TRP108      0.1605
    109  C        -28.5460    3.0000   21.8790 C.2   108  TRP108      0.2264
    110  O        -28.7660    3.1610   20.6790 O.2   108  TRP108     -0.2867
    111  CB       -26.5990    1.5670   22.5230 C.3   108  TRP108      0.0550
    112  CG       -25.1370    1.4560   22.8200 C.ar  108  TRP108      0.0003
    113  CD1      -24.2390    2.4830   23.0080 C.ar  108  TRP108      0.0946
    114  CD2      -24.4000    0.2420   22.9730 C.ar  108  TRP108      0.0152
    115  NE1      -22.9840    1.9610   23.2600 N.ar  108  TRP108     -0.2442
    116  CE2      -23.0660    0.5920   23.2640 C.ar  108  TRP108      0.0810
    117  CE3      -24.7500   -1.1170   22.9340 C.ar  108  TRP108      0.0012
    118  CZ2      -22.0680   -0.3580   23.4820 C.ar  108  TRP108      0.0191
    119  CZ3      -23.7640   -2.0620   23.1760 C.ar  108  TRP108      0.0001
    120  CH2      -22.4350   -1.6810   23.4340 C.ar  108  TRP108      0.0015
    121  N        -29.8860    3.2390   18.1660 N.3   112  PHE112     -0.1241
    122  CA       -30.4270    2.0010   17.5980 C.3   112  PHE112      0.1605
    123  C        -31.8670    2.1770   17.1230 C.2   112  PHE112      0.2264
    124  O        -32.2340    1.6570   16.0720 O.2   112  PHE112     -0.2867
    125  CB       -30.3480    0.8510   18.6110 C.3   112  PHE112      0.0534
    126  CG       -28.9530    0.3250   18.8470 C.ar  112  PHE112     -0.0203
    127  CD1      -28.7600   -0.7910   19.6580 C.ar  112  PHE112     -0.0042
    128  CD2      -27.8400    0.9220   18.2580 C.ar  112  PHE112     -0.0042
    129  CE1      -27.4900   -1.2880   19.8890 C.ar  112  PHE112     -0.0003
    130  CE2      -26.5530    0.4280   18.4780 C.ar  112  PHE112     -0.0003
    131  CZ       -26.3870   -0.6860   19.3130 C.ar  112  PHE112     -0.0000
    132  N        -27.1710   -5.6110   11.8360 N.3   123  PHE123     -0.1241
    133  CA       -26.0850   -5.4500   12.8090 C.3   123  PHE123      0.1605
    134  C        -26.6140   -5.3700   14.2390 C.2   123  PHE123      0.2264
    135  O        -26.0870   -6.0390   15.1410 O.2   123  PHE123     -0.2867
    136  CB       -25.2400   -4.2010   12.5240 C.3   123  PHE123      0.0534
    137  CG       -24.3280   -3.8620   13.6560 C.ar  123  PHE123     -0.0203
    138  CD1      -23.1560   -4.5960   13.8620 C.ar  123  PHE123     -0.0042
    139  CD2      -24.6870   -2.8900   14.5850 C.ar  123  PHE123     -0.0042
    140  CE1      -22.3390   -4.3350   14.9550 C.ar  123  PHE123     -0.0003
    141  CE2      -23.8690   -2.6090   15.6660 C.ar  123  PHE123     -0.0003
    142  CZ       -22.7060   -3.3330   15.8610 C.ar  123  PHE123     -0.0000
    143  N        -25.7320   -7.8390   17.2200 N.3   127  ALA127     -0.1245
    144  CA       -25.2020   -7.3240   18.4870 C.3   127  ALA127      0.1562
    145  C        -26.0550   -7.7650   19.6720 C.2   127  ALA127      0.2260
    146  O        -25.5140   -8.2050   20.6960 O.2   127  ALA127     -0.2867
    147  CB       -25.1420   -5.8260   18.4390 C.3   127  ALA127      0.0290
    148  N        -25.2480   -7.3030   23.4050 N.3   132  MET132     -0.1245
    149  CA       -24.9110   -5.8920   23.1710 C.3   132  MET132      0.1570
    150  C        -26.0490   -5.1050   22.5050 C.2   132  MET132      0.2261
    151  O        -25.8100   -4.2160   21.6900 O.2   132  MET132     -0.2867
    152  CB       -23.6060   -5.8050   22.3840 C.3   132  MET132      0.0387
    153  CG       -22.3730   -6.0680   23.2480 C.3   132  MET132      0.0595
    154  SD       -20.8900   -6.3560   22.2720 S.3   132  MET132     -0.1393
    155  CE       -21.3910   -7.8480   21.4420 C.3   132  MET132      0.0692
    156  N        -13.0320    5.7970   22.6500 N.3   150  ILE150     -0.1245
    157  CA       -14.3650    5.4810   23.1490 C.3   150  ILE150      0.1561
    158  C        -14.2730    4.3610   24.1570 C.2   150  ILE150      0.2260
    159  O        -13.4780    3.4340   24.0000 O.2   150  ILE150     -0.2867
    160  CB       -15.3390    5.1000   22.0020 C.3   150  ILE150      0.0252
    161  CG1      -14.7960    3.9610   21.1180 C.3   150  ILE150      0.0019
    162  CG2      -15.6040    6.3140   21.1100 C.3   150  ILE150      0.0019
    163  CD1      -15.8740    3.2870   20.2430 C.3   150  ILE150      0.0001
    164  N        -16.8850    1.7160   25.7300 N.3   152  SER152     -0.1217
    165  CA       -18.2230    1.1730   25.5910 C.3   152  SER152      0.1889
    166  C        -18.4840    0.1820   26.6990 C.2   152  SER152      0.2288
    167  O        -17.6320   -0.6360   27.0320 O.2   152  SER152     -0.2866
    168  CB       -18.3380    0.4210   24.2530 C.3   152  SER152      0.2089
    169  OG       -18.5200    1.3390   23.1930 O.3   152  SER152     -0.2183
@<TRIPOS>BOND
     1    80    79    2
     2    79    78    1
     3    82    81    1
     4    78    81    1
     5    78    77    1
     6    68    67    2
     7   132   133    1
     8    83    84    1
     9    67    77   am
    10    67    66    1
    11   136   133    1
    12   136   137    1
    13   133   134    1
    14    16    17    1
    15    66    65    1
    16    66    69    1
    17    84    85    1
    18    84    87    1
    19   137   138   ar
    20   137   139   ar
    21    86    85    2
    22   138   140   ar
    23    19    18    2
    24   102   101    2
    25    72    74   ar
    26    72    70   ar
    27    74    75   ar
    28   134   135    2
    29   103   104    1
    30   103   100    1
    31    87    88    1
    32   139   141   ar
    33   101   100    1
    34    17    18    1
    35    17    20    1
    36    69    70    1
    37    70    71   ar
    38   104   105    1
    39   140   142   ar
    40    75    76    1
    41    75    73   ar
    42   106   105    1
    43    60    59    2
    44    21    20    1
    45    21    22    1
    46    23    22    1
    47   100    99    1
    48   141   142   ar
    49    71    73   ar
    50    88    89   ar
    51    88    90   ar
    52    99    93   am
    53    59    58    1
    54   124   123    2
    55    46    45    2
    56    91    92    1
    57    55    56   ar
    58    55    53   ar
    59    56    54   ar
    60    93    94    2
    61    93    92    1
    62   123   122    1
    63   143   144    1
    64    58    57    1
    65    58    61    1
    66    54    52   ar
    67    53    50   ar
    68    45    57   am
    69    45    44    1
    70   122   121    1
    71   122   125    1
    72    92    95    1
    73    52    50   ar
    74    52    51   ar
    75    50    48   ar
    76    44    43    1
    77    44    47    1
    78    30    28    1
    79   128   130   ar
    80   128   126   ar
    81    61    62    1
    82   147   144    1
    83   130   131   ar
    84   144   145    1
    85   125   126    1
    86    95    96    1
    87    95    97    1
    88    14    13    1
    89   126   127   ar
    90    51    49   ar
    91    48    47    1
    92    48    49   ar
    93    96    98    1
    94   131   129   ar
    95    28    29    1
    96    28    25    1
    97    64    62    1
    98    62    63    1
    99   127   129   ar
   100   145   146    2
   101    24    25    1
   102    13    15    1
   103    13    10    1
   104   163   161    1
   105    25    26    1
   106   110   109    2
   107    11    10    1
   108    11    12    2
   109   162   160    1
   110   161   160    1
   111    10     9    1
   112   155   154    1
   113    26    27    2
   114   151   150    2
   115   109   108    1
   116    39    37   ar
   117    39    41   ar
   118    37    36   ar
   119     8     6    1
   120   160   157    1
   121   154   153    1
   122   152   149    1
   123   152   153    1
   124   108   111    1
   125   108   107    1
   126   150   149    1
   127   111   112    1
   128   156   157    1
   129   112   114   ar
   130   112   113   ar
   131   117   114   ar
   132   117   119   ar
   133   114   116   ar
   134   113   115   ar
   135    42    41    1
   136    41    40   ar
   137     6     5    1
   138    36    35    1
   139    36    38   ar
   140    35    32    1
   141   157   158    1
   142   149   148    1
   143   119   120   ar
   144   169   168    1
   145   115   116   ar
   146   116   118   ar
   147     7     5    1
   148   120   118   ar
   149    33    34    2
   150    33    32    1
   151     5     2    1
   152   159   158    2
   153   168   165    1
   154    40    38   ar
   155    32    31    1
   156     3     2    1
   157     3     4    2
   158     2     1    1
   159   165   164    1
   160   165   166    1
   161   166   167    2
