@<TRIPOS>MOLECULE
tmp/3qpbC01.pdb
 86 82 0 0 0
SMALL
GASTEIGER

@<TRIPOS>ATOM
      1  N         26.2740   14.5860    8.1280 N.3    94  THR94      -0.1203
      2  CA        26.1370   14.4680    9.5690 C.3    94  THR94       0.1994
      3  C         25.0020   13.4820    9.7890 C.2    94  THR94       0.2618
      4  O         24.1670   13.2850    8.9100 O.2    94  THR94      -0.2717
      5  CB        25.7960   15.8270   10.2090 C.3    94  THR94       0.1784
      6  OG1       24.6620   16.4040    9.5480 O.3    94  THR94      -0.2211
      7  CG2       26.9880   16.7800   10.0790 C.3    94  THR94       0.0376
      8  N         24.9730   12.8530   10.9520 N.am   95  CYS95      -0.1955
      9  CA        23.9420   11.8670   11.2140 C.3    95  CYS95       0.1843
     10  C         23.6950   11.7580   12.7080 C.2    95  CYS95       0.2626
     11  O         24.5370   12.1540   13.5120 O.2    95  CYS95      -0.2714
     12  CB        24.4100   10.5200   10.6530 C.3    95  CYS95       0.0997
     13  SG        23.1610    9.2520   10.4840 S.3    95  CYS95      -0.0797
     14  N         22.5280   11.2370   13.0730 N.am   96  GLY96      -0.1954
     15  CA        22.2010   11.0520   14.4750 C.3    96  GLY96       0.1869
     16  C         22.2850    9.5650   14.7570 C.2    96  GLY96       0.2309
     17  O         21.6920    8.7670   14.0360 O.2    96  GLY96      -0.2863
     18  N         15.0370    9.6560    5.7420 N.3   159  LYS159     -0.1245
     19  CA        13.6930   10.1510    6.0030 C.3   159  LYS159      0.1561
     20  C         13.5320   11.4590    5.2500 C.2   159  LYS159      0.2260
     21  O         14.5240   12.0520    4.8270 O.2   159  LYS159     -0.2867
     22  CB        13.5590   10.4330    7.4970 C.3   159  LYS159      0.0271
     23  CG        14.6100   11.4530    7.9640 C.3   159  LYS159      0.0035
     24  CD        14.5810   11.7070    9.4590 C.3   159  LYS159      0.0206
     25  CE        15.6910   12.6750    9.8660 C.3   159  LYS159      0.1093
     26  NZ        17.0590   12.0950    9.6450 N.3   159  LYS159     -0.1314
     27  N         12.7990   15.8690    8.8510 N.3   162  PHE162     -0.1241
     28  CA        13.7630   15.9850    9.9400 C.3   162  PHE162      0.1605
     29  C         13.0490   16.0470   11.2850 C.2   162  PHE162      0.2264
     30  O         13.4640   15.4050   12.2490 O.2   162  PHE162     -0.2867
     31  CB        14.6020   17.2520    9.7820 C.3   162  PHE162      0.0534
     32  CG        15.6120   17.4480   10.8800 C.ar  162  PHE162     -0.0203
     33  CD1       16.8570   16.8350   10.8150 C.ar  162  PHE162     -0.0042
     34  CD2       15.3120   18.2380   11.9830 C.ar  162  PHE162     -0.0042
     35  CE1       17.7950   17.0080   11.8360 C.ar  162  PHE162     -0.0003
     36  CE2       16.2420   18.4160   13.0090 C.ar  162  PHE162     -0.0003
     37  CZ        17.4850   17.8000   12.9320 C.ar  162  PHE162     -0.0000
     38  N         11.9240   12.8820   13.0970 N.3   165  GLN165     -0.1231
     39  CA        12.9360   12.0890   13.7900 C.3   165  GLN165      0.1698
     40  C         13.0590   12.5100   15.2480 C.2   165  GLN165      0.2592
     41  O         13.1850   11.6740   16.1440 O.2   165  GLN165     -0.2718
     42  CB        14.3030   12.2690   13.1240 C.3   165  GLN165      0.0381
     43  CG        15.4120   11.4030   13.7410 C.3   165  GLN165      0.0905
     44  CD        16.8080   11.9600   13.4980 C.2   165  GLN165      0.2608
     45  OE1       17.0780   12.5630   12.4600 O.2   165  GLN165     -0.2717
     46  NE2       17.7070   11.7460   14.4540 N.am  165  GLN165     -0.0878
     47  N         13.0150   13.8180   15.4750 N.am  166  HIS166     -0.1976
     48  CA        13.1660   14.3730   16.8120 C.3   166  HIS166      0.1656
     49  C         11.8770   14.7240   17.5510 C.2   166  HIS166      0.2291
     50  O         11.8850   14.8450   18.7730 O.2   166  HIS166     -0.2864
     51  CB        14.0710   15.6040   16.7390 C.3   166  HIS166      0.0771
     52  CG        15.4820   15.2880   16.3510 C.ar  166  HIS166      0.0820
     53  ND1       16.3460   14.6050   17.1790 N.ar  166  HIS166     -0.2267
     54  CD2       16.1770   15.5540   15.2190 C.ar  166  HIS166      0.1154
     55  CE1       17.5140   14.4660   16.5760 C.ar  166  HIS166      0.1986
     56  NE2       17.4370   15.0330   15.3850 N.ar  166  HIS166     -0.2212
     57  N         20.7350    7.8690   11.6990 N.3   192  SER192     -0.1202
     58  CA        19.6960    8.4990   10.8880 C.3   192  SER192      0.2020
     59  C         20.1960    9.7470   10.1520 C.2   192  SER192      0.2619
     60  O         20.8700   10.6050   10.7330 O.2   192  SER192     -0.2717
     61  CB        18.5150    8.8760   11.7940 C.3   192  SER192      0.2103
     62  OG        17.4870    9.5650   11.0930 O.3   192  SER192     -0.2182
     63  N         19.8800    9.8290    8.8650 N.am  193  GLU193     -0.1965
     64  CA        20.2550   10.9800    8.0560 C.3   193  GLU193      0.1733
     65  C         19.1690   11.2000    7.0050 C.2   193  GLU193      0.2616
     66  O         18.0180   10.8170    7.2310 O.2   193  GLU193     -0.2715
     67  CB        21.6370   10.7890    7.4190 C.3   193  GLU193      0.0429
     68  CG        21.7950    9.5710    6.5430 C.3   193  GLU193      0.1163
     69  CD        21.9330    9.9290    5.0770 C.2   193  GLU193      0.3649
     70  OE1       22.1980   11.1100    4.7620 O.co2 193  GLU193     -0.2457
     71  OE2       21.7880    9.0190    4.2390 O.co2 193  GLU193     -0.2457
     72  N         19.5000   11.7820    5.8550 N.am  194  MET194     -0.1977
     73  CA        18.4350   12.0580    4.8910 C.3   194  MET194      0.1605
     74  C         18.6380   11.8550    3.3880 C.2   194  MET194      0.2287
     75  O         17.6540   11.7300    2.6560 O.2   194  MET194     -0.2864
     76  CB        17.9410   13.4950    5.1110 C.3   194  MET194      0.0413
     77  CG        17.3180   13.7520    6.4920 C.3   194  MET194      0.0598
     78  SD        16.7880   15.4630    6.7960 S.3   194  MET194     -0.1393
     79  CE        15.3230   15.5570    5.7580 C.3   194  MET194      0.0692
     80  N         26.7620   13.2780   15.1960 N.3   217  VAL217     -0.1245
     81  CA        26.6700   14.4880   16.0160 C.3   217  VAL217      0.1561
     82  C         26.1590   14.2210   17.4340 C.2   217  VAL217      0.2260
     83  O         26.3370   15.0440   18.3370 O.2   217  VAL217     -0.2867
     84  CB        25.7550   15.5460   15.3560 C.3   217  VAL217      0.0252
     85  CG1       26.3260   15.9600   14.0060 C.3   217  VAL217      0.0019
     86  CG2       24.3450   14.9940   15.1970 C.3   217  VAL217      0.0019
@<TRIPOS>BOND
     1    75    74    2
     2    74    73    1
     3    71    69   ar
     4    70    69   ar
     5    21    20    2
     6    73    76    1
     7    73    72    1
     8    69    68    1
     9    76    77    1
    10    20    19    1
    11    18    19    1
    12    79    78    1
    13    72    65   am
    14    19    22    1
    15    77    78    1
    16    68    67    1
    17    65    66    2
    18    65    64    1
    19    67    64    1
    20    22    23    1
    21    23    24    1
    22    64    63    1
    23     1     2    1
    24    27    28    1
    25    63    59   am
    26     4     3    2
    27    24    25    1
    28     6     5    1
    29     2     3    1
    30     2     5    1
    31    26    25    1
    32    31    28    1
    33    31    32    1
    34     3     8   am
    35    28    29    1
    36     7     5    1
    37    59    60    2
    38    59    58    1
    39    13    12    1
    40    12     9    1
    41    33    32   ar
    42    33    35   ar
    43    32    34   ar
    44    58    57    1
    45    58    61    1
    46     8     9    1
    47    62    61    1
    48     9    10    1
    49    29    30    2
    50    35    37   ar
    51    34    36   ar
    52    45    44    2
    53    10    14   am
    54    10    11    2
    55    37    36   ar
    56    14    15    1
    57    38    39    1
    58    42    43    1
    59    42    39    1
    60    44    43    1
    61    44    46   am
    62    39    40    1
    63    85    84    1
    64    17    16    2
    65    15    16    1
    66    80    81    1
    67    86    84    1
    68    54    56   ar
    69    54    52   ar
    70    40    47   am
    71    40    41    2
    72    84    81    1
    73    56    55   ar
    74    47    48    1
    75    81    82    1
    76    52    51    1
    77    52    53   ar
    78    55    53   ar
    79    51    48    1
    80    48    49    1
    81    82    83    2
    82    49    50    2
