@<TRIPOS>MOLECULE
tmp/3qpbC00.pdb
 103 96 0 0 0
SMALL
GASTEIGER

@<TRIPOS>ATOM
      1  N         25.8290   18.0300    2.2990 N.3    26  GLY26      -0.1210
      2  CA        24.4920   18.5910    2.1940 C.3    26  GLY26       0.1956
      3  C         24.5270   20.1070    2.2580 C.2    26  GLY26       0.2611
      4  O         23.8110   20.8020    1.5310 O.2    26  GLY26      -0.2717
      5  N         25.3870   20.6220    3.1290 N.am   27  ASP27      -0.1973
      6  CA        25.5330   22.0530    3.3440 C.3    27  ASP27       0.1709
      7  C         26.4510   22.7360    2.3300 C.2    27  ASP27       0.2293
      8  O         27.6230   22.3840    2.2090 O.2    27  ASP27      -0.2864
      9  CB        26.0690   22.2810    4.7610 C.3    27  ASP27       0.1436
     10  CG        26.1350   23.7460    5.1420 C.2    27  ASP27       0.3671
     11  OD1       25.7430   24.6130    4.3290 O.co2  27  ASP27      -0.2456
     12  OD2       26.5830   24.0240    6.2760 O.co2  27  ASP27      -0.2456
     13  N         29.8250   23.8870    3.4570 N.3    30  ARG30      -0.1245
     14  CA        30.8630   22.9010    3.7380 C.3    30  ARG30       0.1563
     15  C         31.7520   22.6300    2.5130 C.2    30  ARG30       0.2260
     16  O         32.8280   22.0510    2.6420 O.2    30  ARG30      -0.2867
     17  CB        30.2210   21.5910    4.2240 C.3    30  ARG30       0.0307
     18  CG        31.1920   20.5670    4.8240 C.3    30  ARG30       0.0489
     19  CD        30.4520   19.2870    5.2260 C.3    30  ARG30       0.2205
     20  NE        29.4080   19.5600    6.2130 N.pl3  30  ARG30      -0.0865
     21  CZ        28.2270   18.9470    6.2540 C.cat  30  ARG30       0.5346
     22  NH1       27.9200   18.0120    5.3620 N.pl3  30  ARG30       0.1354
     23  NH2       27.3440   19.2820    7.1850 N.pl3  30  ARG30       0.1354
     24  N         22.1920   20.1870   -0.6970 N.3    68  GLY68      -0.1210
     25  CA        21.0850   20.7880    0.0190 C.3    68  GLY68       0.1956
     26  C         20.5090   19.6480    0.8410 C.2    68  GLY68       0.2611
     27  O         21.0150   18.5250    0.7800 O.2    68  GLY68      -0.2717
     28  N         19.4580   19.9150    1.6030 N.am   69  ILE69      -0.1979
     29  CA        18.8450   18.8880    2.4380 C.3    69  ILE69       0.1595
     30  C         17.7420   18.1520    1.6900 C.2    69  ILE69       0.2287
     31  O         16.8840   18.7830    1.0720 O.2    69  ILE69      -0.2864
     32  CB        18.2240   19.5080    3.7100 C.3    69  ILE69       0.0276
     33  CG1       19.3240   20.1010    4.5940 C.3    69  ILE69       0.0022
     34  CG2       17.4340   18.4540    4.4790 C.3    69  ILE69       0.0022
     35  CD1       18.7780   20.9010    5.7860 C.3    69  ILE69       0.0001
     36  N         28.9820   10.8110   -0.5340 N.3    91  ARG91      -0.1245
     37  CA        28.3000   11.8090    0.2740 C.3    91  ARG91       0.1563
     38  C         29.0160   11.8850    1.6150 C.2    91  ARG91       0.2260
     39  O         29.4200   10.8640    2.1680 O.2    91  ARG91      -0.2867
     40  CB        26.8290   11.4270    0.5050 C.3    91  ARG91       0.0307
     41  CG        26.1850   12.1960    1.6570 C.3    91  ARG91       0.0489
     42  CD        24.6810   11.9640    1.7540 C.3    91  ARG91       0.2205
     43  NE        24.1890   12.2330    3.1040 N.pl3  91  ARG91      -0.0865
     44  CZ        24.2660   13.4100    3.7230 C.cat  91  ARG91       0.5346
     45  NH1       24.8090   14.4610    3.1190 N.pl3  91  ARG91       0.1354
     46  NH2       23.8150   13.5260    4.9660 N.pl3  91  ARG91       0.1354
     47  N         28.2700   13.6660    5.2380 N.3    93  GLY93      -0.1210
     48  CA        27.3260   14.4670    5.9890 C.3    93  GLY93       0.1956
     49  C         27.4010   14.3010    7.4870 C.2    93  GLY93       0.2612
     50  O         28.4410   13.9470    8.0450 O.2    93  GLY93      -0.2717
     51  N         26.2740   14.5860    8.1280 N.am   94  THR94      -0.1952
     52  CA        26.1370   14.4680    9.5690 C.3    94  THR94       0.1897
     53  C         25.0020   13.4820    9.7890 C.2    94  THR94       0.2313
     54  O         24.1670   13.2850    8.9100 O.2    94  THR94      -0.2863
     55  CB        25.7960   15.8270   10.2090 C.3    94  THR94       0.1794
     56  OG1       24.6620   16.4040    9.5480 O.3    94  THR94      -0.2208
     57  CG2       26.9880   16.7800   10.0790 C.3    94  THR94       0.0378
     58  N         15.0370    9.6560    5.7420 N.3   159  LYS159     -0.1245
     59  CA        13.6930   10.1510    6.0030 C.3   159  LYS159      0.1561
     60  C         13.5320   11.4590    5.2500 C.2   159  LYS159      0.2260
     61  O         14.5240   12.0520    4.8270 O.2   159  LYS159     -0.2867
     62  CB        13.5590   10.4330    7.4970 C.3   159  LYS159      0.0271
     63  CG        14.6100   11.4530    7.9640 C.3   159  LYS159      0.0035
     64  CD        14.5810   11.7070    9.4590 C.3   159  LYS159      0.0206
     65  CE        15.6910   12.6750    9.8660 C.3   159  LYS159      0.1093
     66  NZ        17.0590   12.0950    9.6450 N.3   159  LYS159     -0.1314
     67  N         12.7990   15.8690    8.8510 N.3   162  PHE162     -0.1241
     68  CA        13.7630   15.9850    9.9400 C.3   162  PHE162      0.1605
     69  C         13.0490   16.0470   11.2850 C.2   162  PHE162      0.2264
     70  O         13.4640   15.4050   12.2490 O.2   162  PHE162     -0.2867
     71  CB        14.6020   17.2520    9.7820 C.3   162  PHE162      0.0534
     72  CG        15.6120   17.4480   10.8800 C.ar  162  PHE162     -0.0203
     73  CD1       16.8570   16.8350   10.8150 C.ar  162  PHE162     -0.0042
     74  CD2       15.3120   18.2380   11.9830 C.ar  162  PHE162     -0.0042
     75  CE1       17.7950   17.0080   11.8360 C.ar  162  PHE162     -0.0003
     76  CE2       16.2420   18.4160   13.0090 C.ar  162  PHE162     -0.0003
     77  CZ        17.4850   17.8000   12.9320 C.ar  162  PHE162     -0.0000
     78  N         19.8800    9.8290    8.8650 N.3   193  GLU193     -0.1231
     79  CA        20.2550   10.9800    8.0560 C.3   193  GLU193      0.1699
     80  C         19.1690   11.2000    7.0050 C.2   193  GLU193      0.2592
     81  O         18.0180   10.8170    7.2310 O.2   193  GLU193     -0.2718
     82  CB        21.6370   10.7890    7.4190 C.3   193  GLU193      0.0402
     83  CG        21.7950    9.5710    6.5430 C.3   193  GLU193      0.1161
     84  CD        21.9330    9.9290    5.0770 C.2   193  GLU193      0.3649
     85  OE1       22.1980   11.1100    4.7620 O.co2 193  GLU193     -0.2457
     86  OE2       21.7880    9.0190    4.2390 O.co2 193  GLU193     -0.2457
     87  N         19.5000   11.7820    5.8550 N.am  194  MET194     -0.1965
     88  CA        18.4350   12.0580    4.8910 C.3   194  MET194      0.1736
     89  C         18.6380   11.8550    3.3880 C.2   194  MET194      0.2616
     90  O         17.6540   11.7300    2.6560 O.2   194  MET194     -0.2715
     91  CB        17.9410   13.4950    5.1110 C.3   194  MET194      0.0427
     92  CG        17.3180   13.7520    6.4920 C.3   194  MET194      0.0599
     93  SD        16.7880   15.4630    6.7960 S.3   194  MET194     -0.1393
     94  CE        15.3230   15.5570    5.7580 C.3   194  MET194      0.0692
     95  N         19.8800   11.8050    2.9180 N.am  195  GLU195     -0.1977
     96  CA        20.1100   11.7100    1.4760 C.3   195  GLU195      0.1602
     97  C         20.6260   10.4230    0.8280 C.2   195  GLU195      0.2287
     98  O         20.5190   10.2760   -0.3880 O.2   195  GLU195     -0.2864
     99  CB        21.0480   12.8470    1.0350 C.3   195  GLU195      0.0415
    100  CG        20.5430   14.2830    1.2450 C.3   195  GLU195      0.1163
    101  CD        20.6900   14.7790    2.6780 C.2   195  GLU195      0.3649
    102  OE1       21.6220   14.3270    3.3840 O.co2 195  GLU195     -0.2457
    103  OE2       19.8830   15.6390    3.0930 O.co2 195  GLU195     -0.2457
@<TRIPOS>BOND
     1    24    25    1
     2    36    37    1
     3    98    97    2
     4    25    26    1
     5    37    40    1
     6    37    38    1
     7    40    41    1
     8    27    26    2
     9    97    96    1
    10    26    28   am
    11    99   100    1
    12    99    96    1
    13    31    30    2
    14   100   101    1
    15    96    95    1
    16     4     3    2
    17    28    29    1
    18    38    39    2
    19    41    42    1
    20    30    29    1
    21    42    43    1
    22     2     3    1
    23     2     1    1
    24     8     7    2
    25     3     5   am
    26     7     6    1
    27    29    32    1
    28    15    16    2
    29    15    14    1
    30    90    89    2
    31   101   103   ar
    32   101   102   ar
    33    95    89   am
    34    43    44    2
    35    45    44    1
    36     5     6    1
    37     6     9    1
    38    89    88    1
    39    13    14    1
    40    32    34    1
    41    32    33    1
    42    44    46    1
    43    14    17    1
    44    17    18    1
    45    86    84   ar
    46    11    10   ar
    47    33    35    1
    48     9    10    1
    49    85    84   ar
    50    18    19    1
    51    61    60    2
    52    88    91    1
    53    88    87    1
    54    84    83    1
    55    91    92    1
    56    10    12   ar
    57    19    20    1
    58    47    48    1
    59    60    59    1
    60    22    21    1
    61    58    59    1
    62    94    93    1
    63    87    80   am
    64    48    49    1
    65    59    62    1
    66    20    21    2
    67    21    23    1
    68    92    93    1
    69    83    82    1
    70    80    81    2
    71    80    79    1
    72    82    79    1
    73    49    50    2
    74    49    51   am
    75    62    63    1
    76    63    64    1
    77    79    78    1
    78    51    52    1
    79    67    68    1
    80    54    53    2
    81    64    65    1
    82    56    55    1
    83    52    53    1
    84    52    55    1
    85    66    65    1
    86    71    68    1
    87    71    72    1
    88    68    69    1
    89    57    55    1
    90    73    72   ar
    91    73    75   ar
    92    72    74   ar
    93    69    70    2
    94    75    77   ar
    95    74    76   ar
    96    77    76   ar
