@<TRIPOS>MOLECULE
tmp/3qpeB00.pdb
 143 133 0 0 0
SMALL
GASTEIGER

@<TRIPOS>ATOM
      1  N         56.2190  -18.5270   -8.9160 N.3    26  ASN26      -0.1240
      2  CA        55.7380  -18.2750  -10.2640 C.3    26  ASN26       0.1653
      3  C         54.2730  -17.8330  -10.2030 C.2    26  ASN26       0.2266
      4  O         53.7370  -17.5880   -9.1210 O.2    26  ASN26      -0.2867
      5  CB        55.9680  -19.4730  -11.2130 C.3    26  ASN26       0.1155
      6  CG        55.0110  -20.6290  -10.9700 C.2    26  ASN26       0.2627
      7  OD1       54.0380  -20.5160  -10.2250 O.2    26  ASN26      -0.2716
      8  ND2       55.2950  -21.7700  -11.6140 N.am   26  ASN26      -0.0877
      9  N         51.4710  -19.2710  -10.3130 N.3    28  ARG28      -0.1231
     10  CA        50.4800  -20.0720   -9.5980 C.3    28  ARG28       0.1694
     11  C         50.9230  -20.6130   -8.2300 C.2    28  ARG28       0.2591
     12  O         50.0790  -20.8730   -7.3830 O.2    28  ARG28      -0.2718
     13  CB        49.9820  -21.2180  -10.4750 C.3    28  ARG28       0.0321
     14  CG        51.0900  -22.1570  -10.9660 C.3    28  ARG28       0.0489
     15  CD        50.5100  -23.3420  -11.7280 C.3    28  ARG28       0.2205
     16  NE        49.7330  -24.2020  -10.8450 N.pl3  28  ARG28      -0.0865
     17  CZ        50.2490  -25.1550  -10.0750 C.cat  28  ARG28       0.5346
     18  NH1       49.4560  -25.8800   -9.2960 N.pl3  28  ARG28       0.1354
     19  NH2       51.5600  -25.3660  -10.0590 N.pl3  28  ARG28       0.1354
     20  N         52.2260  -20.7740   -8.0150 N.am   29  ILE29      -0.1980
     21  CA        52.7250  -21.3330   -6.7460 C.3    29  ILE29       0.1595
     22  C         53.9250  -20.6020   -6.1410 C.2    29  ILE29       0.2287
     23  O         54.4560  -19.6540   -6.7210 O.2    29  ILE29      -0.2864
     24  CB        53.0440  -22.8370   -6.8510 C.3    29  ILE29       0.0276
     25  CG1       54.1570  -23.1090   -7.8700 C.3    29  ILE29       0.0022
     26  CG2       51.7980  -23.6350   -7.2260 C.3    29  ILE29       0.0022
     27  CD1       54.5610  -24.5990   -7.9560 C.3    29  ILE29       0.0001
     28  N         60.2790  -21.9420   -5.4220 N.3    32  HIS32      -0.1241
     29  CA        60.7150  -23.2470   -5.9050 C.3    32  HIS32       0.1621
     30  C         62.0110  -23.6960   -5.2530 C.2    32  HIS32       0.2264
     31  O         62.2820  -24.8910   -5.1670 O.2    32  HIS32      -0.2867
     32  CB        60.8810  -23.2110   -7.4110 C.3    32  HIS32       0.0745
     33  CG        59.5830  -23.1200   -8.1420 C.ar   32  HIS32       0.0817
     34  ND1       58.7390  -22.0400   -8.0140 N.ar   32  HIS32      -0.2268
     35  CD2       58.9590  -23.9940   -8.9610 C.ar   32  HIS32       0.1154
     36  CE1       57.6580  -22.2450   -8.7480 C.ar   32  HIS32       0.1986
     37  NE2       57.7700  -23.4200   -9.3360 N.ar   32  HIS32      -0.2212
     38  N         65.9260  -20.2780  -18.2770 N.3   118  THR118     -0.1218
     39  CA        64.5540  -20.3550  -17.7700 C.3   118  THR118      0.1862
     40  C         64.4270  -19.9350  -16.3020 C.2   118  THR118      0.2287
     41  O         63.3670  -20.0700  -15.7030 O.2   118  THR118     -0.2866
     42  CB        64.0080  -21.7790  -17.8910 C.3   118  THR118      0.1770
     43  OG1       62.5730  -21.7720  -17.8260 O.3   118  THR118     -0.2211
     44  CG2       64.5660  -22.6410  -16.7830 C.3   118  THR118      0.0375
     45  N         62.4920  -16.0840  -12.2200 N.3   121  TYR121     -0.1241
     46  CA        61.2330  -16.2670  -11.5040 C.3   121  TYR121      0.1605
     47  C         60.8150  -14.9670  -10.8150 C.2   121  TYR121      0.2264
     48  O         61.4300  -13.9240  -11.0470 O.2   121  TYR121     -0.2867
     49  CB        61.3610  -17.4330  -10.5080 C.3   121  TYR121      0.0534
     50  CG        61.0930  -18.7850  -11.1440 C.ar  121  TYR121     -0.0201
     51  CD1       61.9180  -19.2850  -12.1530 C.ar  121  TYR121     -0.0009
     52  CD2       60.0060  -19.5590  -10.7480 C.ar  121  TYR121     -0.0009
     53  CE1       61.6630  -20.5280  -12.7490 C.ar  121  TYR121      0.0417
     54  CE2       59.7510  -20.7890  -11.3310 C.ar  121  TYR121      0.0417
     55  CZ        60.5810  -21.2670  -12.3350 C.ar  121  TYR121      0.1957
     56  OH        60.3110  -22.4900  -12.9160 O.3   121  TYR121     -0.2866
     57  N         63.6180  -16.7900  -20.7140 N.3   153  LYS153     -0.1245
     58  CA        62.1960  -16.8900  -20.4140 C.3   153  LYS153      0.1561
     59  C         61.9050  -16.2630  -19.0520 C.2   153  LYS153      0.2260
     60  O         62.5050  -16.6210  -18.0390 O.2   153  LYS153     -0.2867
     61  CB        61.6930  -18.3320  -20.4560 C.3   153  LYS153      0.0271
     62  CG        60.1660  -18.4220  -20.4750 C.3   153  LYS153      0.0035
     63  CD        59.6650  -19.8020  -20.8890 C.3   153  LYS153      0.0206
     64  CE        59.8930  -20.8310  -19.8020 C.3   153  LYS153      0.1093
     65  NZ        59.4910  -22.1790  -20.2590 N.3   153  LYS153     -0.1314
     66  N         59.2220  -15.3040  -16.0410 N.3   155  LYS155     -0.1245
     67  CA        57.9420  -15.6120  -15.4250 C.3   155  LYS155      0.1561
     68  C         57.1260  -14.3360  -15.2470 C.2   155  LYS155      0.2260
     69  O         57.6340  -13.3260  -14.7550 O.2   155  LYS155     -0.2867
     70  CB        58.1510  -16.2950  -14.0770 C.3   155  LYS155      0.0271
     71  CG        58.8040  -17.6730  -14.1590 C.3   155  LYS155      0.0035
     72  CD        57.8930  -18.6830  -14.8300 C.3   155  LYS155      0.0206
     73  CE        58.5660  -20.0520  -14.9040 C.3   155  LYS155      0.1093
     74  NZ        57.7410  -21.0760  -15.5850 N.3   155  LYS155     -0.1314
     75  N         56.1310  -16.4970  -19.6010 N.3   192  ASP192     -0.1239
     76  CA        55.3510  -17.6350  -19.1440 C.3   192  ASP192      0.1674
     77  C         54.4990  -17.1860  -17.9520 C.2   192  ASP192      0.2266
     78  O         55.0350  -16.8210  -16.9210 O.2   192  ASP192     -0.2867
     79  CB        56.3210  -18.7380  -18.7190 C.3   192  ASP192      0.1410
     80  CG        55.6290  -20.0130  -18.2880 C.2   192  ASP192      0.3668
     81  OD1       54.3910  -20.0400  -18.1500 O.co2 192  ASP192     -0.2456
     82  OD2       56.3570  -20.9950  -18.0530 O.co2 192  ASP192     -0.2456
     83  N         52.1970  -19.0760  -16.3860 N.3   194  ASN194     -0.1240
     84  CA        51.7060  -20.2090  -15.6250 C.3   194  ASN194      0.1653
     85  C         50.2110  -20.0940  -15.3700 C.2   194  ASN194      0.2266
     86  O         49.7270  -20.2900  -14.2500 O.2   194  ASN194     -0.2867
     87  CB        52.4990  -20.3960  -14.3340 C.3   194  ASN194      0.1155
     88  CG        53.8670  -20.9890  -14.5890 C.2   194  ASN194      0.2627
     89  OD1       54.8700  -20.2770  -14.5980 O.2   194  ASN194     -0.2716
     90  ND2       53.9120  -22.2960  -14.8300 N.am  194  ASN194     -0.0877
     91  N         53.7770  -18.2660  -23.2800 N.3   218  GLU218     -0.1245
     92  CA        53.6190  -19.6050  -22.7490 C.3   218  GLU218      0.1567
     93  C         52.5430  -19.6170  -21.6710 C.2   218  GLU218      0.2260
     94  O         52.6040  -18.8410  -20.7230 O.2   218  GLU218     -0.2867
     95  CB        54.9680  -20.0800  -22.1790 C.3   218  GLU218      0.0388
     96  CG        54.9320  -21.4520  -21.5360 C.3   218  GLU218      0.1160
     97  CD        56.3240  -22.0330  -21.3470 C.2   218  GLU218      0.3649
     98  OE1       57.2770  -21.5520  -21.9930 O.co2 218  GLU218     -0.2457
     99  OE2       56.4670  -22.9870  -20.5610 O.co2 218  GLU218     -0.2457
    100  N         52.6230  -28.2740  -21.0950 N.3   248  GLU248     -0.1245
    101  CA        53.1220  -28.9260  -19.8760 C.3   248  GLU248      0.1567
    102  C         51.9770  -29.2960  -18.9300 C.2   248  GLU248      0.2260
    103  O         50.8250  -28.9240  -19.1550 O.2   248  GLU248     -0.2867
    104  CB        54.1220  -28.0140  -19.1550 C.3   248  GLU248      0.0388
    105  CG        53.4630  -26.8400  -18.4470 C.3   248  GLU248      0.1160
    106  CD        54.4580  -25.8520  -17.9020 C.2   248  GLU248      0.3649
    107  OE1       54.4160  -25.5780  -16.6850 O.co2 248  GLU248     -0.2457
    108  OE2       55.2810  -25.3490  -18.6880 O.co2 248  GLU248     -0.2457
    109  N         59.1570  -29.2450  -22.3060 N.3   296  HIS296     -0.1241
    110  CA        59.3070  -28.6720  -20.9830 C.3   296  HIS296      0.1621
    111  C         60.3780  -29.4330  -20.1930 C.2   296  HIS296      0.2264
    112  O         60.4640  -30.6700  -20.2530 O.2   296  HIS296     -0.2867
    113  CB        57.9610  -28.7040  -20.2590 C.3   296  HIS296      0.0745
    114  CG        58.0410  -28.3630  -18.8050 C.ar  296  HIS296      0.0817
    115  ND1       58.3050  -29.3060  -17.8350 N.ar  296  HIS296     -0.2268
    116  CD2       57.8720  -27.1890  -18.1520 C.ar  296  HIS296      0.1154
    117  CE1       58.3030  -28.7270  -16.6470 C.ar  296  HIS296      0.1986
    118  NE2       58.0450  -27.4410  -16.8120 N.ar  296  HIS296     -0.2212
    119  N         61.8280  -28.6790  -16.2200 N.3   298  TYR298     -0.1227
    120  CA        62.1280  -27.9520  -14.9990 C.3   298  TYR298      0.1736
    121  C         61.9500  -28.8770  -13.8000 C.2   298  TYR298      0.2596
    122  O         60.9650  -29.6100  -13.7210 O.2   298  TYR298     -0.2718
    123  CB        61.2720  -26.6780  -14.8690 C.3   298  TYR298      0.0548
    124  CG        61.8060  -25.7560  -13.8170 C.ar  298  TYR298     -0.0200
    125  CD1       62.7810  -24.8230  -14.1210 C.ar  298  TYR298     -0.0009
    126  CD2       61.3720  -25.8480  -12.5050 C.ar  298  TYR298     -0.0009
    127  CE1       63.2910  -23.9830  -13.1520 C.ar  298  TYR298      0.0417
    128  CE2       61.8760  -25.0110  -11.5290 C.ar  298  TYR298      0.0417
    129  CZ        62.8300  -24.0870  -11.8590 C.ar  298  TYR298      0.1957
    130  OH        63.3320  -23.2760  -10.8860 O.3   298  TYR298     -0.2866
    131  N         62.9180  -28.8600  -12.8870 N.am  299  GLY299     -0.1957
    132  CA        62.8470  -29.6680  -11.6760 C.3   299  GLY299      0.1869
    133  C         63.5680  -30.9980  -11.8320 C.2   299  GLY299      0.2309
    134  O         63.6350  -31.8200  -10.9070 O.2   299  GLY299     -0.2863
    135  N         65.4080  -26.0730  -22.7100 N.3   321  GLU321     -0.1245
    136  CA        65.0890  -25.2480  -21.5450 C.3   321  GLU321      0.1567
    137  C         66.1310  -25.4540  -20.4510 C.2   321  GLU321      0.2260
    138  O         66.2210  -26.5220  -19.8410 O.2   321  GLU321     -0.2867
    139  CB        63.6810  -25.5470  -21.0140 C.3   321  GLU321      0.0388
    140  CG        63.2530  -24.6370  -19.8630 C.3   321  GLU321      0.1160
    141  CD        61.8090  -24.8500  -19.4270 C.2   321  GLU321      0.3649
    142  OE1       61.1390  -25.7680  -19.9500 O.co2 321  GLU321     -0.2457
    143  OE2       61.3430  -24.0860  -18.5550 O.co2 321  GLU321     -0.2457
@<TRIPOS>BOND
     1    91    92    1
     2    92    95    1
     3    92    93    1
     4   135   136    1
     5   109   110    1
     6    95    96    1
     7    98    97   ar
     8    93    94    2
     9   136   139    1
    10   136   137    1
    11    96    97    1
    12    97    99   ar
    13   100   101    1
    14   139   140    1
    15   110   113    1
    16   110   111    1
    17    63    62    1
    18    63    64    1
    19    57    58    1
    20    62    61    1
    21    61    58    1
    22   137   138    2
    23    58    59    1
    24   113   114    1
    25    65    64    1
    26   112   111    2
    27   142   141   ar
    28   101   104    1
    29   101   102    1
    30   140   141    1
    31    75    76    1
    32   141   143   ar
    33   103   102    2
    34   104   105    1
    35    76    79    1
    36    76    77    1
    37    59    60    2
    38   114   116   ar
    39   114   115   ar
    40    79    80    1
    41   108   106   ar
    42   105   106    1
    43    80    81   ar
    44    80    82   ar
    45    38    39    1
    46   116   118   ar
    47    77    78    2
    48   106   107   ar
    49    42    43    1
    50    42    39    1
    51    42    44    1
    52   115   117   ar
    53    39    40    1
    54   118   117   ar
    55    83    84    1
    56    40    41    2
    57   119   120    1
    58    66    67    1
    59    84    85    1
    60    84    87    1
    61    74    73    1
    62    67    68    1
    63    67    70    1
    64    85    86    2
    65    68    69    2
    66   120   123    1
    67   120   121    1
    68    73    72    1
    69   123   124    1
    70    90    88   am
    71    72    71    1
    72    89    88    2
    73    88    87    1
    74    71    70    1
    75   125   124   ar
    76   125   127   ar
    77   124   126   ar
    78   121   122    2
    79   121   131   am
    80   127   129   ar
    81    56    55    1
    82   131   132    1
    83    53    55   ar
    84    53    51   ar
    85   126   128   ar
    86    55    54   ar
    87    45    46    1
    88    51    50   ar
    89   129   128   ar
    90   129   130    1
    91   133   132    1
    92   133   134    2
    93    15    14    1
    94    15    16    1
    95     8     6   am
    96    46    47    1
    97    46    49    1
    98    54    52   ar
    99     5     6    1
   100     5     2    1
   101    50    52   ar
   102    50    49    1
   103    48    47    2
   104     6     7    2
   105    14    13    1
   106    16    17    2
   107    13    10    1
   108     9    10    1
   109     2     3    1
   110     2     1    1
   111     3     4    2
   112    17    19    1
   113    17    18    1
   114    10    11    1
   115    37    35   ar
   116    37    36   ar
   117    35    33   ar
   118    36    34   ar
   119    11    20   am
   120    11    12    2
   121    33    34   ar
   122    33    32    1
   123    20    21    1
   124    27    25    1
   125    25    24    1
   126    32    29    1
   127    26    24    1
   128    24    21    1
   129    21    22    1
   130    23    22    2
   131    29    28    1
   132    29    30    1
   133    30    31    2
