@<TRIPOS>MOLECULE
tmp/3qphA00.pdb
 113 111 0 0 0
SMALL
GASTEIGER

@<TRIPOS>ATOM
      1  N         70.0470  -65.5750    7.2100 N.3   218  PHE218     -0.1241
      2  CA        70.3850  -64.5260    6.2460 C.3   218  PHE218      0.1605
      3  C         69.2680  -64.2920    5.2310 C.2   218  PHE218      0.2264
      4  O         68.8020  -63.1670    5.0360 O.2   218  PHE218     -0.2867
      5  CB        71.6720  -64.8190    5.4820 C.3   218  PHE218      0.0534
      6  CG        72.1130  -63.6690    4.6360 C.ar  218  PHE218     -0.0203
      7  CD1       73.2810  -62.9850    4.9200 C.ar  218  PHE218     -0.0042
      8  CD2       71.3250  -63.2300    3.5880 C.ar  218  PHE218     -0.0042
      9  CE1       73.6620  -61.9070    4.1540 C.ar  218  PHE218     -0.0003
     10  CE2       71.7020  -62.1650    2.8210 C.ar  218  PHE218     -0.0003
     11  CZ        72.8660  -61.4970    3.1030 C.ar  218  PHE218     -0.0000
     12  N         66.3540  -62.7340    7.2780 N.3   221  TYR221     -0.1227
     13  CA        66.6650  -61.4180    7.8050 C.3   221  TYR221      0.1736
     14  C         66.5050  -60.4450    6.6610 C.2   221  TYR221      0.2596
     15  O         65.8870  -59.3800    6.7940 O.2   221  TYR221     -0.2718
     16  CB        68.0890  -61.3810    8.3590 C.3   221  TYR221      0.0548
     17  CG        68.4710  -60.1000    9.0910 C.ar  221  TYR221     -0.0200
     18  CD1       69.3150  -59.1690    8.5020 C.ar  221  TYR221     -0.0009
     19  CD2       68.0020  -59.8300   10.3700 C.ar  221  TYR221     -0.0009
     20  CE1       69.6850  -58.0130    9.1600 C.ar  221  TYR221      0.0417
     21  CE2       68.3650  -58.6710   11.0330 C.ar  221  TYR221      0.0417
     22  CZ        69.2070  -57.7710   10.4210 C.ar  221  TYR221      0.1957
     23  OH        69.5880  -56.6210   11.0570 O.3   221  TYR221     -0.2866
     24  N         67.0390  -60.8450    5.5130 N.am  222  SER222     -0.1952
     25  CA        66.9690  -60.0310    4.3040 C.3   222  SER222      0.1924
     26  C         65.5390  -59.8440    3.8310 C.2   222  SER222      0.2314
     27  O         65.1310  -58.7220    3.5030 O.2   222  SER222     -0.2863
     28  CB        67.8590  -60.6280    3.2370 C.3   222  SER222      0.2116
     29  OG        69.2030  -60.6050    3.7070 O.3   222  SER222     -0.2180
     30  N         63.8710  -57.1710    6.0940 N.3   225  ILE225     -0.1245
     31  CA        64.2870  -55.8400    5.7040 C.3   225  ILE225      0.1561
     32  C         63.4850  -55.3430    4.4930 C.2   225  ILE225      0.2260
     33  O         63.1820  -54.1450    4.3880 O.2   225  ILE225     -0.2867
     34  CB        65.7740  -55.8230    5.3550 C.3   225  ILE225      0.0252
     35  CG1       66.5440  -56.6270    6.4040 C.3   225  ILE225      0.0019
     36  CG2       66.2810  -54.3650    5.1190 C.3   225  ILE225      0.0019
     37  CD1       68.0550  -56.4560    6.3390 C.3   225  ILE225      0.0001
     38  N         72.3770  -50.2950    1.1220 N.3   296  ALA296     -0.1231
     39  CA        72.3530  -51.5010    1.9370 C.3   296  ALA296      0.1694
     40  C         73.1540  -51.3590    3.2600 C.2   296  ALA296      0.2592
     41  O         73.7730  -52.3100    3.7410 O.2   296  ALA296     -0.2718
     42  CB        72.8660  -52.6720    1.1190 C.3   296  ALA296      0.0304
     43  N         73.1460  -50.1670    3.8430 N.am  297  VAL297     -0.1966
     44  CA        73.8480  -49.9540    5.0990 C.3   297  VAL297      0.1727
     45  C         72.9410  -49.4400    6.2160 C.2   297  VAL297      0.2616
     46  O         72.2310  -48.4630    6.0390 O.2   297  VAL297     -0.2715
     47  CB        74.9610  -48.9370    4.9250 C.3   297  VAL297      0.0290
     48  CG1       75.4300  -48.4580    6.2850 C.3   297  VAL297      0.0023
     49  CG2       76.0940  -49.5460    4.1330 C.3   297  VAL297      0.0023
     50  N         72.9600  -50.0780    7.3740 N.am  298  ASN298     -0.1972
     51  CA        72.3160  -49.4600    8.5420 C.3   298  ASN298      0.1688
     52  C         73.1450  -49.6630    9.7790 C.2   298  ASN298      0.2292
     53  O         73.4870  -50.7840   10.1260 O.2   298  ASN298     -0.2864
     54  CB        70.9040  -49.9790    8.7620 C.3   298  ASN298      0.1181
     55  CG        70.8710  -51.4610    9.0110 C.2   298  ASN298      0.2629
     56  OD1       71.8060  -52.1830    8.6660 O.2   298  ASN298     -0.2716
     57  ND2       69.7910  -51.9300    9.6130 N.am  298  ASN298     -0.0877
     58  N         77.2350  -52.0050   13.2700 N.3   312  GLY312     -0.1210
     59  CA        76.1920  -52.4480   12.3880 C.3   312  GLY312      0.1956
     60  C         75.7200  -53.8080   12.7980 C.2   312  GLY312      0.2612
     61  O         76.4140  -54.4970   13.5270 O.2   312  GLY312     -0.2717
     62  N         74.5580  -54.2010   12.2920 N.am  313  GLY313     -0.1942
     63  CA        73.9200  -55.4360   12.6860 C.3   313  GLY313      0.2014
     64  C         74.4940  -56.7350   12.1610 C.2   313  GLY313      0.2639
     65  O         75.6890  -56.8730   11.8920 O.2   313  GLY313     -0.2714
     66  N         73.6050  -57.7110   12.0430 N.am  314  MET314     -0.1963
     67  CA        73.9730  -59.0520   11.6500 C.3   314  MET314      0.1736
     68  C         74.7140  -59.0330   10.3230 C.2   314  MET314      0.2616
     69  O         74.2800  -58.3870    9.3510 O.2   314  MET314     -0.2715
     70  CB        72.7060  -59.8880   11.5420 C.3   314  MET314      0.0427
     71  CG        72.9430  -61.3670   11.3750 C.3   314  MET314      0.0599
     72  SD        71.4400  -62.2900   11.7620 S.3   314  MET314     -0.1393
     73  CE        70.2100  -61.0770   11.3250 C.3   314  MET314      0.0692
     74  N         75.8460  -59.7220   10.2770 N.am  315  PHE315     -0.1960
     75  CA        76.5750  -59.8750    9.0150 C.3   315  PHE315      0.1771
     76  C         77.2920  -58.6250    8.5350 C.2   315  PHE315      0.2619
     77  O         77.7870  -58.6050    7.4260 O.2   315  PHE315     -0.2715
     78  CB        75.6440  -60.3480    7.9000 C.3   315  PHE315      0.0574
     79  CG        74.9800  -61.6530    8.1840 C.ar  315  PHE315     -0.0200
     80  CD1       75.7380  -62.7860    8.4410 C.ar  315  PHE315     -0.0042
     81  CD2       73.6020  -61.7520    8.1980 C.ar  315  PHE315     -0.0042
     82  CE1       75.1340  -64.0000    8.7030 C.ar  315  PHE315     -0.0003
     83  CE2       72.9950  -62.9580    8.4630 C.ar  315  PHE315     -0.0003
     84  CZ        73.7650  -64.0870    8.7090 C.ar  315  PHE315     -0.0000
     85  N         77.3500  -57.5910    9.3570 N.am  316  ALA316     -0.1963
     86  CA        78.0620  -56.3850    8.9730 C.3   316  ALA316      0.1728
     87  C         79.5240  -56.6550    8.6240 C.2   316  ALA316      0.2616
     88  O         80.1550  -57.5540    9.1860 O.2   316  ALA316     -0.2715
     89  CB        77.9460  -55.3050   10.0570 C.3   316  ALA316      0.0334
     90  N         80.0360  -55.8600    7.6810 N.am  317  VAL317     -0.1963
     91  CA        81.4100  -55.9640    7.2010 C.3   317  VAL317      0.1727
     92  C         82.1590  -54.6150    7.1410 C.2   317  VAL317      0.2616
     93  O         83.3810  -54.5800    7.2270 O.2   317  VAL317     -0.2715
     94  CB        81.4620  -56.6540    5.8190 C.3   317  VAL317      0.0290
     95  CG1       80.8210  -58.0260    5.8840 C.3   317  VAL317      0.0023
     96  CG2       80.7510  -55.8170    4.7690 C.3   317  VAL317      0.0023
     97  N         81.4390  -53.5070    7.0170 N.am  318  ILE318     -0.1963
     98  CA        82.1050  -52.2180    6.8140 C.3   318  ILE318      0.1727
     99  C         82.1890  -51.3350    8.0410 C.2   318  ILE318      0.2616
    100  O         82.9940  -50.4080    8.0820 O.2   318  ILE318     -0.2715
    101  CB        81.4540  -51.3540    5.6930 C.3   318  ILE318      0.0290
    102  CG1       80.1990  -50.6650    6.2230 C.3   318  ILE318      0.0022
    103  CG2       81.1510  -52.1860    4.4830 C.3   318  ILE318      0.0023
    104  CD1       79.6780  -49.6080    5.3200 C.3   318  ILE318      0.0001
    105  N         81.3510  -51.5850    9.0330 N.am  319  GLU319     -0.1977
    106  CA        81.4850  -50.8520   10.2760 C.3   319  GLU319      0.1602
    107  C         82.6060  -51.4340   11.1550 C.2   319  GLU319      0.2287
    108  O         83.2560  -52.4220   10.7720 O.2   319  GLU319     -0.2864
    109  CB        80.1560  -50.8410   10.9860 C.3   319  GLU319      0.0415
    110  CG        79.0690  -50.1370   10.2050 C.3   319  GLU319      0.1163
    111  CD        78.3260  -51.0730    9.2680 C.2   319  GLU319      0.3649
    112  OE1       78.6930  -52.2700    9.2200 O.co2 319  GLU319     -0.2457
    113  OE2       77.3640  -50.6120    8.6030 O.co2 319  GLU319     -0.2457
@<TRIPOS>BOND
     1    42    39    1
     2    38    39    1
     3    39    40    1
     4    10    11   ar
     5    10     8   ar
     6    11     9   ar
     7    28    29    1
     8    28    25    1
     9    40    41    2
    10    40    43   am
    11    27    26    2
    12     8     6   ar
    13    26    25    1
    14    43    44    1
    15    49    47    1
    16     9     7   ar
    17    25    24    1
    18    33    32    2
    19   103   101    1
    20    32    31    1
    21     6     7   ar
    22     6     5    1
    23    96    94    1
    24    47    44    1
    25    47    48    1
    26     4     3    2
    27    44    45    1
    28    36    34    1
    29     3     2    1
    30   104   102    1
    31    34    31    1
    32    34    35    1
    33     5     2    1
    34    24    14   am
    35   101   102    1
    36   101    98    1
    37    31    30    1
    38    94    95    1
    39    94    91    1
    40    46    45    2
    41    45    50   am
    42     2     1    1
    43    37    35    1
    44    14    15    2
    45    14    13    1
    46    98    97    1
    47    98    99    1
    48    97    92   am
    49    92    91    1
    50    92    93    2
    51    91    90    1
    52    12    13    1
    53    50    51    1
    54    77    76    2
    55    90    87   am
    56    13    16    1
    57    78    79    1
    58    78    75    1
    59    99   100    2
    60    99   105   am
    61    79    81   ar
    62    79    80   ar
    63    81    83   ar
    64    16    17    1
    65    80    82   ar
    66    83    84   ar
    67    18    17   ar
    68    18    20   ar
    69    76    75    1
    70    76    85   am
    71    51    54    1
    72    51    52    1
    73   113   111   ar
    74    87    86    1
    75    87    88    2
    76    56    55    2
    77    82    84   ar
    78    54    55    1
    79    86    85    1
    80    86    89    1
    81    55    57   am
    82    75    74    1
    83   105   106    1
    84    17    19   ar
    85    20    22   ar
    86   112   111   ar
    87   111   110    1
    88    69    68    2
    89    52    53    2
    90   110   109    1
    91   106   109    1
    92   106   107    1
    93    74    68   am
    94    68    67    1
    95    19    21   ar
    96    22    21   ar
    97    22    23    1
    98   108   107    2
    99    73    72    1
   100    71    70    1
   101    71    72    1
   102    70    67    1
   103    67    66    1
   104    65    64    2
   105    66    64   am
   106    64    63    1
   107    62    63    1
   108    62    60   am
   109    59    60    1
   110    59    58    1
   111    60    61    2
