@<TRIPOS>MOLECULE
tmp/3qpkA04.pdb
 118 115 0 0 0
SMALL
GASTEIGER

@<TRIPOS>ATOM
      1  N         -6.3150    7.8910  -41.5220 N.3   214  TYR214     -0.1241
      2  CA        -6.5010    9.3080  -41.8030 C.3   214  TYR214      0.1605
      3  C         -7.9700    9.6520  -41.8790 C.2   214  TYR214      0.2264
      4  O         -8.7540    8.8670  -42.4040 O.2   214  TYR214     -0.2867
      5  CB        -5.8730    9.6440  -43.1460 C.3   214  TYR214      0.0534
      6  CG        -4.3690    9.5330  -43.1360 C.ar  214  TYR214     -0.0201
      7  CD1       -3.5960   10.4730  -42.4710 C.ar  214  TYR214     -0.0009
      8  CD2       -3.7220    8.4920  -43.7950 C.ar  214  TYR214     -0.0009
      9  CE1       -2.2130   10.3880  -42.4550 C.ar  214  TYR214      0.0417
     10  CE2       -2.3430    8.3950  -43.7860 C.ar  214  TYR214      0.0417
     11  CZ        -1.5930    9.3490  -43.1130 C.ar  214  TYR214      0.1957
     12  OH        -0.2180    9.2630  -43.0900 O.3   214  TYR214     -0.2866
     13  N         -4.3350   24.1150  -42.6380 N.3   241  SER241     -0.1217
     14  CA        -4.2710   24.5230  -44.0310 C.3   241  SER241      0.1889
     15  C         -4.5000   23.3440  -44.9500 C.2   241  SER241      0.2288
     16  O         -4.1840   22.1990  -44.6080 O.2   241  SER241     -0.2866
     17  CB        -2.9030   25.1200  -44.3310 C.3   241  SER241      0.2089
     18  OG        -1.9070   24.2130  -43.9190 O.3   241  SER241     -0.2183
     19  N         -3.5660   21.8090  -48.6200 N.3   243  VAL243     -0.1245
     20  CA        -2.6150   21.9180  -49.7120 C.3   243  VAL243      0.1561
     21  C         -3.3040   22.3470  -51.0070 C.2   243  VAL243      0.2260
     22  O         -4.3100   21.7630  -51.4180 O.2   243  VAL243     -0.2867
     23  CB        -1.8500   20.5930  -49.9510 C.3   243  VAL243      0.0252
     24  CG1       -0.9680   20.7060  -51.1990 C.3   243  VAL243      0.0019
     25  CG2       -1.0170   20.2420  -48.7350 C.3   243  VAL243      0.0019
     26  N         -3.5030   16.7990  -48.8640 N.3   287  TRP287     -0.1241
     27  CA        -3.3410   16.8560  -47.4060 C.3   287  TRP287      0.1605
     28  C         -4.0260   18.0730  -46.7850 C.2   287  TRP287      0.2264
     29  O         -3.9210   19.1970  -47.2940 O.2   287  TRP287     -0.2867
     30  CB        -1.8660   16.9530  -47.0210 C.3   287  TRP287      0.0550
     31  CG        -1.0350   15.7440  -47.3010 C.ar  287  TRP287      0.0003
     32  CD1        0.1100   15.7040  -48.0430 C.ar  287  TRP287      0.0946
     33  CD2       -1.2470   14.4100  -46.8160 C.ar  287  TRP287      0.0152
     34  NE1        0.6170   14.4340  -48.0620 N.ar  287  TRP287     -0.2442
     35  CE2       -0.1950   13.6170  -47.3190 C.ar  287  TRP287      0.0810
     36  CE3       -2.2290   13.8050  -46.0160 C.ar  287  TRP287      0.0012
     37  CZ2       -0.0900   12.2560  -47.0490 C.ar  287  TRP287      0.0191
     38  CZ3       -2.1200   12.4480  -45.7430 C.ar  287  TRP287      0.0001
     39  CH2       -1.0600   11.6900  -46.2630 C.ar  287  TRP287      0.0015
     40  N         -3.3610   19.7900  -43.3680 N.3   289  ASN289     -0.1240
     41  CA        -2.2880   19.7030  -42.3900 C.3   289  ASN289      0.1653
     42  C         -2.5980   20.4140  -41.0930 C.2   289  ASN289      0.2266
     43  O         -3.1250   21.5170  -41.1080 O.2   289  ASN289     -0.2867
     44  CB        -1.0130   20.3090  -42.9680 C.3   289  ASN289      0.1155
     45  CG        -0.3280   19.3890  -43.9510 C.2   289  ASN289      0.2627
     46  OD1       -0.5530   19.4740  -45.1580 O.2   289  ASN289     -0.2716
     47  ND2        0.5270   18.5060  -43.4300 N.am  289  ASN289     -0.0877
     48  N         -0.5030   22.1170  -38.2030 N.3   291  THR291     -0.1218
     49  CA         0.8460   22.5460  -37.8790 C.3   291  THR291      0.1862
     50  C          0.8160   23.4100  -36.6320 C.2   291  THR291      0.2287
     51  O         -0.2670   23.7840  -36.1720 O.2   291  THR291     -0.2866
     52  CB         1.4990   23.3190  -39.0430 C.3   291  THR291      0.1770
     53  OG1        0.7550   24.5080  -39.3190 O.3   291  THR291     -0.2211
     54  CG2        1.5220   22.4720  -40.2870 C.3   291  THR291      0.0375
     55  N          3.5050   15.4150  -38.1720 N.3   305  HIS305     -0.1241
     56  CA         2.7250   15.8450  -39.3260 C.3   305  HIS305      0.1621
     57  C          1.2790   15.3350  -39.2950 C.2   305  HIS305      0.2264
     58  O          0.8400   14.6620  -40.2260 O.2   305  HIS305     -0.2867
     59  CB         3.3980   15.4050  -40.6330 C.3   305  HIS305      0.0745
     60  CG         4.8220   15.8640  -40.7730 C.ar  305  HIS305      0.0817
     61  ND1        5.1690   17.1930  -40.8750 N.ar  305  HIS305     -0.2268
     62  CD2        5.9780   15.1660  -40.8670 C.ar  305  HIS305      0.1154
     63  CE1        6.4810   17.2980  -40.9970 C.ar  305  HIS305      0.1986
     64  NE2        6.9950   16.0800  -41.0040 N.ar  305  HIS305     -0.2212
     65  N         -2.3570   14.8520  -40.1070 N.3   307  ALA307     -0.1245
     66  CA        -3.0590   15.2930  -41.3030 C.3   307  ALA307      0.1562
     67  C         -4.3280   14.5100  -41.5880 C.2   307  ALA307      0.2260
     68  O         -4.5080   13.3970  -41.0990 O.2   307  ALA307     -0.2867
     69  CB        -2.1350   15.2440  -42.5040 C.3   307  ALA307      0.0290
     70  N         -2.8350    7.9030  -50.9500 N.3   319  LEU319     -0.1231
     71  CA        -2.3760    9.0730  -50.2050 C.3   319  LEU319      0.1678
     72  C         -2.0320   10.2510  -51.1120 C.2   319  LEU319      0.2434
     73  O         -1.5360   10.0650  -52.2170 O.2   319  LEU319     -0.2733
     74  CB        -1.1520    8.7270  -49.3480 C.3   319  LEU319      0.0284
     75  CG        -1.2210    7.4940  -48.4460 C.3   319  LEU319      0.0019
     76  CD1        0.0880    7.3320  -47.6760 C.3   319  LEU319      0.0001
     77  CD2       -2.4090    7.5540  -47.5000 C.3   319  LEU319      0.0001
     78  N         -2.2990   11.4770  -50.6340 N.am  320  PRO320     -0.2729
     79  CA        -1.8480   12.6950  -51.3130 C.3   320  PRO320      0.1401
     80  C         -0.3490   12.6090  -51.5830 C.2   320  PRO320      0.2269
     81  O          0.3550   11.9570  -50.8140 O.2   320  PRO320     -0.2865
     82  CB        -2.1580   13.7950  -50.2920 C.3   320  PRO320      0.0296
     83  CG        -3.3430   13.2500  -49.5140 C.3   320  PRO320      0.0237
     84  CD        -3.0650   11.7650  -49.4070 C.3   320  PRO320      0.0939
     85  N          3.2920   17.1880  -50.5790 N.3   323  GLU323     -0.1231
     86  CA         3.4020   17.5210  -49.1580 C.3   323  GLU323      0.1699
     87  C          3.1640   19.0080  -48.8930 C.2   323  GLU323      0.2593
     88  O          3.0050   19.4230  -47.7450 O.2   323  GLU323     -0.2718
     89  CB         4.7620   17.0930  -48.6020 C.3   323  GLU323      0.0402
     90  CG         5.0090   15.6080  -48.6750 C.3   323  GLU323      0.1161
     91  CD         6.4290   15.2470  -48.3020 C.2   323  GLU323      0.3649
     92  OE1        7.2040   16.1710  -47.9810 O.co2 323  GLU323     -0.2457
     93  OE2        6.7630   14.0460  -48.3240 O.co2 323  GLU323     -0.2457
     94  N          3.1340   19.8120  -49.9500 N.am  324  GLY324     -0.1942
     95  CA         2.7670   21.2120  -49.8100 C.3   324  GLY324      0.2014
     96  C          3.7930   22.1500  -49.1870 C.2   324  GLY324      0.2640
     97  O          4.9960   21.8870  -49.2060 O.2   324  GLY324     -0.2714
     98  N          3.2920   23.2470  -48.6210 N.am  325  THR325     -0.1937
     99  CA         4.1020   24.3850  -48.1790 C.3   325  THR325      0.2013
    100  C          3.7990   24.7950  -46.7340 C.2   325  THR325      0.2484
    101  O          2.6430   25.0260  -46.3800 O.2   325  THR325     -0.2729
    102  CB         3.8070   25.6120  -49.0590 C.3   325  THR325      0.1807
    103  OG1        3.9420   25.2590  -50.4430 O.3   325  THR325     -0.2208
    104  CG2        4.7480   26.7610  -48.7250 C.3   325  THR325      0.0379
    105  N          4.8420   24.9410  -45.9040 N.am  326  PRO326     -0.2715
    106  CA         4.5680   25.2640  -44.5020 C.3   326  PRO326      0.1521
    107  C          3.8190   26.5870  -44.4470 C.2   326  PRO326      0.2440
    108  O          4.2170   27.5390  -45.1210 O.2   326  PRO326     -0.2731
    109  CB         5.9690   25.4380  -43.9000 C.3   326  PRO326      0.0310
    110  CG         6.9170   24.8640  -44.9120 C.3   326  PRO326      0.0237
    111  CD         6.2670   25.0880  -46.2310 C.3   326  PRO326      0.0939
    112  N          2.7370   26.6420  -43.6660 N.am  327  PRO327     -0.2727
    113  CA         1.9650   27.8790  -43.5520 C.3   327  PRO327      0.1402
    114  C          2.7860   28.9200  -42.8050 C.2   327  PRO327      0.2269
    115  O          3.7980   28.5780  -42.1830 O.2   327  PRO327     -0.2865
    116  CB         0.7460   27.4700  -42.7060 C.3   327  PRO327      0.0296
    117  CG         0.7890   25.9890  -42.5860 C.3   327  PRO327      0.0237
    118  CD         2.2090   25.5650  -42.8130 C.3   327  PRO327      0.0939
@<TRIPOS>BOND
     1    73    72    2
     2    80    79    1
     3    80    81    2
     4    22    21    2
     5    79    78    1
     6    79    82    1
     7    24    23    1
     8    72    78   am
     9    72    71    1
    10    21    20    1
    11    70    71    1
    12    78    84    1
    13    85    86    1
    14   103   102    1
    15    82    83    1
    16    71    74    1
    17    23    20    1
    18    23    25    1
    19    94    95    1
    20    94    87   am
    21    95    96    1
    22    20    19    1
    23    83    84    1
    24    74    75    1
    25    97    96    2
    26    96    98   am
    27    86    87    1
    28    86    89    1
    29   102   104    1
    30   102    99    1
    31    87    88    2
    32    26    27    1
    33    90    89    1
    34    90    91    1
    35    98    99    1
    36    75    76    1
    37    75    77    1
    38    93    91   ar
    39    91    92   ar
    40    99   100    1
    41    34    32   ar
    42    34    35   ar
    43    32    31   ar
    44    27    30    1
    45    27    28    1
    46    35    37   ar
    47    35    33   ar
    48    31    30    1
    49    31    33   ar
    50    29    28    2
    51    37    39   ar
    52    33    36   ar
    53   100   101    2
    54   100   105   am
    55    39    38   ar
    56   111   105    1
    57   111   110    1
    58    36    38   ar
    59   105   106    1
    60    46    45    2
    61   108   107    2
    62    15    16    2
    63    15    14    1
    64   110   109    1
    65   106   107    1
    66   106   109    1
    67   107   112   am
    68    17    14    1
    69    17    18    1
    70    14    13    1
    71    45    47   am
    72    45    44    1
    73     8    10   ar
    74     8     6   ar
    75    10    11   ar
    76   112   113    1
    77   112   118    1
    78   113   114    1
    79   113   116    1
    80    40    41    1
    81     5     6    1
    82     5     2    1
    83     6     7   ar
    84    11    12    1
    85    11     9   ar
    86    44    41    1
    87   118   117    1
    88   114   115    2
    89   116   117    1
    90    69    66    1
    91     7     9   ar
    92     4     3    2
    93    41    42    1
    94     3     2    1
    95     2     1    1
    96    67    66    1
    97    67    68    2
    98    66    65    1
    99    43    42    2
   100    64    63   ar
   101    64    62   ar
   102    63    61   ar
   103    61    60   ar
   104    62    60   ar
   105    60    59    1
   106    59    56    1
   107    54    52    1
   108    58    57    2
   109    56    57    1
   110    56    55    1
   111    53    52    1
   112    52    49    1
   113    48    49    1
   114    49    50    1
   115    50    51    2
