@<TRIPOS>MOLECULE
tmp/3qpkA03.pdb
 82 79 0 0 0
SMALL
GASTEIGER

@<TRIPOS>ATOM
      1  N         -6.3150    7.8910  -41.5220 N.3   214  TYR214     -0.1241
      2  CA        -6.5010    9.3080  -41.8030 C.3   214  TYR214      0.1605
      3  C         -7.9700    9.6520  -41.8790 C.2   214  TYR214      0.2264
      4  O         -8.7540    8.8670  -42.4040 O.2   214  TYR214     -0.2867
      5  CB        -5.8730    9.6440  -43.1460 C.3   214  TYR214      0.0534
      6  CG        -4.3690    9.5330  -43.1360 C.ar  214  TYR214     -0.0201
      7  CD1       -3.5960   10.4730  -42.4710 C.ar  214  TYR214     -0.0009
      8  CD2       -3.7220    8.4920  -43.7950 C.ar  214  TYR214     -0.0009
      9  CE1       -2.2130   10.3880  -42.4550 C.ar  214  TYR214      0.0417
     10  CE2       -2.3430    8.3950  -43.7860 C.ar  214  TYR214      0.0417
     11  CZ        -1.5930    9.3490  -43.1130 C.ar  214  TYR214      0.1957
     12  OH        -0.2180    9.2630  -43.0900 O.3   214  TYR214     -0.2866
     13  N        -10.8390   11.1310  -43.7640 N.3   216  ASN216     -0.1240
     14  CA       -10.9350   11.1100  -45.2190 C.3   216  ASN216      0.1653
     15  C        -12.2110   11.8230  -45.6730 C.2   216  ASN216      0.2266
     16  O        -13.3060   11.2670  -45.5740 O.2   216  ASN216     -0.2867
     17  CB       -10.9020    9.6640  -45.7240 C.3   216  ASN216      0.1155
     18  CG       -11.0110    9.5660  -47.2410 C.2   216  ASN216      0.2627
     19  OD1      -10.7580   10.5350  -47.9600 O.2   216  ASN216     -0.2716
     20  ND2      -11.3970    8.3830  -47.7260 N.am  216  ASN216     -0.0877
     21  N        -14.4800   13.6090  -48.5560 N.3   218  THR218     -0.1218
     22  CA       -14.6870   13.5850  -50.0030 C.3   218  THR218      0.1862
     23  C        -15.3430   14.8720  -50.5020 C.2   218  THR218      0.2287
     24  O        -16.4430   15.2370  -50.0690 O.2   218  THR218     -0.2866
     25  CB       -15.4930   12.3520  -50.4580 C.3   218  THR218      0.1770
     26  OG1      -14.6920   11.1730  -50.2970 O.3   218  THR218     -0.2211
     27  CG2      -15.8700   12.4800  -51.9200 C.3   218  THR218      0.0375
     28  N         -7.0230   13.6540  -45.1280 N.3   309  ILE309     -0.1245
     29  CA        -7.0090   13.6100  -46.5860 C.3   309  ILE309      0.1561
     30  C         -8.2530   14.2750  -47.1580 C.2   309  ILE309      0.2260
     31  O         -9.3730   14.0170  -46.7100 O.2   309  ILE309     -0.2867
     32  CB        -6.9140   12.1590  -47.0900 C.3   309  ILE309      0.0252
     33  CG1       -5.5630   11.5580  -46.6820 C.3   309  ILE309      0.0019
     34  CG2       -7.1100   12.1010  -48.6110 C.3   309  ILE309      0.0019
     35  CD1       -5.4050   10.0790  -47.0500 C.3   309  ILE309      0.0001
     36  N        -10.2120   14.2250  -50.5340 N.3   311  HIS311     -0.1241
     37  CA       -10.2550   13.4400  -51.7580 C.3   311  HIS311      0.1621
     38  C        -11.3240   13.9720  -52.7050 C.2   311  HIS311      0.2264
     39  O        -12.4880   14.0490  -52.3320 O.2   311  HIS311     -0.2867
     40  CB       -10.5350   11.9730  -51.3950 C.3   311  HIS311      0.0745
     41  CG       -10.8720   11.1090  -52.5680 C.ar  311  HIS311      0.0817
     42  ND1      -12.1680   10.8880  -52.9800 N.ar  311  HIS311     -0.2268
     43  CD2      -10.0830   10.4030  -53.4120 C.ar  311  HIS311      0.1154
     44  CE1      -12.1620   10.0870  -54.0300 C.ar  311  HIS311      0.1986
     45  NE2      -10.9080    9.7800  -54.3130 N.ar  311  HIS311     -0.2212
     46  N        -13.9670   13.4670  -55.3750 N.3   313  ALA313     -0.1231
     47  CA       -14.7350   12.3410  -55.8860 C.3   313  ALA313      0.1694
     48  C        -14.3820   12.1070  -57.3480 C.2   313  ALA313      0.2593
     49  O        -14.3890   13.0400  -58.1430 O.2   313  ALA313     -0.2718
     50  CB       -16.2180   12.5960  -55.7410 C.3   313  ALA313      0.0304
     51  N        -14.0680   10.8620  -57.6940 N.am  314  GLY314     -0.1942
     52  CA       -13.6710   10.5320  -59.0540 C.3   314  GLY314      0.2014
     53  C        -12.1660   10.4200  -59.2120 C.2   314  GLY314      0.2639
     54  O        -11.6690    9.8940  -60.2110 O.2   314  GLY314     -0.2714
     55  N        -11.4300   10.9310  -58.2310 N.am  315  ALA315     -0.1963
     56  CA        -9.9760   10.8530  -58.2640 C.3   315  ALA315      0.1713
     57  C         -9.5660    9.4600  -57.8350 C.2   315  ALA315      0.2458
     58  O        -10.3600    8.7360  -57.2380 O.2   315  ALA315     -0.2730
     59  CB        -9.3670   11.8790  -57.3440 C.3   315  ALA315      0.0333
     60  N         -8.3270    9.0720  -58.1500 N.am  316  PRO316     -0.2716
     61  CA        -7.7970    7.7960  -57.6620 C.3   316  PRO316      0.1536
     62  C         -7.8210    7.7660  -56.1370 C.2   316  PRO316      0.2599
     63  O         -7.8890    8.8300  -55.5220 O.2   316  PRO316     -0.2715
     64  CB        -6.3460    7.8180  -58.1530 C.3   316  PRO316      0.0310
     65  CG        -6.3580    8.6830  -59.3450 C.3   316  PRO316      0.0237
     66  CD        -7.3890    9.7480  -59.0620 C.3   316  PRO316      0.0939
     67  N         -7.7690    6.5790  -55.5370 N.am  317  GLY317     -0.1941
     68  CA        -7.6450    6.4650  -54.0920 C.3   317  GLY317      0.2014
     69  C         -6.1940    6.6560  -53.6800 C.2   317  GLY317      0.2639
     70  O         -5.3770    7.0630  -54.4980 O.2   317  GLY317     -0.2714
     71  N         -5.8760    6.3770  -52.4190 N.am  318  GLY318     -0.1939
     72  CA        -4.5010    6.4370  -51.9430 C.3   318  GLY318      0.2014
     73  C         -4.1220    7.7330  -51.2420 C.2   318  GLY318      0.2638
     74  O         -4.9770    8.5760  -50.9810 O.2   318  GLY318     -0.2714
     75  N         -2.8350    7.9030  -50.9500 N.am  319  LEU319     -0.1977
     76  CA        -2.3760    9.0730  -50.2050 C.3   319  LEU319      0.1596
     77  C         -2.0320   10.2510  -51.1120 C.2   319  LEU319      0.2287
     78  O         -1.5360   10.0650  -52.2170 O.2   319  LEU319     -0.2864
     79  CB        -1.1520    8.7270  -49.3480 C.3   319  LEU319      0.0297
     80  CG        -1.2210    7.4940  -48.4460 C.3   319  LEU319      0.0022
     81  CD1        0.0880    7.3320  -47.6760 C.3   319  LEU319      0.0001
     82  CD2       -2.4090    7.5540  -47.5000 C.3   319  LEU319      0.0001
@<TRIPOS>BOND
     1    54    53    2
     2    65    66    1
     3    65    64    1
     4    53    52    1
     5    53    55   am
     6    66    60    1
     7    52    51    1
     8    56    55    1
     9    56    57    1
    10    56    59    1
    11    64    61    1
    12    60    57   am
    13    60    61    1
    14    49    48    2
    15    57    58    2
    16    51    48   am
    17    61    62    1
    18    48    47    1
    19    62    67   am
    20    62    63    2
    21    47    50    1
    22    47    46    1
    23    67    68    1
    24    70    69    2
    25    45    44   ar
    26    45    43   ar
    27    68    69    1
    28    44    42   ar
    29    69    71   am
    30    43    41   ar
    31    42    41   ar
    32    38    39    2
    33    38    37    1
    34    41    40    1
    35    71    72    1
    36    78    77    2
    37    72    73    1
    38    27    25    1
    39    37    40    1
    40    37    36    1
    41    73    74    2
    42    73    75   am
    43    77    76    1
    44    75    76    1
    45    23    24    2
    46    23    22    1
    47    25    26    1
    48    25    22    1
    49    76    79    1
    50    22    21    1
    51    79    80    1
    52    34    32    1
    53    80    81    1
    54    80    82    1
    55    19    18    2
    56    20    18   am
    57    18    17    1
    58    30    31    2
    59    30    29    1
    60    32    33    1
    61    32    29    1
    62    35    33    1
    63    29    28    1
    64    17    14    1
    65    15    16    2
    66    15    14    1
    67    14    13    1
    68     8    10   ar
    69     8     6   ar
    70    10    11   ar
    71     5     6    1
    72     5     2    1
    73     6     7   ar
    74    11    12    1
    75    11     9   ar
    76     7     9   ar
    77     4     3    2
    78     3     2    1
    79     2     1    1
