@<TRIPOS>MOLECULE
tmp/3qpkA01.pdb
 162 157 0 0 0
SMALL
GASTEIGER

@<TRIPOS>ATOM
      1  N        -16.9220    4.6630  -17.7890 N.3    42  GLU42      -0.1245
      2  CA       -15.4820    4.6270  -17.5440 C.3    42  GLU42       0.1567
      3  C        -14.9190    3.3020  -18.0480 C.2    42  GLU42       0.2260
      4  O        -15.3830    2.2270  -17.6390 O.2    42  GLU42      -0.2867
      5  CB       -15.2590    4.7250  -16.0280 C.3    42  GLU42       0.0388
      6  CG       -13.9700    5.3710  -15.5700 C.3    42  GLU42       0.1160
      7  CD       -14.0210    5.7290  -14.0950 C.2    42  GLU42       0.3649
      8  OE1      -15.0790    6.1920  -13.6230 O.co2  42  GLU42      -0.2457
      9  OE2      -13.0080    5.5600  -13.4040 O.co2  42  GLU42      -0.2457
     10  N         -4.8610    3.8120  -20.4860 N.3    55  GLU55      -0.1231
     11  CA        -5.1470    3.3210  -19.1400 C.3    55  GLU55       0.1699
     12  C         -6.6220    3.4450  -18.7990 C.2    55  GLU55       0.2592
     13  O         -7.2390    2.4920  -18.3350 O.2    55  GLU55      -0.2718
     14  CB        -4.3340    4.0750  -18.0880 C.3    55  GLU55       0.0402
     15  CG        -4.6460    3.6510  -16.6620 C.3    55  GLU55       0.1161
     16  CD        -3.8310    4.4180  -15.6330 C.2    55  GLU55       0.3649
     17  OE1       -2.8110    5.0290  -16.0200 O.co2  55  GLU55      -0.2457
     18  OE2       -4.2120    4.4050  -14.4390 O.co2  55  GLU55      -0.2457
     19  N         -7.1800    4.6290  -19.0110 N.am   56  LYS56      -0.1980
     20  CA        -8.5850    4.8350  -18.7230 C.3    56  LYS56       0.1596
     21  C         -9.1690    5.9310  -19.6010 C.2    56  LYS56       0.2287
     22  O         -8.5030    6.9470  -19.8860 O.2    56  LYS56      -0.2864
     23  CB        -8.7770    5.1900  -17.2430 C.3    56  LYS56       0.0298
     24  CG       -10.2260    5.4990  -16.8530 C.3    56  LYS56       0.0038
     25  CD       -10.2930    6.1650  -15.4840 C.3    56  LYS56       0.0206
     26  CE        -9.7300    5.2640  -14.4070 C.3    56  LYS56       0.1093
     27  NZ       -10.6100    4.0910  -14.1620 N.3    56  LYS56      -0.1314
     28  N        -13.1920    7.9860  -20.3090 N.3    58  MET58      -0.1245
     29  CA       -14.5440    8.2210  -19.8390 C.3    58  MET58       0.1570
     30  C        -15.3300    8.6790  -21.0420 C.2    58  MET58       0.2261
     31  O        -15.0340    9.7350  -21.6090 O.2    58  MET58      -0.2867
     32  CB       -14.5470    9.2980  -18.7550 C.3    58  MET58       0.0387
     33  CG       -13.7220    8.9060  -17.5260 C.3    58  MET58       0.0595
     34  SD       -13.3970   10.2370  -16.3480 S.3    58  MET58      -0.1393
     35  CE       -12.6730    9.2910  -15.0160 C.3    58  MET58       0.0692
     36  N        -16.1510    7.1220   -9.8300 N.3    87  THR87      -0.1203
     37  CA       -15.8810    8.0170   -8.7050 C.3    87  THR87       0.1994
     38  C        -16.1680    9.4990   -8.9990 C.2    87  THR87       0.2617
     39  O        -16.6400   10.2360   -8.1300 O.2    87  THR87      -0.2717
     40  CB       -14.4220    7.8810   -8.2210 C.3    87  THR87       0.1784
     41  OG1      -13.5270    8.3250   -9.2530 O.3    87  THR87      -0.2211
     42  CG2      -14.1180    6.4250   -7.8620 C.3    87  THR87       0.0376
     43  N        -15.8910    9.9180  -10.2280 N.am   88  ASN88      -0.1974
     44  CA       -16.0880   11.2950  -10.6590 C.3    88  ASN88       0.1688
     45  C        -17.5260   11.8060  -10.6920 C.2    88  ASN88       0.2292
     46  O        -18.4300   11.1140  -11.1460 O.2    88  ASN88      -0.2864
     47  CB       -15.5330   11.4700  -12.0650 C.3    88  ASN88       0.1181
     48  CG       -14.0370   11.6170  -12.0850 C.2    88  ASN88       0.2629
     49  OD1      -13.4770   12.1020  -13.0710 O.2    88  ASN88      -0.2716
     50  ND2      -13.3800   11.2350  -10.9790 N.am   88  ASN88      -0.0877
     51  N        -15.7630   19.1230  -15.1210 N.3   141  PHE141     -0.1241
     52  CA       -15.3080   18.4840  -13.8920 C.3   141  PHE141      0.1605
     53  C        -13.7830   18.3850  -13.8850 C.2   141  PHE141      0.2264
     54  O        -13.2030   17.3960  -14.3500 O.2   141  PHE141     -0.2867
     55  CB       -15.9220   17.0900  -13.7350 C.3   141  PHE141      0.0534
     56  CG       -15.6800   16.4740  -12.3880 C.ar  141  PHE141     -0.0203
     57  CD1      -16.4540   16.8430  -11.2970 C.ar  141  PHE141     -0.0042
     58  CD2      -14.6810   15.5290  -12.2090 C.ar  141  PHE141     -0.0042
     59  CE1      -16.2290   16.2880  -10.0530 C.ar  141  PHE141     -0.0003
     60  CE2      -14.4530   14.9650  -10.9660 C.ar  141  PHE141     -0.0003
     61  CZ       -15.2310   15.3460   -9.8890 C.ar  141  PHE141     -0.0000
     62  N        -10.5770   13.1490  -20.9680 N.3   147  ASN147     -0.1240
     63  CA       -10.7520   11.6930  -20.9520 C.3   147  ASN147      0.1653
     64  C        -11.7470   11.1800  -21.9980 C.2   147  ASN147      0.2266
     65  O        -11.8210    9.9800  -22.2560 O.2   147  ASN147     -0.2867
     66  CB       -11.2040   11.2250  -19.5640 C.3   147  ASN147      0.1155
     67  CG       -10.0550   11.0580  -18.6020 C.2   147  ASN147      0.2627
     68  OD1       -8.8970   10.9400  -19.0140 O.2   147  ASN147     -0.2716
     69  ND2      -10.3630   11.0420  -17.3040 N.am  147  ASN147     -0.0877
     70  N         -3.9180    9.6250  -18.6220 N.3   179  ALA179     -0.1245
     71  CA        -5.2790   10.0540  -18.2950 C.3   179  ALA179      0.1562
     72  C         -5.2790   11.4670  -17.7290 C.2   179  ALA179      0.2260
     73  O         -4.2670   11.9500  -17.2270 O.2   179  ALA179     -0.2867
     74  CB        -5.9420    9.0910  -17.3180 C.3   179  ALA179      0.0290
     75  N         -6.3610   13.0000  -15.0830 N.3   181  ASP181     -0.1225
     76  CA        -5.9520   13.2730  -13.7000 C.3   181  ASP181      0.1805
     77  C         -4.4580   13.1290  -13.4290 C.2   181  ASP181      0.2597
     78  O         -3.8990   13.8400  -12.5950 O.2   181  ASP181     -0.2718
     79  CB        -6.7690   12.4490  -12.7110 C.3   181  ASP181      0.1424
     80  CG        -8.1910   12.9470  -12.6090 C.2   181  ASP181      0.3668
     81  OD1       -8.4060   13.9820  -11.9390 O.co2 181  ASP181     -0.2456
     82  OD2       -9.0830   12.3310  -13.2340 O.co2 181  ASP181     -0.2456
     83  N         -3.8110   12.2090  -14.1270 N.am  182  ASP182     -0.1974
     84  CA        -2.3670   12.1050  -14.0130 C.3   182  ASP182      0.1709
     85  C         -1.7240   13.3130  -14.6960 C.2   182  ASP182      0.2293
     86  O         -0.6570   13.7730  -14.2900 O.2   182  ASP182     -0.2864
     87  CB        -1.8680   10.7810  -14.6000 C.3   182  ASP182      0.1436
     88  CG        -2.1950    9.5860  -13.7090 C.2   182  ASP182      0.3671
     89  OD1       -2.3960    9.7800  -12.4890 O.co2 182  ASP182     -0.2456
     90  OD2       -2.2470    8.4470  -14.2270 O.co2 182  ASP182     -0.2456
     91  N        -17.5180   22.3030   -5.0490 N.3   384  TRP384     -0.1241
     92  CA       -18.4940   21.4970   -5.7710 C.3   384  TRP384      0.1605
     93  C        -19.7800   21.3120   -4.9770 C.2   384  TRP384      0.2264
     94  O        -20.8650   21.2090   -5.5460 O.2   384  TRP384     -0.2867
     95  CB       -17.9030   20.1250   -6.0870 C.3   384  TRP384      0.0550
     96  CG       -16.8840   20.1190   -7.1930 C.ar  384  TRP384      0.0003
     97  CD1      -16.8280   20.9540   -8.2780 C.ar  384  TRP384      0.0946
     98  CD2      -15.7950   19.1980   -7.3360 C.ar  384  TRP384      0.0152
     99  NE1      -15.7600   20.6110   -9.0820 N.ar  384  TRP384     -0.2442
    100  CE2      -15.1110   19.5380   -8.5230 C.ar  384  TRP384      0.0810
    101  CE3      -15.3310   18.1240   -6.5720 C.ar  384  TRP384      0.0012
    102  CZ2      -13.9830   18.8370   -8.9640 C.ar  384  TRP384      0.0191
    103  CZ3      -14.2050   17.4280   -7.0090 C.ar  384  TRP384      0.0001
    104  CH2      -13.5490   17.7870   -8.1980 C.ar  384  TRP384      0.0015
    105  N        -20.2420   12.7250   -1.8230 N.3   547  TRP547     -0.1241
    106  CA       -18.8290   13.1340   -1.7230 C.3   547  TRP547      0.1605
    107  C        -18.0300   12.5340   -0.5600 C.2   547  TRP547      0.2264
    108  O        -16.8490   12.2080   -0.7210 O.2   547  TRP547     -0.2867
    109  CB       -18.6880   14.6620   -1.7060 C.3   547  TRP547      0.0550
    110  CG       -17.2600   15.1270   -1.5410 C.ar  547  TRP547      0.0003
    111  CD1      -16.7350   15.8120   -0.4780 C.ar  547  TRP547      0.0946
    112  CD2      -16.1740   14.9180   -2.4560 C.ar  547  TRP547      0.0152
    113  NE1      -15.3970   16.0530   -0.6840 N.ar  547  TRP547     -0.2442
    114  CE2      -15.0280   15.5120   -1.8880 C.ar  547  TRP547      0.0810
    115  CE3      -16.0620   14.2960   -3.7040 C.ar  547  TRP547      0.0012
    116  CZ2      -13.7870   15.4980   -2.5260 C.ar  547  TRP547      0.0191
    117  CZ3      -14.8350   14.2870   -4.3340 C.ar  547  TRP547      0.0001
    118  CH2      -13.7110   14.8820   -3.7450 C.ar  547  TRP547      0.0015
    119  N        -16.5250    9.3330   -1.6560 N.3   550  ASN550     -0.1240
    120  CA       -15.5760    9.3120   -2.7570 C.3   550  ASN550      0.1653
    121  C        -14.2010    8.8990   -2.2380 C.2   550  ASN550      0.2266
    122  O        -13.7410    9.4240   -1.2350 O.2   550  ASN550     -0.2867
    123  CB       -15.5160   10.6830   -3.4270 C.3   550  ASN550      0.1155
    124  CG       -14.8550   10.6360   -4.7870 C.2   550  ASN550      0.2627
    125  OD1      -14.3430    9.5990   -5.2000 O.2   550  ASN550     -0.2716
    126  ND2      -14.8660   11.7600   -5.4930 N.am  550  ASN550     -0.0877
    127  N        -11.3060    9.3820   -3.6840 N.3   552  TYR552     -0.1228
    128  CA       -10.2270   10.2830   -4.1150 C.3   552  TYR552      0.1721
    129  C        -10.4160   11.7270   -3.6500 C.2   552  TYR552      0.2437
    130  O        -11.5450   12.2010   -3.5100 O.2   552  TYR552     -0.2733
    131  CB       -10.0830   10.2700   -5.6430 C.3   552  TYR552      0.0547
    132  CG        -9.8420    8.9000   -6.2200 C.ar  552  TYR552     -0.0200
    133  CD1       -8.7670    8.1260   -5.7970 C.ar  552  TYR552     -0.0009
    134  CD2      -10.6860    8.3790   -7.1900 C.ar  552  TYR552     -0.0009
    135  CE1       -8.5430    6.8630   -6.3260 C.ar  552  TYR552      0.0417
    136  CE2      -10.4710    7.1240   -7.7220 C.ar  552  TYR552      0.0417
    137  CZ        -9.4040    6.3680   -7.2860 C.ar  552  TYR552      0.1957
    138  OH        -9.1940    5.1160   -7.8160 O.3   552  TYR552     -0.2866
    139  N         -9.3000   12.4390   -3.4370 N.am  553  PRO553     -0.2718
    140  CA        -9.3000   13.8240   -2.9740 C.3   553  PRO553      0.1535
    141  C         -9.4380   14.7710   -4.1530 C.2   553  PRO553      0.2598
    142  O         -9.0140   14.4260   -5.2530 O.2   553  PRO553     -0.2715
    143  CB        -7.8930   13.9930   -2.3810 C.3   553  PRO553      0.0310
    144  CG        -7.1740   12.6750   -2.6100 C.3   553  PRO553      0.0237
    145  CD        -7.9310   11.9630   -3.6710 C.3   553  PRO553      0.0939
    146  N        -10.0210   15.9420   -3.9290 N.am  554  LYS554     -0.1964
    147  CA        -9.9880   17.0020   -4.9230 C.3   554  LYS554      0.1728
    148  C         -8.5910   17.6100   -4.8850 C.2   554  LYS554      0.2616
    149  O         -8.1290   18.0330   -3.8270 O.2   554  LYS554     -0.2715
    150  CB       -11.0440   18.0520   -4.5840 C.3   554  LYS554      0.0311
    151  CG       -11.1420   19.2140   -5.5490 C.3   554  LYS554      0.0038
    152  CD       -12.4320   19.9790   -5.2670 C.3   554  LYS554      0.0206
    153  CE       -12.4740   21.3090   -5.9910 C.3   554  LYS554      0.1093
    154  NZ       -11.6870   22.3350   -5.2790 N.3   554  LYS554     -0.1314
    155  N         -7.9020   17.6340   -6.0210 N.am  555  ILE555     -0.1977
    156  CA        -6.5040   18.0680   -6.0190 C.3   555  ILE555      0.1596
    157  C         -6.2540   19.3340   -6.8310 C.2   555  ILE555      0.2287
    158  O         -5.1120   19.7840   -6.9310 O.2   555  ILE555     -0.2864
    159  CB        -5.5430   16.9620   -6.5200 C.3   555  ILE555      0.0276
    160  CG1       -5.6170   16.8280   -8.0410 C.3   555  ILE555      0.0022
    161  CG2       -5.8460   15.6240   -5.8470 C.3   555  ILE555      0.0022
    162  CD1       -4.7650   15.6930   -8.5840 C.3   555  ILE555      0.0001
@<TRIPOS>BOND
     1    65    64    2
     2    64    63    1
     3    31    30    2
     4    30    29    1
     5    62    63    1
     6    63    66    1
     7    10    11    1
     8    28    29    1
     9    22    21    2
    10    29    32    1
    11    21    20    1
    12    66    67    1
    13    11    12    1
    14    11    14    1
    15    68    67    2
    16    19    12   am
    17    19    20    1
    18    12    13    2
    19    32    33    1
    20    20    23    1
    21    70    71    1
    22    67    69   am
    23    71    72    1
    24    71    74    1
    25    14    15    1
    26     3     4    2
    27     3     2    1
    28     1     2    1
    29    72    73    2
    30     2     5    1
    31    33    34    1
    32    23    24    1
    33    24    25    1
    34    15    16    1
    35    34    35    1
    36     5     6    1
    37    17    16   ar
    38    16    18   ar
    39     6     7    1
    40    25    26    1
    41    51    52    1
    42    75    76    1
    43    85    86    2
    44    85    84    1
    45    87    84    1
    46    87    88    1
    47    26    27    1
    48    54    53    2
    49    90    88   ar
    50    83    84    1
    51    83    77   am
    52     7     8   ar
    53     7     9   ar
    54    52    53    1
    55    52    55    1
    56    55    56    1
    57    88    89   ar
    58    76    77    1
    59    76    79    1
    60    77    78    2
    61    82    80   ar
    62    49    48    2
    63    79    80    1
    64    80    81   ar
    65    56    58   ar
    66    56    57   ar
    67    58    60   ar
    68    48    47    1
    69    48    50   am
    70    47    44    1
    71    57    59   ar
    72    46    45    2
    73    60    61   ar
    74    45    44    1
    75    44    43    1
    76    43    38   am
    77    59    61   ar
    78    36    37    1
    79    41    40    1
    80    99   100   ar
    81    99    97   ar
    82    38    37    1
    83    38    39    2
    84   102   100   ar
    85   102   104   ar
    86    37    40    1
    87   162   160    1
    88   100    98   ar
    89    97    96   ar
    90    40    42    1
    91   104   103   ar
    92   160   159    1
    93   138   137    1
    94   136   137   ar
    95   136   134   ar
    96    98    96   ar
    97    98   101   ar
    98   137   135   ar
    99    96    95    1
   100   134   132   ar
   101   103   101   ar
   102   158   157    2
   103   157   156    1
   104   159   156    1
   105   159   161    1
   106   135   133   ar
   107   132   133   ar
   108   132   131    1
   109    95    92    1
   110   155   156    1
   111   155   148   am
   112   153   154    1
   113   153   152    1
   114    92    91    1
   115    92    93    1
   116   131   128    1
   117   151   152    1
   118   151   150    1
   119    94    93    2
   120   126   124   am
   121   142   141    2
   122   125   124    2
   123   147   148    1
   124   147   150    1
   125   147   146    1
   126   148   149    2
   127   124   123    1
   128   117   118   ar
   129   117   115   ar
   130   141   146   am
   131   141   140    1
   132   128   127    1
   133   128   129    1
   134   118   116   ar
   135   115   112   ar
   136   145   139    1
   137   145   144    1
   138   129   130    2
   139   129   139   am
   140   139   140    1
   141   123   120    1
   142   140   143    1
   143   120   121    1
   144   120   119    1
   145   144   143    1
   146   116   114   ar
   147   112   114   ar
   148   112   110   ar
   149   121   122    2
   150   114   113   ar
   151   105   106    1
   152   106   109    1
   153   106   107    1
   154   109   110    1
   155   110   111   ar
   156   108   107    2
   157   113   111   ar
