@<TRIPOS>MOLECULE
tmp/3qpnA00.pdb
 199 193 0 0 0
SMALL
GASTEIGER

@<TRIPOS>ATOM
      1  N          8.1120    9.1060   50.5770 N.3    62  TYR62      -0.1227
      2  CA         9.4590    9.6630   50.4330 C.3    62  TYR62       0.1736
      3  C          9.9820   10.4060   51.6630 C.2    62  TYR62       0.2595
      4  O         11.0960   10.1260   52.0960 O.2    62  TYR62      -0.2718
      5  CB         9.5320   10.6140   49.2540 C.3    62  TYR62       0.0548
      6  CG        10.9070   11.2410   49.0780 C.ar   62  TYR62      -0.0200
      7  CD1       12.0130   10.4420   48.7860 C.ar   62  TYR62      -0.0009
      8  CD2       11.1000   12.6150   49.2260 C.ar   62  TYR62      -0.0009
      9  CE1       13.2590   10.9650   48.6520 C.ar   62  TYR62       0.0417
     10  CE2       12.3670   13.1740   49.0940 C.ar   62  TYR62       0.0417
     11  CZ        13.4410   12.3320   48.7930 C.ar   62  TYR62       0.1957
     12  OH        14.7120   12.8120   48.6090 O.3    62  TYR62      -0.2866
     13  N          9.2120   11.3710   52.1880 N.am   63  HIS63      -0.1975
     14  CA         9.7140   12.1620   53.3150 C.3    63  HIS63       0.1656
     15  C          9.4990   11.4000   54.6060 C.2    63  HIS63       0.2291
     16  O          8.8100   11.8680   55.5050 O.2    63  HIS63      -0.2864
     17  CB         9.0790   13.5450   53.4260 C.3    63  HIS63       0.0771
     18  CG         9.5870   14.5180   52.4160 C.ar   63  HIS63       0.0820
     19  ND1        8.9280   14.7630   51.2340 N.ar   63  HIS63      -0.2267
     20  CD2       10.7200   15.2510   52.3730 C.ar   63  HIS63       0.1154
     21  CE1        9.6090   15.6460   50.5260 C.ar   63  HIS63       0.1986
     22  NE2       10.7000   15.9560   51.1960 N.ar   63  HIS63      -0.2212
     23  N         13.6740   24.4620   50.4520 N.3   173  LEU173     -0.1245
     24  CA        14.3530   24.7000   49.1600 C.3   173  LEU173      0.1561
     25  C         14.0620   26.0820   48.6020 C.2   173  LEU173      0.2260
     26  O         14.8250   26.5790   47.7960 O.2   173  LEU173     -0.2867
     27  CB        13.9760   23.6480   48.0800 C.3   173  LEU173      0.0270
     28  CG        14.8730   23.5120   46.8090 C.3   173  LEU173      0.0019
     29  CD1       16.3300   23.0680   47.1910 C.3   173  LEU173      0.0001
     30  CD2       14.3300   22.4920   45.8020 C.3   173  LEU173      0.0001
     31  N         19.9480   17.0070   51.7420 N.3   212  ASP212     -0.1225
     32  CA        18.5160   16.8360   51.4940 C.3   212  ASP212      0.1805
     33  C         18.2640   16.3710   50.0560 C.2   212  ASP212      0.2597
     34  O         17.3640   15.5920   49.8340 O.2   212  ASP212     -0.2718
     35  CB        17.7610   18.1480   51.7860 C.3   212  ASP212      0.1424
     36  CG        16.2710   17.9230   52.1360 C.2   212  ASP212      0.3668
     37  OD1       15.8300   16.7740   52.3320 O.co2 212  ASP212     -0.2456
     38  OD2       15.5300   18.9100   52.2420 O.co2 212  ASP212     -0.2456
     39  N         19.0870   16.8140   49.1030 N.am  213  LEU213     -0.1979
     40  CA        18.8940   16.4870   47.6830 C.3   213  LEU213      0.1596
     41  C         19.6240   15.2370   47.1980 C.2   213  LEU213      0.2287
     42  O         19.5520   14.8990   46.0090 O.2   213  LEU213     -0.2864
     43  CB        19.2930   17.6970   46.8220 C.3   213  LEU213      0.0297
     44  CG        18.4300   18.9810   46.9520 C.3   213  LEU213      0.0022
     45  CD1       18.8700   19.9940   45.9300 C.3   213  LEU213      0.0001
     46  CD2       16.9670   18.7090   46.7740 C.3   213  LEU213      0.0001
     47  N         19.5640   12.1850   46.7860 N.3   215  SER215     -0.1202
     48  CA        19.0940   11.0950   45.9040 C.3   215  SER215      0.2020
     49  C         19.7550   11.1810   44.5010 C.2   215  SER215      0.2618
     50  O         20.0170   10.1520   43.8370 O.2   215  SER215     -0.2717
     51  CB        17.5630   11.0670   45.8130 C.3   215  SER215      0.2103
     52  OG        17.0780   11.7250   44.6610 O.3   215  SER215     -0.2182
     53  N         20.0820   12.4110   44.0920 N.am  216  VAL216     -0.1979
     54  CA        20.6330   12.6870   42.7570 C.3   216  VAL216      0.1595
     55  C         22.1500   12.4670   42.7010 C.2   216  VAL216      0.2287
     56  O         22.7570   12.6870   41.6560 O.2   216  VAL216     -0.2864
     57  CB        20.2450   14.1390   42.2460 C.3   216  VAL216      0.0276
     58  CG1       18.6810   14.3120   42.1670 C.3   216  VAL216      0.0022
     59  CG2       20.9360   15.2940   43.0830 C.3   216  VAL216      0.0022
     60  N         19.0870    6.2860   42.4380 N.3   223  THR223     -0.1218
     61  CA        18.4940    7.5510   41.9890 C.3   223  THR223      0.1862
     62  C         17.1590    7.3590   41.2690 C.2   223  THR223      0.2287
     63  O         16.1760    8.0500   41.5830 O.2   223  THR223     -0.2866
     64  CB        19.4590    8.2630   41.0110 C.3   223  THR223      0.1770
     65  OG1       20.6740    8.5760   41.7020 O.3   223  THR223     -0.2211
     66  CG2       18.8380    9.5610   40.4740 C.3   223  THR223      0.0375
     67  N         13.3320    8.3700   42.6780 N.3   227  ALA227     -0.1245
     68  CA        12.4010    9.2470   41.9520 C.3   227  ALA227      0.1562
     69  C         10.9450    8.7000   41.9360 C.2   227  ALA227      0.2260
     70  O          9.9900    9.4780   42.0000 O.2   227  ALA227     -0.2867
     71  CB        12.9040    9.5220   40.5190 C.3   227  ALA227      0.0290
     72  N          9.5870   10.0640   45.3120 N.3   230  ILE230     -0.1231
     73  CA         9.4250   11.5160   45.2050 C.3   230  ILE230      0.1692
     74  C          8.1170   11.8940   44.4260 C.2   230  ILE230      0.2592
     75  O          7.2740   12.6600   44.9360 O.2   230  ILE230     -0.2718
     76  CB        10.7120   12.1750   44.5980 C.3   230  ILE230      0.0266
     77  CG1       11.9350   11.9310   45.4930 C.3   230  ILE230      0.0019
     78  CG2       10.5320   13.6970   44.3690 C.3   230  ILE230      0.0020
     79  CD1       13.2480   12.4160   44.8920 C.3   230  ILE230      0.0001
     80  N          7.9500   11.3580   43.2130 N.am  231  TYR231     -0.1976
     81  CA         6.7260   11.5660   42.4260 C.3   231  TYR231      0.1639
     82  C          5.4430   10.9790   43.0240 C.2   231  TYR231      0.2290
     83  O          4.3690   11.5240   42.8370 O.2   231  TYR231     -0.2864
     84  CB         6.9000   11.0920   40.9940 C.3   231  TYR231      0.0560
     85  CG         7.8170   11.9620   40.2100 C.ar  231  TYR231     -0.0198
     86  CD1        7.4270   13.2620   39.8090 C.ar  231  TYR231     -0.0009
     87  CD2        9.0820   11.5000   39.8390 C.ar  231  TYR231     -0.0009
     88  CE1        8.3130   14.0730   39.0560 C.ar  231  TYR231      0.0417
     89  CE2        9.9610   12.3000   39.1010 C.ar  231  TYR231      0.0417
     90  CZ         9.5660   13.5800   38.7150 C.ar  231  TYR231      0.1957
     91  OH        10.4410   14.3420   37.9920 O.3   231  TYR231     -0.2866
     92  N          4.4730   13.9340   45.1640 N.3   234  PHE234     -0.1227
     93  CA         4.0750   15.0910   44.3230 C.3   234  PHE234      0.1736
     94  C          2.7180   14.8750   43.6310 C.2   234  PHE234      0.2595
     95  O          1.9180   15.7990   43.5540 O.2   234  PHE234     -0.2718
     96  CB         5.1200   15.3970   43.2340 C.3   234  PHE234      0.0547
     97  CG         6.4290   15.9620   43.7440 C.ar  234  PHE234     -0.0202
     98  CD1        6.5180   16.6210   44.9800 C.ar  234  PHE234     -0.0042
     99  CD2        7.5690   15.9120   42.9360 C.ar  234  PHE234     -0.0042
    100  CE1        7.7610   17.1740   45.4110 C.ar  234  PHE234     -0.0003
    101  CE2        8.7820   16.4440   43.3710 C.ar  234  PHE234     -0.0003
    102  CZ         8.8790   17.0580   44.6110 C.ar  234  PHE234     -0.0000
    103  N          2.5080   13.6910   43.0500 N.am  235  TRP235     -0.1976
    104  CA         1.2510   13.3390   42.3770 C.3   235  TRP235      0.1640
    105  C          0.0850   13.2630   43.3460 C.2   235  TRP235      0.2290
    106  O         -0.9790   13.7290   43.0280 O.2   235  TRP235     -0.2864
    107  CB         1.3760   12.0660   41.5160 C.3   235  TRP235      0.0576
    108  CG         2.3470   12.2420   40.4100 C.ar  235  TRP235      0.0006
    109  CD1        2.7390   13.4240   39.8700 C.ar  235  TRP235      0.0946
    110  CD2        3.0560   11.2200   39.6910 C.ar  235  TRP235      0.0152
    111  NE1        3.6440   13.2140   38.8850 N.ar  235  TRP235     -0.2442
    112  CE2        3.8680   11.8720   38.7500 C.ar  235  TRP235      0.0810
    113  CE3        3.1040    9.8220   39.7710 C.ar  235  TRP235      0.0012
    114  CZ2        4.7340   11.1740   37.8710 C.ar  235  TRP235      0.0191
    115  CZ3        3.9380    9.1290   38.8930 C.ar  235  TRP235      0.0001
    116  CH2        4.7410    9.8060   37.9550 C.ar  235  TRP235      0.0015
    117  N          2.7470   21.3900   36.6480 N.3   250  PRO250     -0.2102
    118  CA         2.9930   20.1180   35.9720 C.3   250  PRO250      0.1504
    119  C          3.6960   19.0230   36.8020 C.2   250  PRO250      0.2575
    120  O          3.3350   17.8530   36.6530 O.2   250  PRO250     -0.2718
    121  CB         3.8250   20.5260   34.7590 C.3   250  PRO250      0.0282
    122  CG         3.3340   21.9820   34.4750 C.3   250  PRO250      0.0208
    123  CD         3.1430   22.5610   35.8300 C.3   250  PRO250      0.0893
    124  N          4.6530   19.4040   37.6550 N.am  251  MET251     -0.1980
    125  CA         5.4570   18.4700   38.4990 C.3   251  MET251      0.1605
    126  C          4.5740   17.5700   39.3800 C.2   251  MET251      0.2287
    127  O          4.9210   16.4210   39.6880 O.2   251  MET251     -0.2864
    128  CB         6.4150   19.2780   39.3900 C.3   251  MET251      0.0413
    129  CG         7.4420   18.4840   40.1490 C.3   251  MET251      0.0598
    130  SD         8.4850   19.5500   41.1970 S.3   251  MET251     -0.1393
    131  CE         7.3250   20.0550   42.4560 C.3   251  MET251      0.0692
    132  N          1.2750   17.0400   38.6360 N.3   253  ASP253     -0.1239
    133  CA         0.1250   16.5720   37.8320 C.3   253  ASP253      0.1674
    134  C          0.4380   15.2010   37.2550 C.2   253  ASP253      0.2266
    135  O          1.2660   15.0910   36.3690 O.2   253  ASP253     -0.2867
    136  CB        -0.2060   17.5480   36.7120 C.3   253  ASP253      0.1410
    137  CG        -1.5710   17.2380   36.0610 C.2   253  ASP253      0.3668
    138  OD1       -2.2070   16.2070   36.4140 O.co2 253  ASP253     -0.2456
    139  OD2       -2.0090   18.0240   35.2020 O.co2 253  ASP253     -0.2456
    140  N          0.8370   14.5150   33.5650 N.3   256  LYS256     -0.1231
    141  CA         2.0580   14.9600   32.8910 C.3   256  LYS256      0.1693
    142  C          3.2440   14.1160   33.2750 C.2   256  LYS256      0.2591
    143  O          4.3720   14.5320   33.0650 O.2   256  LYS256     -0.2718
    144  CB         2.3700   16.4330   33.2060 C.3   256  LYS256      0.0285
    145  CG         1.2900   17.4230   32.8890 C.3   256  LYS256      0.0035
    146  CD         1.0420   17.5050   31.3860 C.3   256  LYS256      0.0206
    147  CE        -0.0210   18.5340   31.0490 C.3   256  LYS256      0.1093
    148  NZ         0.4740   19.9350   31.3790 N.3   256  LYS256     -0.1314
    149  N          2.9980   12.9210   33.8170 N.am  257  ARG257     -0.1980
    150  CA         4.0700   11.9770   34.1810 C.3   257  ARG257      0.1597
    151  C          5.0260   11.5780   33.0400 C.2   257  ARG257      0.2287
    152  O          6.2020   11.2800   33.2810 O.2   257  ARG257     -0.2864
    153  CB         3.4930   10.7240   34.8620 C.3   257  ARG257      0.0334
    154  CG         2.9940    9.6170   33.9290 C.3   257  ARG257      0.0492
    155  CD         2.4020    8.4280   34.7060 C.3   257  ARG257      0.2205
    156  NE         1.1120    8.7900   35.2860 N.pl3 257  ARG257     -0.0865
    157  CZ        -0.0140    8.9550   34.5850 C.cat 257  ARG257      0.5346
    158  NH1       -0.0220    8.8080   33.2640 N.pl3 257  ARG257      0.1354
    159  NH2       -1.1330    9.3040   35.2080 N.pl3 257  ARG257      0.1354
    160  N          6.3970   13.5350   31.1500 N.3   259  GLU259     -0.1231
    161  CA         7.3680   14.6470   31.0410 C.3   259  GLU259      0.1699
    162  C          8.4080   14.6440   32.1740 C.2   259  GLU259      0.2592
    163  O          9.2380   15.5540   32.2920 O.2   259  GLU259     -0.2718
    164  CB         6.6430   15.9950   30.9890 C.3   259  GLU259      0.0402
    165  CG         5.6440   16.0940   29.8440 C.3   259  GLU259      0.1161
    166  CD         4.8720   17.3970   29.8020 C.2   259  GLU259      0.3649
    167  OE1        5.2630   18.3940   30.4730 O.co2 259  GLU259     -0.2457
    168  OE2        3.8780   17.4240   29.0540 O.co2 259  GLU259     -0.2457
    169  N          8.3480   13.6110   32.9980 N.am  260  VAL260     -0.1980
    170  CA         9.3350   13.3610   34.0470 C.3   260  VAL260      0.1595
    171  C         10.8010   13.5760   33.6260 C.2   260  VAL260      0.2287
    172  O         11.5010   14.3210   34.3010 O.2   260  VAL260     -0.2864
    173  CB         9.0970   11.9850   34.7320 C.3   260  VAL260      0.0276
    174  CG1       10.3700   11.4590   35.3880 C.3   260  VAL260      0.0022
    175  CG2        7.9700   12.1270   35.7690 C.3   260  VAL260      0.0022
    176  N         11.4590   17.1610   33.0850 N.3   263  GLY263     -0.1210
    177  CA        11.3670   17.7700   34.3950 C.3   263  GLY263      0.1956
    178  C         12.6060   17.5030   35.2430 C.2   263  GLY263      0.2611
    179  O         13.0690   18.4110   35.9690 O.2   263  GLY263     -0.2717
    180  N         13.1660   16.2910   35.1340 N.am  264  GLN264     -0.1979
    181  CA        14.4200   15.9780   35.7970 C.3   264  GLN264      0.1601
    182  C         15.5840   16.8060   35.2500 C.2   264  GLN264      0.2287
    183  O         16.3570   17.3780   36.0360 O.2   264  GLN264     -0.2864
    184  CB        14.7060   14.4640   35.7890 C.3   264  GLN264      0.0394
    185  CG        13.7150   13.6300   36.6810 C.3   264  GLN264      0.0908
    186  CD        14.0140   13.8350   38.1550 C.2   264  GLN264      0.2608
    187  OE1       15.1580   13.7360   38.5640 O.2   264  GLN264     -0.2717
    188  NE2       13.0040   14.1760   38.9380 N.am  264  GLN264     -0.0878
    189  N         15.3870   20.2570   36.7540 N.3   267  PHE267     -0.1241
    190  CA        15.8550   20.2110   38.1440 C.3   267  PHE267      0.1605
    191  C         17.3650   20.1320   38.2440 C.2   267  PHE267      0.2264
    192  O         17.9680   20.8370   39.0240 O.2   267  PHE267     -0.2867
    193  CB        15.2530   19.0080   38.8860 C.3   267  PHE267      0.0534
    194  CG        15.5150   19.0410   40.3830 C.ar  267  PHE267     -0.0203
    195  CD1       14.8140   19.9370   41.1870 C.ar  267  PHE267     -0.0042
    196  CD2       16.4630   18.2020   40.9640 C.ar  267  PHE267     -0.0042
    197  CE1       15.0400   20.0250   42.5580 C.ar  267  PHE267     -0.0003
    198  CE2       16.6900   18.2610   42.3730 C.ar  267  PHE267     -0.0003
    199  CZ        15.9720   19.1850   43.1520 C.ar  267  PHE267     -0.0000
@<TRIPOS>BOND
     1   168   166   ar
     2   166   165    1
     3   166   167   ar
     4   165   164    1
     5   164   161    1
     6   161   160    1
     7   161   162    1
     8   147   148    1
     9   147   146    1
    10   146   145    1
    11   162   163    2
    12   162   169   am
    13   145   144    1
    14   141   144    1
    15   141   142    1
    16   141   140    1
    17   169   170    1
    18   151   152    2
    19   151   150    1
    20   143   142    2
    21   176   177    1
    22   158   157    1
    23   142   149   am
    24   171   170    1
    25   171   172    2
    26   149   150    1
    27   154   155    1
    28   154   153    1
    29   170   173    1
    30   150   153    1
    31   177   178    1
    32   122   121    1
    33   122   123    1
    34   157   159    1
    35   157   156    2
    36   155   156    1
    37   173   174    1
    38   173   175    1
    39   121   118    1
    40   180   178   am
    41   180   181    1
    42   139   137   ar
    43   178   179    2
    44   182   181    1
    45   182   183    2
    46   184   181    1
    47   184   185    1
    48   123   117    1
    49   118   117    1
    50   118   119    1
    51   137   138   ar
    52   137   136    1
    53   135   134    2
    54   120   119    2
    55   185   186    1
    56   136   133    1
    57   189   190    1
    58   119   124   am
    59   134   133    1
    60   124   125    1
    61   133   132    1
    62   114   116   ar
    63   114   112   ar
    64   116   115   ar
    65    91    90    1
    66   190   191    1
    67   190   193    1
    68   186   187    2
    69   186   188   am
    70   191   192    2
    71   125   126    1
    72   125   128    1
    73    90    88   ar
    74    90    89   ar
    75   112   111   ar
    76   112   110   ar
    77   111   109   ar
    78   193   194    1
    79   115   113   ar
    80    88    86   ar
    81    89    87   ar
    82   126   127    2
    83   128   129    1
    84   110   113   ar
    85   110   108   ar
    86    86    85   ar
    87    87    85   ar
    88   109   108   ar
    89   129   130    1
    90    85    84    1
    91   194   196   ar
    92   194   195   ar
    93   108   107    1
    94    66    64    1
    95    71    68    1
    96   196   198   ar
    97    84    81    1
    98    64    65    1
    99    64    61    1
   100   195   197   ar
   101   130   131    1
   102    62    63    2
   103    62    61    1
   104   107   104    1
   105    56    55    2
   106    69    68    1
   107    69    70    2
   108    68    67    1
   109    61    60    1
   110    58    57    1
   111    57    54    1
   112    57    59    1
   113   198   199   ar
   114   104   103    1
   115   104   105    1
   116    81    82    1
   117    81    80    1
   118   197   199   ar
   119    55    54    1
   120    54    53    1
   121    83    82    2
   122    99   101   ar
   123    99    97   ar
   124   106   105    2
   125   103    94   am
   126    80    74   am
   127    96    97    1
   128    96    93    1
   129   101   102   ar
   130    95    94    2
   131    94    93    1
   132    97    98   ar
   133    50    49    2
   134    53    49   am
   135    93    92    1
   136    78    76    1
   137    74    75    2
   138    74    73    1
   139    49    48    1
   140    76    73    1
   141    76    77    1
   142   102   100   ar
   143    52    51    1
   144    79    77    1
   145    98   100   ar
   146    73    72    1
   147    30    28    1
   148    51    48    1
   149    48    47    1
   150    45    44    1
   151    42    41    2
   152    46    44    1
   153    28    29    1
   154    28    27    1
   155    43    44    1
   156    43    40    1
   157    41    40    1
   158    40    39    1
   159    26    25    2
   160    27    24    1
   161    25    24    1
   162    12    11    1
   163     9     7   ar
   164     9    11   ar
   165     7     6   ar
   166    11    10   ar
   167     6     8   ar
   168     6     5    1
   169    10     8   ar
   170    39    33   am
   171    24    23    1
   172     5     2    1
   173    34    33    2
   174    33    32    1
   175     2     1    1
   176     2     3    1
   177    21    22   ar
   178    21    19   ar
   179    22    20   ar
   180    19    18   ar
   181    32    31    1
   182    32    35    1
   183     3     4    2
   184     3    13   am
   185    35    36    1
   186    36    38   ar
   187    36    37   ar
   188    13    14    1
   189    20    18   ar
   190    18    17    1
   191    14    17    1
   192    14    15    1
   193    15    16    2
