@<TRIPOS>MOLECULE
tmp/3qpoA00.pdb
 194 187 0 0 0
SMALL
GASTEIGER

@<TRIPOS>ATOM
      1  N          8.0030    9.1510   50.2910 N.3    62  TYR62      -0.1227
      2  CA         9.3510    9.7310   50.1700 C.3    62  TYR62       0.1736
      3  C          9.8000   10.4750   51.4440 C.2    62  TYR62       0.2595
      4  O         10.8700   10.1680   51.9790 O.2    62  TYR62      -0.2718
      5  CB         9.4450   10.6660   48.9610 C.3    62  TYR62       0.0548
      6  CG        10.8200   11.3110   48.7730 C.ar   62  TYR62      -0.0200
      7  CD1       11.9420   10.5350   48.5650 C.ar   62  TYR62      -0.0009
      8  CD2       10.9900   12.6890   48.8610 C.ar   62  TYR62      -0.0009
      9  CE1       13.1560   11.0710   48.4210 C.ar   62  TYR62       0.0417
     10  CE2       12.2450   13.2500   48.7490 C.ar   62  TYR62       0.0417
     11  CZ        13.3210   12.4270   48.5100 C.ar   62  TYR62       0.1957
     12  OH        14.6000   12.8870   48.3500 O.3    62  TYR62      -0.2866
     13  N          9.0180   11.4350   51.9260 N.am   63  HIS63      -0.1975
     14  CA         9.4250   12.1830   53.1200 C.3    63  HIS63       0.1656
     15  C          9.2490   11.3850   54.3930 C.2    63  HIS63       0.2291
     16  O          8.5510   11.8120   55.3130 O.2    63  HIS63      -0.2864
     17  CB         8.7880   13.5790   53.2070 C.3    63  HIS63       0.0771
     18  CG         9.2420   14.5050   52.1260 C.ar   63  HIS63       0.0820
     19  ND1       10.5370   14.9880   52.0460 N.ar   63  HIS63      -0.2267
     20  CD2        8.6140   14.9360   51.0070 C.ar   63  HIS63       0.1154
     21  CE1       10.6590   15.7220   50.9490 C.ar   63  HIS63       0.1986
     22  NE2        9.5110   15.7050   50.3040 N.ar   63  HIS63      -0.2212
     23  N         13.5720   24.5230   50.1400 N.3   173  LEU173     -0.1245
     24  CA        14.2780   24.7600   48.8840 C.3   173  LEU173      0.1561
     25  C         13.9900   26.1500   48.2810 C.2   173  LEU173      0.2260
     26  O         14.7220   26.6350   47.4090 O.2   173  LEU173     -0.2867
     27  CB        13.9310   23.6750   47.8680 C.3   173  LEU173      0.0270
     28  CG        14.8380   23.6680   46.6060 C.3   173  LEU173      0.0019
     29  CD1       16.2340   23.1110   46.9000 C.3   173  LEU173      0.0001
     30  CD2       14.1900   22.9100   45.4640 C.3   173  LEU173      0.0001
     31  N         17.6560   29.0170   46.2990 N.3   177  PHE177     -0.1241
     32  CA        17.9790   29.8070   45.1060 C.3   177  PHE177      0.1605
     33  C         18.7430   31.0940   45.4680 C.2   177  PHE177      0.2264
     34  O         19.8190   31.3300   44.9300 O.2   177  PHE177     -0.2867
     35  CB        16.7050   30.0570   44.3150 C.3   177  PHE177      0.0534
     36  CG        16.0640   28.7650   43.8230 C.ar  177  PHE177     -0.0203
     37  CD1       16.5420   28.1420   42.6630 C.ar  177  PHE177     -0.0042
     38  CD2       15.0440   28.1550   44.5410 C.ar  177  PHE177     -0.0042
     39  CE1       15.9670   26.9540   42.2070 C.ar  177  PHE177     -0.0003
     40  CE2       14.4800   26.9540   44.1040 C.ar  177  PHE177     -0.0003
     41  CZ        14.9390   26.3630   42.9230 C.ar  177  PHE177     -0.0000
     42  N         18.9710   16.7770   48.7100 N.3   213  LEU213     -0.1245
     43  CA        18.7510   16.4260   47.3040 C.3   213  LEU213      0.1561
     44  C         19.5230   15.2220   46.8190 C.2   213  LEU213      0.2260
     45  O         19.4610   14.9060   45.6010 O.2   213  LEU213     -0.2867
     46  CB        19.0820   17.6410   46.3780 C.3   213  LEU213      0.0270
     47  CG        18.2220   18.9160   46.4940 C.3   213  LEU213      0.0019
     48  CD1       18.6670   19.9410   45.4660 C.3   213  LEU213      0.0001
     49  CD2       16.7450   18.6150   46.2880 C.3   213  LEU213      0.0001
     50  N         19.5360   12.1830   46.4380 N.3   215  SER215     -0.1202
     51  CA        19.0430   11.1190   45.6300 C.3   215  SER215      0.2020
     52  C         19.6780   11.2000   44.2470 C.2   215  SER215      0.2618
     53  O         19.9760   10.1640   43.6320 O.2   215  SER215     -0.2717
     54  CB        17.5170   11.1480   45.5450 C.3   215  SER215      0.2103
     55  OG        17.0250   11.7140   44.3460 O.3   215  SER215     -0.2182
     56  N         19.9210   12.4240   43.7800 N.am  216  VAL216     -0.1979
     57  CA        20.4910   12.6190   42.4380 C.3   216  VAL216      0.1595
     58  C         22.0080   12.4480   42.3650 C.2   216  VAL216      0.2287
     59  O         22.5960   12.6710   41.3040 O.2   216  VAL216     -0.2864
     60  CB        20.0690   13.9850   41.8290 C.3   216  VAL216      0.0276
     61  CG1       18.5330   14.1350   41.8560 C.3   216  VAL216      0.0022
     62  CG2       20.7670   15.2210   42.5230 C.3   216  VAL216      0.0022
     63  N         13.3430    8.3050   42.4060 N.3   227  ALA227     -0.1245
     64  CA        12.4230    9.1810   41.7160 C.3   227  ALA227      0.1562
     65  C         10.9590    8.6440   41.6920 C.2   227  ALA227      0.2260
     66  O         10.0270    9.4460   41.5660 O.2   227  ALA227     -0.2867
     67  CB        12.8890    9.4160   40.2740 C.3   227  ALA227      0.0290
     68  N          9.5360    9.9840   44.9730 N.3   230  ILE230     -0.1231
     69  CA         9.3960   11.4380   44.8360 C.3   230  ILE230      0.1692
     70  C          8.1070   11.8150   44.0520 C.2   230  ILE230      0.2592
     71  O          7.2610   12.5810   44.5610 O.2   230  ILE230     -0.2718
     72  CB        10.6570   12.1370   44.2350 C.3   230  ILE230      0.0266
     73  CG1       11.8850   11.8520   45.0950 C.3   230  ILE230      0.0019
     74  CG2       10.4340   13.6650   44.1620 C.3   230  ILE230      0.0020
     75  CD1       13.1930   12.4030   44.5770 C.3   230  ILE230      0.0001
     76  N          7.9290   11.2420   42.8740 N.am  231  TYR231     -0.1976
     77  CA         6.7420   11.4950   42.0820 C.3   231  TYR231      0.1639
     78  C          5.4200   10.9790   42.6650 C.2   231  TYR231      0.2290
     79  O          4.3790   11.5670   42.4130 O.2   231  TYR231     -0.2864
     80  CB         6.9270   11.0010   40.6470 C.3   231  TYR231      0.0560
     81  CG         7.7570   11.8950   39.8510 C.ar  231  TYR231     -0.0198
     82  CD1        7.2270   13.1070   39.3210 C.ar  231  TYR231     -0.0009
     83  CD2        9.0900   11.5750   39.5820 C.ar  231  TYR231     -0.0009
     84  CE1        8.0070   13.9370   38.5740 C.ar  231  TYR231      0.0417
     85  CE2        9.8830   12.4170   38.8570 C.ar  231  TYR231      0.0417
     86  CZ         9.3400   13.6030   38.3300 C.ar  231  TYR231      0.1957
     87  OH        10.1590   14.4250   37.5910 O.3   231  TYR231     -0.2866
     88  N          4.4710   13.8350   44.7570 N.3   234  PHE234     -0.1241
     89  CA         4.1090   14.9520   43.8780 C.3   234  PHE234      0.1605
     90  C          2.7130   14.7440   43.2860 C.2   234  PHE234      0.2264
     91  O          1.9130   15.6620   43.3090 O.2   234  PHE234     -0.2867
     92  CB         5.1440   15.1470   42.7760 C.3   234  PHE234      0.0534
     93  CG         6.4450   15.7990   43.2430 C.ar  234  PHE234     -0.0203
     94  CD1        6.5830   16.3430   44.5030 C.ar  234  PHE234     -0.0042
     95  CD2        7.5160   15.8390   42.4210 C.ar  234  PHE234     -0.0042
     96  CE1        7.7870   16.9370   44.8920 C.ar  234  PHE234     -0.0003
     97  CE2        8.7220   16.4120   42.8040 C.ar  234  PHE234     -0.0003
     98  CZ         8.8520   16.9670   44.0360 C.ar  234  PHE234     -0.0000
     99  N          0.7290   22.5360   39.0920 N.3   249  ILE249     -0.1231
    100  CA         1.8810   22.5950   38.1970 C.3   249  ILE249      0.1678
    101  C          2.1270   21.2170   37.5560 C.2   249  ILE249      0.2434
    102  O          1.7530   20.1870   38.1020 O.2   249  ILE249     -0.2733
    103  CB         3.1240   23.1260   38.9240 C.3   249  ILE249      0.0265
    104  CG1        3.6050   22.1670   40.0320 C.3   249  ILE249      0.0019
    105  CG2        2.8370   24.5180   39.5190 C.3   249  ILE249      0.0020
    106  CD1        4.9440   22.6450   40.6320 C.3   249  ILE249      0.0001
    107  N          2.6660   21.2060   36.3470 N.am  250  PRO250     -0.2718
    108  CA         2.9360   19.9590   35.6360 C.3   250  PRO250      0.1535
    109  C          3.6210   18.8550   36.4570 C.2   250  PRO250      0.2598
    110  O          3.2150   17.6920   36.4510 O.2   250  PRO250     -0.2715
    111  CB         3.8200   20.4290   34.4850 C.3   250  PRO250      0.0310
    112  CG         3.2270   21.8210   34.1380 C.3   250  PRO250      0.0237
    113  CD         3.0190   22.4020   35.5580 C.3   250  PRO250      0.0939
    114  N          4.6480   19.2310   37.1830 N.am  251  MET251     -0.1964
    115  CA         5.4090   18.2890   37.9960 C.3   251  MET251      0.1736
    116  C          4.5300   17.4610   38.9820 C.2   251  MET251      0.2616
    117  O          4.8750   16.3490   39.3290 O.2   251  MET251     -0.2715
    118  CB         6.4120   19.1370   38.8070 C.3   251  MET251      0.0427
    119  CG         7.1940   18.4280   39.8090 C.3   251  MET251      0.0599
    120  SD         8.2750   19.6550   40.6690 S.3   251  MET251     -0.1393
    121  CE         7.5480   19.8410   42.1960 C.3   251  MET251      0.0692
    122  N          3.4130   18.0380   39.4130 N.am  252  MET252     -0.1977
    123  CA         2.4930   17.3840   40.3450 C.3   252  MET252      0.1605
    124  C          1.2970   16.7230   39.6600 C.2   252  MET252      0.2287
    125  O          0.4690   16.1070   40.3160 O.2   252  MET252     -0.2864
    126  CB         1.9950   18.3910   41.3780 C.3   252  MET252      0.0413
    127  CG         3.1040   19.1500   42.0290 C.3   252  MET252      0.0598
    128  SD         2.6310   19.8270   43.6030 S.3   252  MET252     -0.1393
    129  CE         4.2050   20.6080   44.0380 C.3   252  MET252      0.0692
    130  N          0.7010   14.3780   33.2090 N.3   256  LYS256     -0.1245
    131  CA         1.8840   14.7820   32.4490 C.3   256  LYS256      0.1561
    132  C          3.1020   13.9330   32.7430 C.2   256  LYS256      0.2260
    133  O          4.2130   14.4050   32.5290 O.2   256  LYS256     -0.2867
    134  CB         2.2220   16.2690   32.6610 C.3   256  LYS256      0.0271
    135  CG         1.0530   17.2010   32.5720 C.3   256  LYS256      0.0035
    136  CD         0.7780   17.6750   31.1710 C.3   256  LYS256      0.0206
    137  CE        -0.2420   18.8380   31.1630 C.3   256  LYS256      0.1093
    138  NZ         0.4300   20.1740   31.3050 N.3   256  LYS256     -0.1314
    139  N          6.3060   13.5720   30.5270 N.3   259  GLU259     -0.1231
    140  CA         7.2920   14.6760   30.5930 C.3   259  GLU259      0.1699
    141  C          8.2870   14.6110   31.7670 C.2   259  GLU259      0.2592
    142  O          9.0430   15.5380   31.9970 O.2   259  GLU259     -0.2718
    143  CB         6.5720   16.0120   30.6380 C.3   259  GLU259      0.0402
    144  CG         5.6980   16.2530   29.4170 C.3   259  GLU259      0.1161
    145  CD         4.8690   17.5000   29.5670 C.2   259  GLU259      0.3649
    146  OE1        5.2670   18.3860   30.3680 O.co2 259  GLU259     -0.2457
    147  OE2        3.8060   17.5510   28.9180 O.co2 259  GLU259     -0.2457
    148  N          8.2960   13.5180   32.5010 N.am  260  VAL260     -0.1980
    149  CA         9.1720   13.3680   33.6490 C.3   260  VAL260      0.1595
    150  C         10.6360   13.5490   33.2220 C.2   260  VAL260      0.2287
    151  O         11.3880   14.2670   33.8810 O.2   260  VAL260     -0.2864
    152  CB         8.9030   11.9920   34.3920 C.3   260  VAL260      0.0276
    153  CG1       10.1130   11.4600   35.0590 C.3   260  VAL260      0.0022
    154  CG2        7.7660   12.1530   35.4030 C.3   260  VAL260      0.0022
    155  N         11.4450   17.1130   32.7210 N.3   263  GLY263     -0.1210
    156  CA        11.3760   17.7170   34.0330 C.3   263  GLY263      0.1956
    157  C         12.6270   17.5180   34.8660 C.2   263  GLY263      0.2611
    158  O         13.0590   18.4660   35.5640 O.2   263  GLY263     -0.2717
    159  N         13.1950   16.3060   34.7870 N.am  264  GLN264     -0.1979
    160  CA        14.4300   15.9790   35.4360 C.3   264  GLN264      0.1601
    161  C         15.5600   16.8100   34.8620 C.2   264  GLN264      0.2287
    162  O         16.3430   17.3950   35.6160 O.2   264  GLN264     -0.2864
    163  CB        14.7200   14.4550   35.3640 C.3   264  GLN264      0.0394
    164  CG        13.7360   13.5890   36.1950 C.3   264  GLN264      0.0908
    165  CD        13.9280   13.8550   37.6690 C.2   264  GLN264      0.2608
    166  OE1       15.0460   13.7620   38.1420 O.2   264  GLN264     -0.2717
    167  NE2       12.8740   14.3040   38.3600 N.am  264  GLN264     -0.0878
    168  N         15.2420   19.6920   33.6650 N.3   266  GLY266     -0.1210
    169  CA        15.0140   21.0590   34.1190 C.3   266  GLY266      0.1956
    170  C         15.6210   21.2410   35.5020 C.2   266  GLY266      0.2611
    171  O         16.4460   22.1360   35.7540 O.2   266  GLY266     -0.2717
    172  N         15.2330   20.3220   36.3720 N.am  267  PHE267     -0.1976
    173  CA        15.7080   20.2610   37.7330 C.3   267  PHE267      0.1639
    174  C         17.2220   20.1490   37.8600 C.2   267  PHE267      0.2290
    175  O         17.8200   20.8210   38.6590 O.2   267  PHE267     -0.2864
    176  CB        15.0480   19.0680   38.4150 C.3   267  PHE267      0.0560
    177  CG        15.4650   18.9080   39.8220 C.ar  267  PHE267     -0.0200
    178  CD1       14.9340   19.7470   40.8020 C.ar  267  PHE267     -0.0042
    179  CD2       16.4190   17.9700   40.1600 C.ar  267  PHE267     -0.0042
    180  CE1       15.3320   19.6360   42.0760 C.ar  267  PHE267     -0.0003
    181  CE2       16.8050   17.8360   41.4670 C.ar  267  PHE267     -0.0003
    182  CZ        16.2650   18.6790   42.4140 C.ar  267  PHE267     -0.0000
    183  N         18.8490   23.5990   36.6240 N.3   270  ALA270     -0.1231
    184  CA        18.4890   24.7940   37.3960 C.3   270  ALA270      0.1694
    185  C         18.7570   24.6610   38.8780 C.2   270  ALA270      0.2591
    186  O         18.9050   25.6640   39.5510 O.2   270  ALA270     -0.2718
    187  CB        16.9790   25.1380   37.1940 C.3   270  ALA270      0.0304
    188  N         18.8180   23.4290   39.3770 N.am  271  VAL271     -0.1980
    189  CA        18.9620   23.2020   40.8220 C.3   271  VAL271      0.1595
    190  C         20.1780   22.2940   41.1710 C.2   271  VAL271      0.2287
    191  O         21.0920   22.7280   41.8690 O.2   271  VAL271     -0.2864
    192  CB        17.6520   22.5740   41.4210 C.3   271  VAL271      0.0276
    193  CG1       17.7330   22.4830   42.9200 C.3   271  VAL271      0.0022
    194  CG2       16.3800   23.3240   40.9890 C.3   271  VAL271      0.0022
@<TRIPOS>BOND
     1   147   145   ar
     2   144   145    1
     3   144   143    1
     4   145   146   ar
     5   139   140    1
     6   140   143    1
     7   140   141    1
     8   137   136    1
     9   137   138    1
    10   136   135    1
    11   141   142    2
    12   141   148   am
    13   131   134    1
    14   131   132    1
    15   131   130    1
    16   148   149    1
    17   133   132    2
    18   135   134    1
    19   155   156    1
    20   150   149    1
    21   150   151    2
    22   149   152    1
    23   168   169    1
    24   156   157    1
    25   169   170    1
    26   112   111    1
    27   112   113    1
    28   152   153    1
    29   152   154    1
    30   111   108    1
    31   159   157   am
    32   159   160    1
    33   161   160    1
    34   161   162    2
    35   157   158    2
    36   163   160    1
    37   163   164    1
    38   170   171    2
    39   170   172   am
    40   113   107    1
    41   108   107    1
    42   108   109    1
    43   164   165    1
    44   107   101   am
    45   172   173    1
    46   110   109    2
    47   109   114   am
    48   183   184    1
    49   114   115    1
    50   187   184    1
    51   184   185    1
    52   101   102    2
    53   101   100    1
    54    87    86    1
    55   165   166    2
    56   165   167   am
    57   173   174    1
    58   173   176    1
    59   174   175    2
    60   115   118    1
    61   115   116    1
    62   100   103    1
    63   100    99    1
    64    86    84   ar
    65    86    85   ar
    66   176   177    1
    67    84    82   ar
    68   118   119    1
    69    85    83   ar
    70   185   188   am
    71   185   186    2
    72   103   105    1
    73   103   104    1
    74   116   117    2
    75   116   122   am
    76    82    81   ar
    77   188   189    1
    78   122   123    1
    79    83    81   ar
    80   124   125    2
    81   124   123    1
    82   119   120    1
    83   177   179   ar
    84   177   178   ar
    85    81    80    1
    86   104   106    1
    87   179   181   ar
    88    67    64    1
    89   123   126    1
    90    80    77    1
    91   120   121    1
    92   178   180   ar
    93   189   190    1
    94   189   192    1
    95   194   192    1
    96   190   191    2
    97    59    58    2
    98   126   127    1
    99   192   193    1
   100   181   182   ar
   101    66    65    2
   102    65    64    1
   103    64    63    1
   104    60    61    1
   105    60    57    1
   106    60    62    1
   107   127   128    1
   108   180   182   ar
   109    77    78    1
   110    77    76    1
   111    39    37   ar
   112    39    41   ar
   113    58    57    1
   114    79    78    2
   115    95    97   ar
   116    95    93   ar
   117    57    56    1
   118    37    36   ar
   119    92    93    1
   120    92    89    1
   121    97    98   ar
   122    76    70   am
   123    41    40   ar
   124    93    94   ar
   125    90    91    2
   126    90    89    1
   127   128   129    1
   128    53    52    2
   129    56    52   am
   130    36    35    1
   131    36    38   ar
   132    89    88    1
   133    98    96   ar
   134    70    71    2
   135    70    69    1
   136    40    38   ar
   137    74    72    1
   138    72    69    1
   139    72    73    1
   140    52    51    1
   141    35    32    1
   142    55    54    1
   143    94    96   ar
   144    75    73    1
   145    69    68    1
   146    34    33    2
   147    32    33    1
   148    32    31    1
   149    30    28    1
   150    48    47    1
   151    54    51    1
   152    45    44    2
   153    51    50    1
   154    49    47    1
   155    46    47    1
   156    46    43    1
   157    28    29    1
   158    28    27    1
   159    44    43    1
   160    43    42    1
   161    26    25    2
   162    27    24    1
   163    25    24    1
   164    12    11    1
   165     9    11   ar
   166     9     7   ar
   167    11    10   ar
   168     7     6   ar
   169    10     8   ar
   170     6     8   ar
   171     6     5    1
   172    24    23    1
   173     5     2    1
   174     2     1    1
   175     2     3    1
   176    22    21   ar
   177    22    20   ar
   178    21    19   ar
   179    20    18   ar
   180     3    13   am
   181     3     4    2
   182    13    14    1
   183    19    18   ar
   184    18    17    1
   185    14    17    1
   186    14    15    1
   187    15    16    2
