@<TRIPOS>MOLECULE
tmp/3qppA00.pdb
 219 214 0 0 0
SMALL
GASTEIGER

@<TRIPOS>ATOM
      1  N          8.1540    9.1170   51.3200 N.3    62  TYR62      -0.1227
      2  CA         9.4970    9.6790   51.1730 C.3    62  TYR62       0.1736
      3  C         10.0180   10.3870   52.4370 C.2    62  TYR62       0.2595
      4  O         11.1140   10.0650   52.9280 O.2    62  TYR62      -0.2718
      5  CB         9.5610   10.6610   49.9950 C.3    62  TYR62       0.0548
      6  CG        10.9480   11.3150   49.8650 C.ar   62  TYR62      -0.0200
      7  CD1       12.0960   10.5400   49.6440 C.ar   62  TYR62      -0.0009
      8  CD2       11.1030   12.6970   50.0260 C.ar   62  TYR62      -0.0009
      9  CE1       13.3610   11.1220   49.5520 C.ar   62  TYR62       0.0417
     10  CE2       12.3660   13.2940   49.9520 C.ar   62  TYR62       0.0417
     11  CZ        13.4780   12.5060   49.7130 C.ar   62  TYR62       0.1957
     12  OH        14.7010   13.0980   49.6110 O.3    62  TYR62      -0.2866
     13  N          9.2440   11.3360   52.9630 N.am   63  HIS63      -0.1975
     14  CA         9.7180   12.0980   54.1340 C.3    63  HIS63       0.1656
     15  C          9.4910   11.3320   55.4270 C.2    63  HIS63       0.2291
     16  O          8.7710   11.7830   56.3060 O.2    63  HIS63      -0.2864
     17  CB         9.0680   13.4760   54.2150 C.3    63  HIS63       0.0771
     18  CG         9.5200   14.4240   53.1510 C.ar   63  HIS63       0.0820
     19  ND1        8.8100   14.6110   51.9840 N.ar   63  HIS63      -0.2267
     20  CD2       10.6030   15.2330   53.0670 C.ar   63  HIS63       0.1154
     21  CE1        9.4340   15.5020   51.2290 C.ar   63  HIS63       0.1986
     22  NE2       10.5230   15.8950   51.8650 N.ar   63  HIS63      -0.2212
     23  N         13.6400   24.4300   51.3550 N.3   173  LEU173     -0.1245
     24  CA        14.3330   24.6560   50.0830 C.3   173  LEU173      0.1561
     25  C         14.0610   26.0530   49.5030 C.2   173  LEU173      0.2260
     26  O         14.8520   26.5430   48.6980 O.2   173  LEU173     -0.2867
     27  CB        13.9500   23.5920   49.0320 C.3   173  LEU173      0.0270
     28  CG        14.8840   23.5530   47.8000 C.3   173  LEU173      0.0019
     29  CD1       16.3080   23.0460   48.1180 C.3   173  LEU173      0.0001
     30  CD2       14.2740   22.7460   46.6830 C.3   173  LEU173      0.0001
     31  N         17.7590   29.0600   47.5580 N.3   177  PHE177     -0.1241
     32  CA        18.1270   29.8410   46.3820 C.3   177  PHE177      0.1605
     33  C         18.8910   31.1080   46.7800 C.2   177  PHE177      0.2264
     34  O         19.9740   31.3720   46.2480 O.2   177  PHE177     -0.2867
     35  CB        16.8820   30.1140   45.5080 C.3   177  PHE177      0.0534
     36  CG        16.1740   28.8470   45.0980 C.ar  177  PHE177     -0.0203
     37  CD1       16.5480   28.1830   43.9240 C.ar  177  PHE177     -0.0042
     38  CD2       15.1960   28.2720   45.9220 C.ar  177  PHE177     -0.0042
     39  CE1       15.9180   26.9990   43.5480 C.ar  177  PHE177     -0.0003
     40  CE2       14.5710   27.0850   45.5520 C.ar  177  PHE177     -0.0003
     41  CZ        14.9350   26.4550   44.3440 C.ar  177  PHE177     -0.0000
     42  N         18.9440   16.8830   49.9660 N.3   213  LEU213     -0.1245
     43  CA        18.7520   16.5160   48.5590 C.3   213  LEU213      0.1561
     44  C         19.5670   15.3300   48.0860 C.2   213  LEU213      0.2260
     45  O         19.5750   15.0360   46.8860 O.2   213  LEU213     -0.2867
     46  CB        19.0610   17.7310   47.6490 C.3   213  LEU213      0.0270
     47  CG        18.2080   18.9800   47.8680 C.3   213  LEU213      0.0019
     48  CD1       18.6530   20.1110   46.8910 C.3   213  LEU213      0.0001
     49  CD2       16.7140   18.6970   47.6920 C.3   213  LEU213      0.0001
     50  N         19.4980   12.2730   47.5790 N.3   215  SER215     -0.1202
     51  CA        19.0700   11.1810   46.7100 C.3   215  SER215      0.2020
     52  C         19.7480   11.3290   45.3440 C.2   215  SER215      0.2618
     53  O         20.0970   10.3350   44.7050 O.2   215  SER215     -0.2717
     54  CB        17.5330   11.0560   46.5910 C.3   215  SER215      0.2103
     55  OG        16.9540   11.9050   45.5980 O.3   215  SER215     -0.2182
     56  N         20.0010   12.5710   44.9500 N.am  216  VAL216     -0.1979
     57  CA        20.6030   12.8110   43.6250 C.3   216  VAL216      0.1595
     58  C         22.1230   12.5650   43.5880 C.2   216  VAL216      0.2287
     59  O         22.7730   12.7210   42.5270 O.2   216  VAL216     -0.2864
     60  CB        20.2170   14.2230   43.1000 C.3   216  VAL216      0.0276
     61  CG1       18.6930   14.3910   43.0370 C.3   216  VAL216      0.0022
     62  CG2       20.8700   15.3540   43.9450 C.3   216  VAL216      0.0022
     63  N         13.4400    8.4200   43.5330 N.3   227  ALA227     -0.1245
     64  CA        12.5670    9.3190   42.7810 C.3   227  ALA227      0.1562
     65  C         11.1110    8.7980   42.7870 C.2   227  ALA227      0.2260
     66  O         10.1690    9.5860   42.8460 O.2   227  ALA227     -0.2867
     67  CB        13.0840    9.4680   41.3290 C.3   227  ALA227      0.0290
     68  N          9.6090   10.0420   46.0210 N.3   230  ILE230     -0.1231
     69  CA         9.4710   11.5040   45.9240 C.3   230  ILE230      0.1692
     70  C          8.1990   11.8630   45.1590 C.2   230  ILE230      0.2592
     71  O          7.3840   12.6470   45.6570 O.2   230  ILE230     -0.2718
     72  CB        10.7450   12.1560   45.3240 C.3   230  ILE230      0.0266
     73  CG1       11.9150   11.9690   46.2850 C.3   230  ILE230      0.0019
     74  CG2       10.5390   13.6660   45.0190 C.3   230  ILE230      0.0020
     75  CD1       13.2310   12.4870   45.8060 C.3   230  ILE230      0.0001
     76  N          8.0000   11.2720   43.9810 N.am  231  TYR231     -0.1976
     77  CA         6.7900   11.5540   43.2030 C.3   231  TYR231      0.1639
     78  C          5.4940   11.0390   43.8150 C.2   231  TYR231      0.2290
     79  O          4.4450   11.6700   43.6700 O.2   231  TYR231     -0.2864
     80  CB         6.9370   11.0760   41.7500 C.3   231  TYR231      0.0560
     81  CG         7.8210   11.9920   40.9560 C.ar  231  TYR231     -0.0198
     82  CD1        7.3930   13.2930   40.6060 C.ar  231  TYR231     -0.0009
     83  CD2        9.0970   11.5820   40.5740 C.ar  231  TYR231     -0.0009
     84  CE1        8.2320   14.1430   39.8710 C.ar  231  TYR231      0.0417
     85  CE2        9.9260   12.4150   39.8630 C.ar  231  TYR231      0.0417
     86  CZ         9.4880   13.6870   39.5000 C.ar  231  TYR231      0.1957
     87  OH        10.3470   14.4850   38.7860 O.3   231  TYR231     -0.2866
     88  N          4.4620   13.9010   45.9130 N.3   234  PHE234     -0.1227
     89  CA         4.0850   15.0470   45.1020 C.3   234  PHE234      0.1736
     90  C          2.7090   14.8220   44.4620 C.2   234  PHE234      0.2595
     91  O          1.8770   15.7420   44.4500 O.2   234  PHE234     -0.2718
     92  CB         5.1140   15.2830   43.9840 C.3   234  PHE234      0.0547
     93  CG         6.4380   15.8970   44.4370 C.ar  234  PHE234     -0.0202
     94  CD1        6.6050   16.4730   45.6910 C.ar  234  PHE234     -0.0042
     95  CD2        7.5240   15.8970   43.5620 C.ar  234  PHE234     -0.0042
     96  CE1        7.8540   17.0750   46.0530 C.ar  234  PHE234     -0.0003
     97  CE2        8.7550   16.4710   43.9130 C.ar  234  PHE234     -0.0003
     98  CZ         8.9270   17.0500   45.1690 C.ar  234  PHE234     -0.0000
     99  N          2.5050   13.6350   43.8830 N.am  235  TRP235     -0.1976
    100  CA         1.2420   13.3160   43.1940 C.3   235  TRP235      0.1640
    101  C          0.0720   13.2430   44.1470 C.2   235  TRP235      0.2290
    102  O         -0.9930   13.7400   43.8280 O.2   235  TRP235     -0.2864
    103  CB         1.3760   12.0570   42.3080 C.3   235  TRP235      0.0576
    104  CG         2.3620   12.2620   41.2010 C.ar  235  TRP235      0.0006
    105  CD1        2.7010   13.4520   40.5990 C.ar  235  TRP235      0.0946
    106  CD2        3.1320   11.2510   40.5460 C.ar  235  TRP235      0.0152
    107  NE1        3.6350   13.2320   39.6120 N.ar  235  TRP235     -0.2442
    108  CE2        3.9320   11.8960   39.5700 C.ar  235  TRP235      0.0810
    109  CE3        3.2450    9.8550   40.6990 C.ar  235  TRP235      0.0012
    110  CZ2        4.8320   11.1970   38.7430 C.ar  235  TRP235      0.0191
    111  CZ3        4.1490    9.1580   39.8870 C.ar  235  TRP235      0.0001
    112  CH2        4.9220    9.8310   38.9180 C.ar  235  TRP235      0.0015
    113  N          0.6120   22.4940   40.1830 N.3   249  ILE249     -0.1231
    114  CA         1.7390   22.5880   39.2570 C.3   249  ILE249      0.1678
    115  C          2.0330   21.2270   38.6290 C.2   249  ILE249      0.2434
    116  O          1.7290   20.1990   39.2110 O.2   249  ILE249     -0.2733
    117  CB         2.9860   23.1890   39.9140 C.3   249  ILE249      0.0265
    118  CG1        3.5040   22.3140   41.0680 C.3   249  ILE249      0.0019
    119  CG2        2.6840   24.6260   40.3790 C.3   249  ILE249      0.0020
    120  CD1        4.8430   22.8350   41.6430 C.3   249  ILE249      0.0001
    121  N          2.5440   21.2360   37.4050 N.am  250  PRO250     -0.2718
    122  CA         2.8910   20.0140   36.6730 C.3   250  PRO250      0.1535
    123  C          3.6490   18.9690   37.4760 C.2   250  PRO250      0.2598
    124  O          3.3330   17.7840   37.3640 O.2   250  PRO250     -0.2715
    125  CB         3.7550   20.5470   35.5360 C.3   250  PRO250      0.0310
    126  CG         3.1290   21.9010   35.2370 C.3   250  PRO250      0.0237
    127  CD         2.7230   22.4570   36.5830 C.3   250  PRO250      0.0939
    128  N          4.6180   19.3950   38.2870 N.am  251  MET251     -0.1964
    129  CA         5.4180   18.4510   39.0650 C.3   251  MET251      0.1736
    130  C          4.5530   17.6280   40.0340 C.2   251  MET251      0.2616
    131  O          4.9100   16.5070   40.3850 O.2   251  MET251     -0.2715
    132  CB         6.5030   19.2370   39.8330 C.3   251  MET251      0.0427
    133  CG         7.3160   18.4430   40.8270 C.3   251  MET251      0.0599
    134  SD         8.3820   19.5870   41.7790 S.3   251  MET251     -0.1393
    135  CE         7.3050   19.9940   43.1770 C.3   251  MET251      0.0692
    136  N          3.4260   18.2040   40.4590 N.am  252  MET252     -0.1977
    137  CA         2.5270   17.5410   41.4070 C.3   252  MET252      0.1605
    138  C          1.3200   16.8910   40.7310 C.2   252  MET252      0.2287
    139  O          0.4950   16.2590   41.3860 O.2   252  MET252     -0.2864
    140  CB         2.0690   18.5310   42.4840 C.3   252  MET252      0.0413
    141  CG         3.2340   18.9480   43.3850 C.3   252  MET252      0.0598
    142  SD         2.6020   19.8380   44.7460 S.3   252  MET252     -0.1393
    143  CE         4.2410   20.3900   45.4990 C.3   252  MET252      0.0692
    144  N          0.7990   14.5280   34.3660 N.3   256  LYS256     -0.1231
    145  CA         2.0020   14.9360   33.6170 C.3   256  LYS256      0.1693
    146  C          3.2240   14.0530   33.8920 C.2   256  LYS256      0.2591
    147  O          4.3450   14.4460   33.5770 O.2   256  LYS256     -0.2718
    148  CB         2.3370   16.4080   33.8840 C.3   256  LYS256      0.0285
    149  CG         1.1940   17.3710   33.6000 C.3   256  LYS256      0.0035
    150  CD         0.9920   17.5520   32.0960 C.3   256  LYS256      0.0206
    151  CE        -0.0440   18.6340   31.7920 C.3   256  LYS256      0.1093
    152  NZ         0.4400   20.0340   32.0860 N.3   256  LYS256     -0.1314
    153  N          2.9970   12.8600   34.4500 N.am  257  ARG257     -0.1980
    154  CA         4.0790   11.9590   34.8580 C.3   257  ARG257      0.1597
    155  C          5.0760   11.5860   33.7610 C.2   257  ARG257      0.2287
    156  O          6.2250   11.2990   34.0450 O.2   257  ARG257     -0.2864
    157  CB         3.5210   10.6800   35.5010 C.3   257  ARG257      0.0334
    158  CG         2.7970    9.7500   34.5350 C.3   257  ARG257      0.0492
    159  CD         2.4190    8.3860   35.1150 C.3   257  ARG257      0.2205
    160  NE         1.1100    8.3910   35.7700 N.pl3 257  ARG257     -0.0865
    161  CZ        -0.0650    8.6340   35.1700 C.cat 257  ARG257      0.5346
    162  NH1       -0.1330    8.9140   33.8700 N.pl3 257  ARG257      0.1354
    163  NH2       -1.1830    8.6120   35.8860 N.pl3 257  ARG257      0.1354
    164  N          6.3830   13.5180   31.8390 N.3   259  GLU259     -0.1231
    165  CA         7.3860   14.5990   31.7990 C.3   259  GLU259      0.1699
    166  C          8.3830   14.5870   32.9860 C.2   259  GLU259      0.2592
    167  O          9.1560   15.5230   33.1470 O.2   259  GLU259     -0.2718
    168  CB         6.7180   15.9820   31.6640 C.3   259  GLU259      0.0402
    169  CG         5.6640   16.0920   30.5560 C.3   259  GLU259      0.1161
    170  CD         4.8820   17.4010   30.5770 C.2   259  GLU259      0.3649
    171  OE1        5.3310   18.3930   31.1960 O.co2 259  GLU259     -0.2457
    172  OE2        3.8000   17.4520   29.9540 O.co2 259  GLU259     -0.2457
    173  N          8.3880   13.5160   33.7810 N.am  260  VAL260     -0.1980
    174  CA         9.3640   13.3680   34.8660 C.3   260  VAL260      0.1595
    175  C         10.8330   13.6110   34.4340 C.2   260  VAL260      0.2287
    176  O         11.5230   14.3720   35.0910 O.2   260  VAL260     -0.2864
    177  CB         9.1770   12.0090   35.6710 C.3   260  VAL260      0.0276
    178  CG1       10.4240   11.6580   36.4700 C.3   260  VAL260      0.0022
    179  CG2        7.9880   12.1390   36.6090 C.3   260  VAL260      0.0022
    180  N         11.4980   17.1840   33.8990 N.3   263  GLY263     -0.1210
    181  CA        11.4010   17.8520   35.1770 C.3   263  GLY263      0.1956
    182  C         12.6650   17.6360   35.9950 C.2   263  GLY263      0.2611
    183  O         13.1810   18.5810   36.6110 O.2   263  GLY263     -0.2717
    184  N         13.1530   16.3910   36.0060 N.am  264  GLN264     -0.1979
    185  CA        14.4380   16.0660   36.6310 C.3   264  GLN264      0.1601
    186  C         15.5810   16.9220   36.0690 C.2   264  GLN264      0.2287
    187  O         16.3580   17.5160   36.8190 O.2   264  GLN264     -0.2864
    188  CB        14.7490   14.5580   36.5030 C.3   264  GLN264      0.0394
    189  CG        13.8100   13.6880   37.3860 C.3   264  GLN264      0.0908
    190  CD        14.0470   13.9080   38.8650 C.2   264  GLN264      0.2608
    191  OE1       15.1960   13.8480   39.3220 O.2   264  GLN264     -0.2717
    192  NE2       12.9760   14.1870   39.6200 N.am  264  GLN264     -0.0878
    193  N         15.4060   19.8210   34.8060 N.3   266  GLY266     -0.1210
    194  CA        15.2160   21.1910   35.2830 C.3   266  GLY266      0.1956
    195  C         15.7320   21.3340   36.7090 C.2   266  GLY266      0.2611
    196  O         16.4270   22.2980   37.0550 O.2   266  GLY266     -0.2717
    197  N         15.3700   20.3560   37.5380 N.am  267  PHE267     -0.1976
    198  CA        15.8150   20.3040   38.9190 C.3   267  PHE267      0.1639
    199  C         17.3220   20.2100   39.0790 C.2   267  PHE267      0.2290
    200  O         17.9030   20.8920   39.9390 O.2   267  PHE267     -0.2864
    201  CB        15.1490   19.1190   39.6330 C.3   267  PHE267      0.0560
    202  CG        15.5250   19.0220   41.0680 C.ar  267  PHE267     -0.0200
    203  CD1       15.0040   19.9340   41.9920 C.ar  267  PHE267     -0.0042
    204  CD2       16.4250   18.0460   41.4910 C.ar  267  PHE267     -0.0042
    205  CE1       15.3700   19.8640   43.3370 C.ar  267  PHE267     -0.0003
    206  CE2       16.7950   17.9550   42.8370 C.ar  267  PHE267     -0.0003
    207  CZ        16.2710   18.8560   43.7590 C.ar  267  PHE267     -0.0000
    208  N         18.7980   23.7100   37.8880 N.3   270  ALA270     -0.1231
    209  CA        18.4880   24.9270   38.6300 C.3   270  ALA270      0.1694
    210  C         18.8300   24.7780   40.1010 C.2   270  ALA270      0.2591
    211  O         19.0420   25.7690   40.7850 O.2   270  ALA270     -0.2718
    212  CB        17.0190   25.2660   38.4870 C.3   270  ALA270      0.0304
    213  N         18.8840   23.5390   40.5760 N.am  271  VAL271     -0.1980
    214  CA        19.0280   23.3080   42.0150 C.3   271  VAL271      0.1595
    215  C         20.2320   22.4300   42.3780 C.2   271  VAL271      0.2287
    216  O         21.1560   22.9010   43.0790 O.2   271  VAL271     -0.2864
    217  CB        17.7350   22.7010   42.6320 C.3   271  VAL271      0.0276
    218  CG1       17.8730   22.5840   44.1470 C.3   271  VAL271      0.0022
    219  CG2       16.4710   23.4860   42.2430 C.3   271  VAL271      0.0022
@<TRIPOS>BOND
     1   172   170   ar
     2   169   170    1
     3   169   168    1
     4   170   171   ar
     5   168   165    1
     6   151   152    1
     7   151   150    1
     8   165   164    1
     9   165   166    1
    10   150   149    1
    11   166   167    2
    12   166   173   am
    13   147   146    2
    14   149   148    1
    15   145   148    1
    16   145   146    1
    17   145   144    1
    18   155   156    2
    19   155   154    1
    20   173   174    1
    21   162   161    1
    22   146   153   am
    23   180   181    1
    24   175   174    1
    25   175   176    2
    26   153   154    1
    27   158   159    1
    28   158   157    1
    29   193   194    1
    30   154   157    1
    31   174   177    1
    32   159   160    1
    33   161   160    2
    34   161   163    1
    35   181   182    1
    36   126   125    1
    37   126   127    1
    38   194   195    1
    39   125   122    1
    40   177   178    1
    41   177   179    1
    42   182   184   am
    43   182   183    2
    44   184   185    1
    45   186   185    1
    46   186   187    2
    47   188   185    1
    48   188   189    1
    49   127   121    1
    50   122   121    1
    51   122   123    1
    52   195   196    2
    53   195   197   am
    54   124   123    2
    55   189   190    1
    56   121   115   am
    57   123   128   am
    58   197   198    1
    59   208   209    1
    60   128   129    1
    61   212   209    1
    62   115   116    2
    63   115   114    1
    64   209   210    1
    65   110   112   ar
    66   110   108   ar
    67    87    86    1
    68   190   191    2
    69   190   192   am
    70   112   111   ar
    71   198   199    1
    72   198   201    1
    73   129   132    1
    74   129   130    1
    75   199   200    2
    76   114   117    1
    77   114   113    1
    78    86    85   ar
    79    86    84   ar
    80   108   107   ar
    81   108   106   ar
    82   107   105   ar
    83   201   202    1
    84   132   133    1
    85    85    83   ar
    86    84    82   ar
    87   111   109   ar
    88   117   119    1
    89   117   118    1
    90   130   131    2
    91   130   136   am
    92   210   213   am
    93   210   211    2
    94   136   137    1
    95   106   109   ar
    96   106   104   ar
    97    83    81   ar
    98   213   214    1
    99   105   104   ar
   100    82    81   ar
   101   138   139    2
   102   138   137    1
   103   133   134    1
   104    81    80    1
   105   118   120    1
   106   202   204   ar
   107   202   203   ar
   108   104   103    1
   109    67    64    1
   110   137   140    1
   111   204   206   ar
   112    80    77    1
   113   134   135    1
   114   203   205   ar
   115   214   215    1
   116   214   217    1
   117   219   217    1
   118   103   100    1
   119   215   216    2
   120   140   141    1
   121    59    58    2
   122   217   218    1
   123    64    65    1
   124    64    63    1
   125    65    66    2
   126   206   207   ar
   127    61    60    1
   128    60    57    1
   129    60    62    1
   130   100    99    1
   131   100   101    1
   132    77    78    1
   133    77    76    1
   134   205   207   ar
   135   141   142    1
   136    39    37   ar
   137    39    41   ar
   138    95    97   ar
   139    95    93   ar
   140    58    57    1
   141    57    56    1
   142    79    78    2
   143   102   101    2
   144    99    90   am
   145    97    98   ar
   146    37    36   ar
   147    76    70   am
   148    92    93    1
   149    92    89    1
   150    41    40   ar
   151    93    94   ar
   152    91    90    2
   153    90    89    1
   154    53    52    2
   155   142   143    1
   156    56    52   am
   157    74    72    1
   158    36    35    1
   159    36    38   ar
   160    89    88    1
   161    70    71    2
   162    70    69    1
   163    98    96   ar
   164    72    69    1
   165    72    73    1
   166    52    51    1
   167    35    32    1
   168    40    38   ar
   169    55    54    1
   170    94    96   ar
   171    75    73    1
   172    69    68    1
   173    34    33    2
   174    32    33    1
   175    32    31    1
   176    54    51    1
   177    30    28    1
   178    51    50    1
   179    45    44    2
   180    48    47    1
   181    46    47    1
   182    46    43    1
   183    49    47    1
   184    28    29    1
   185    28    27    1
   186    44    43    1
   187    43    42    1
   188    26    25    2
   189    27    24    1
   190    25    24    1
   191     9     7   ar
   192     9    11   ar
   193    12    11    1
   194     7     6   ar
   195    11    10   ar
   196     6     5    1
   197     6     8   ar
   198    10     8   ar
   199     5     2    1
   200    24    23    1
   201     2     1    1
   202     2     3    1
   203    21    22   ar
   204    21    19   ar
   205    22    20   ar
   206    19    18   ar
   207     3     4    2
   208     3    13   am
   209    13    14    1
   210    20    18   ar
   211    18    17    1
   212    14    17    1
   213    14    15    1
   214    15    16    2
