@<TRIPOS>MOLECULE
tmp/3qpsA00.pdb
 182 175 0 0 0
SMALL
GASTEIGER

@<TRIPOS>ATOM
      1  N        -17.2100   -0.9300   -4.2820 N.3    60  LEU60      -0.1245
      2  CA       -16.4970   -1.0760   -5.5490 C.3    60  LEU60       0.1561
      3  C        -17.3300   -1.8360   -6.5930 C.2    60  LEU60       0.2260
      4  O        -17.3190   -1.4950   -7.7770 O.2    60  LEU60      -0.2867
      5  CB       -15.1590   -1.7790   -5.3210 C.3    60  LEU60       0.0270
      6  CG       -14.1040   -1.5300   -6.4020 C.3    60  LEU60       0.0019
      7  CD1      -13.7440   -0.0300   -6.4580 C.3    60  LEU60       0.0001
      8  CD2      -12.8760   -2.3890   -6.1370 C.3    60  LEU60       0.0001
      9  N        -19.6720    0.7450   -8.1090 N.3    63  ILE63      -0.1231
     10  CA       -18.9440    1.6850   -8.9520 C.3    63  ILE63       0.1692
     11  C        -18.5680    1.0040  -10.2560 C.2    63  ILE63       0.2592
     12  O        -18.7530    1.5620  -11.3450 O.2    63  ILE63      -0.2718
     13  CB       -17.6900    2.2090   -8.2300 C.3    63  ILE63       0.0266
     14  CG1      -18.0790    3.2750   -7.2040 C.3    63  ILE63       0.0019
     15  CG2      -16.6960    2.7820   -9.2220 C.3    63  ILE63       0.0020
     16  CD1      -17.1580    3.3200   -6.0390 C.3    63  ILE63       0.0001
     17  N        -18.0500   -0.2140  -10.1610 N.am   64  CYS64      -0.1970
     18  CA       -17.7070   -0.9480  -11.3480 C.3    64  CYS64       0.1712
     19  C        -18.9330   -1.1060  -12.2210 C.2    64  CYS64       0.2296
     20  O        -18.8440   -0.8830  -13.3990 O.2    64  CYS64      -0.2864
     21  CB       -17.0490   -2.3130  -11.0660 C.3    64  CYS64       0.0983
     22  SG       -15.9330   -3.0510  -12.3810 S.3    64  CYS64      -0.0798
     23  N        -19.7230    2.2650  -13.9890 N.3    67  HIS67      -0.1241
     24  CA       -18.7670    2.5720  -15.0650 C.3    67  HIS67       0.1621
     25  C        -19.0620    1.7770  -16.3300 C.2    67  HIS67       0.2264
     26  O        -19.0270    2.3240  -17.4250 O.2    67  HIS67      -0.2867
     27  CB       -17.3470    2.2820  -14.6450 C.3    67  HIS67       0.0745
     28  CG       -16.8140    3.2630  -13.6590 C.ar   67  HIS67       0.0817
     29  ND1      -15.7410    2.9870  -12.8400 N.ar   67  HIS67      -0.2268
     30  CD2      -17.2100    4.5240  -13.3590 C.ar   67  HIS67       0.1154
     31  CE1      -15.4940    4.0380  -12.0790 C.ar   67  HIS67       0.1986
     32  NE2      -16.3710    4.9810  -12.3680 N.ar   67  HIS67      -0.2212
     33  N        -13.7370    5.8370  -21.0880 N.3    94  PHE94      -0.1241
     34  CA       -12.8460    5.0800  -20.2160 C.3    94  PHE94       0.1605
     35  C        -11.8120    5.9980  -19.5750 C.2    94  PHE94       0.2264
     36  O        -11.6470    6.0190  -18.3620 O.2    94  PHE94      -0.2867
     37  CB       -12.1530    3.9980  -21.0410 C.3    94  PHE94       0.0534
     38  CG       -11.2180    3.1080  -20.2510 C.ar   94  PHE94      -0.0203
     39  CD1      -11.7080    2.0210  -19.5290 C.ar   94  PHE94      -0.0042
     40  CD2       -9.8410    3.3360  -20.2670 C.ar   94  PHE94      -0.0042
     41  CE1      -10.8400    1.1840  -18.8240 C.ar   94  PHE94      -0.0003
     42  CE2       -8.9700    2.5070  -19.5640 C.ar   94  PHE94      -0.0003
     43  CZ        -9.4730    1.4310  -18.8350 C.ar   94  PHE94      -0.0000
     44  N        -13.2750    8.4900  -16.9570 N.3    97  ILE97      -0.1231
     45  CA       -13.5000    7.7860  -15.7050 C.3    97  ILE97       0.1692
     46  C        -12.2460    7.7560  -14.8160 C.2    97  ILE97       0.2592
     47  O        -12.3150    8.0660  -13.6240 O.2    97  ILE97      -0.2718
     48  CB       -14.0340    6.3660  -15.9750 C.3    97  ILE97       0.0266
     49  CG1      -15.5430    6.4390  -16.2280 C.3    97  ILE97       0.0019
     50  CG2      -13.7520    5.4520  -14.8040 C.3    97  ILE97       0.0020
     51  CD1      -16.1470    5.2130  -16.8640 C.3    97  ILE97       0.0001
     52  N        -11.1010    7.4090  -15.4010 N.am   98  PHE98      -0.1976
     53  CA        -9.8590    7.3270  -14.6300 C.3    98  PHE98       0.1639
     54  C         -9.2090    8.6770  -14.3520 C.2    98  PHE98       0.2290
     55  O         -8.2290    8.7580  -13.6130 O.2    98  PHE98      -0.2864
     56  CB        -8.8810    6.2950  -15.2280 C.3    98  PHE98       0.0560
     57  CG        -9.3380    4.8910  -15.0090 C.ar   98  PHE98      -0.0200
     58  CD1      -10.2600    4.3070  -15.8700 C.ar   98  PHE98      -0.0042
     59  CD2       -8.9320    4.1790  -13.8880 C.ar   98  PHE98      -0.0042
     60  CE1      -10.7310    3.0240  -15.6390 C.ar   98  PHE98      -0.0003
     61  CE2       -9.4010    2.8800  -13.6600 C.ar   98  PHE98      -0.0003
     62  CZ       -10.2980    2.3110  -14.5440 C.ar   98  PHE98      -0.0000
     63  N        -11.4500    7.8950   -8.6760 N.3   103  ALA103     -0.1245
     64  CA       -10.6700    6.7640   -9.1590 C.3   103  ALA103      0.1562
     65  C         -9.2900    6.6830   -8.4770 C.2   103  ALA103      0.2260
     66  O         -8.8330    5.6060   -8.1380 O.2   103  ALA103     -0.2867
     67  CB       -10.5300    6.8400  -10.6900 C.3   103  ALA103      0.0290
     68  N         -9.8960    5.6530   -4.6190 N.3   106  PHE106     -0.1227
     69  CA       -10.0850    4.2040   -4.4950 C.3   106  PHE106      0.1736
     70  C         -8.8120    3.4390   -4.8430 C.2   106  PHE106      0.2596
     71  O         -8.4930    2.4160   -4.2100 O.2   106  PHE106     -0.2718
     72  CB       -11.2500    3.7140   -5.3520 C.3   106  PHE106      0.0547
     73  CG       -12.5520    4.3230   -4.9820 C.ar  106  PHE106     -0.0202
     74  CD1      -13.4720    4.6740   -5.9580 C.ar  106  PHE106     -0.0042
     75  CD2      -12.8490    4.5860   -3.6640 C.ar  106  PHE106     -0.0042
     76  CE1      -14.6790    5.2580   -5.6110 C.ar  106  PHE106     -0.0003
     77  CE2      -14.0620    5.1770   -3.3020 C.ar  106  PHE106     -0.0003
     78  CZ       -14.9750    5.5000   -4.2680 C.ar  106  PHE106     -0.0000
     79  N         -8.1100    3.9430   -5.8560 N.am  107  GLY107     -0.1957
     80  CA        -6.7930    3.4610   -6.2110 C.3   107  GLY107      0.1869
     81  C         -5.8590    3.3440   -5.0240 C.2   107  GLY107      0.2309
     82  O         -5.2700    2.2930   -4.8140 O.2   107  GLY107     -0.2863
     83  N         -6.7890    0.4520   -2.5510 N.3   110  ILE110     -0.1245
     84  CA        -6.3960   -0.8350   -3.1050 C.3   110  ILE110      0.1561
     85  C         -4.8850   -1.0700   -2.9490 C.2   110  ILE110      0.2260
     86  O         -4.4750   -2.0990   -2.4090 O.2   110  ILE110     -0.2867
     87  CB        -6.9110   -0.9500   -4.5730 C.3   110  ILE110      0.0252
     88  CG1       -8.4390   -1.0750   -4.5670 C.3   110  ILE110      0.0019
     89  CG2       -6.2810   -2.1130   -5.3430 C.3   110  ILE110      0.0019
     90  CD1       -9.0890   -0.9170   -5.9270 C.3   110  ILE110      0.0001
     91  N         -9.0970   -8.7910   -2.1080 N.3   121  LEU121     -0.1245
     92  CA        -8.8710   -8.1430   -3.3890 C.3   121  LEU121      0.1561
     93  C         -8.7590   -9.1590   -4.5330 C.2   121  LEU121      0.2260
     94  O         -9.3740   -8.9860   -5.5890 O.2   121  LEU121     -0.2867
     95  CB        -7.6350   -7.2520   -3.3130 C.3   121  LEU121      0.0270
     96  CG        -7.1090   -6.7140   -4.6450 C.3   121  LEU121      0.0019
     97  CD1       -8.1510   -5.8250   -5.3150 C.3   121  LEU121      0.0001
     98  CD2       -5.7690   -5.9870   -4.4150 C.3   121  LEU121      0.0001
     99  N        -12.2140  -10.6140   -5.1480 N.3   124  TRP124     -0.1227
    100  CA       -13.0350   -9.6450   -5.8460 C.3   124  TRP124      0.1737
    101  C        -12.7120   -9.6160   -7.3380 C.2   124  TRP124      0.2595
    102  O        -13.6040   -9.6310   -8.1680 O.2   124  TRP124     -0.2718
    103  CB       -12.8700   -8.2500   -5.2130 C.3   124  TRP124      0.0564
    104  CG       -13.8130   -7.2270   -5.8120 C.ar  124  TRP124      0.0003
    105  CD1      -15.0860   -6.9330   -5.3920 C.ar  124  TRP124      0.0946
    106  CD2      -13.5620   -6.3870   -6.9460 C.ar  124  TRP124      0.0152
    107  NE1      -15.6350   -5.9630   -6.1970 N.ar  124  TRP124     -0.2442
    108  CE2      -14.7240   -5.6090   -7.1550 C.ar  124  TRP124      0.0810
    109  CE3      -12.4720   -6.2190   -7.8040 C.ar  124  TRP124      0.0012
    110  CZ2      -14.8220   -4.6780   -8.1880 C.ar  124  TRP124      0.0191
    111  CZ3      -12.5750   -5.2890   -8.8300 C.ar  124  TRP124      0.0001
    112  CH2      -13.7410   -4.5360   -9.0160 C.ar  124  TRP124      0.0015
    113  N        -11.4340   -9.5730   -7.6930 N.am  125  ILE125     -0.1980
    114  CA       -11.0670   -9.5400   -9.1090 C.3   125  ILE125      0.1595
    115  C        -11.4160  -10.8620   -9.7870 C.2   125  ILE125      0.2287
    116  O        -12.0010  -10.8670  -10.8750 O.2   125  ILE125     -0.2864
    117  CB        -9.5680   -9.2460   -9.3220 C.3   125  ILE125      0.0276
    118  CG1       -9.1910   -7.9000   -8.7080 C.3   125  ILE125      0.0022
    119  CG2       -9.2360   -9.2440  -10.8010 C.3   125  ILE125      0.0022
    120  CD1       -7.7030   -7.6440   -8.6740 C.3   125  ILE125      0.0001
    121  N        -15.9840   -6.1880  -15.8420 N.3   132  PHE132     -0.1241
    122  CA       -15.0230   -5.1640  -16.2500 C.3   132  PHE132      0.1605
    123  C        -15.2770   -4.6260  -17.6510 C.2   132  PHE132      0.2264
    124  O        -15.6570   -5.3580  -18.5660 O.2   132  PHE132     -0.2867
    125  CB       -13.5790   -5.6420  -16.0940 C.3   132  PHE132      0.0534
    126  CG       -13.2410   -6.0350  -14.7000 C.ar  132  PHE132     -0.0203
    127  CD1      -13.5830   -5.2100  -13.6420 C.ar  132  PHE132     -0.0042
    128  CD2      -12.6060   -7.2290  -14.4370 C.ar  132  PHE132     -0.0042
    129  CE1      -13.2930   -5.5650  -12.3450 C.ar  132  PHE132     -0.0003
    130  CE2      -12.3130   -7.5930  -13.1360 C.ar  132  PHE132     -0.0003
    131  CZ       -12.6590   -6.7580  -12.0890 C.ar  132  PHE132     -0.0000
    132  N        -13.5090   -3.7730  -20.1300 N.3   134  TYR134     -0.1241
    133  CA       -12.7800   -4.2930  -21.3040 C.3   134  TYR134      0.1605
    134  C        -13.5950   -5.3350  -22.0880 C.2   134  TYR134      0.2264
    135  O        -13.4000   -5.5110  -23.2790 O.2   134  TYR134     -0.2867
    136  CB       -11.4100   -4.8600  -20.9130 C.3   134  TYR134      0.0534
    137  CG       -11.4740   -6.2770  -20.3680 C.ar  134  TYR134     -0.0201
    138  CD1      -11.5260   -6.5150  -18.9950 C.ar  134  TYR134     -0.0009
    139  CD2      -11.4950   -7.3790  -21.2260 C.ar  134  TYR134     -0.0009
    140  CE1      -11.5880   -7.8110  -18.4890 C.ar  134  TYR134      0.0417
    141  CE2      -11.5630   -8.6790  -20.7280 C.ar  134  TYR134      0.0417
    142  CZ       -11.6060   -8.8900  -19.3570 C.ar  134  TYR134      0.1957
    143  OH       -11.6630  -10.1740  -18.8480 O.3   134  TYR134     -0.2866
    144  N         -7.5290   -5.6860  -23.6160 N.3   158  VAL158     -0.1245
    145  CA        -6.7390   -5.3430  -22.4520 C.3   158  VAL158      0.1561
    146  C         -5.6030   -4.4000  -22.8530 C.2   158  VAL158      0.2260
    147  O         -5.3540   -3.3940  -22.1880 O.2   158  VAL158     -0.2867
    148  CB        -6.2650   -6.5990  -21.7140 C.3   158  VAL158      0.0252
    149  CG1       -5.2030   -6.2560  -20.6930 C.3   158  VAL158      0.0019
    150  CG2       -7.4630   -7.2420  -21.0300 C.3   158  VAL158      0.0019
    151  N         -6.9930   -0.5760  -23.4540 N.3   161  CYS161     -0.1221
    152  CA        -7.3190    0.1220  -22.2240 C.3   161  CYS161      0.1808
    153  C         -6.0510    0.3820  -21.3740 C.2   161  CYS161      0.2601
    154  O         -5.9040    1.4410  -20.7580 O.2   161  CYS161     -0.2717
    155  CB        -8.4350   -0.6140  -21.4630 C.3   161  CYS161      0.0970
    156  SG        -7.8800   -2.1270  -20.6960 S.3   161  CYS161     -0.0800
    157  N         -5.1050   -0.5520  -21.4070 N.am  162  THR162     -0.1953
    158  CA        -3.7960   -0.3340  -20.7950 C.3   162  THR162      0.1897
    159  C         -3.0390    0.8790  -21.4090 C.2   162  THR162      0.2313
    160  O         -2.5090    1.7110  -20.6760 O.2   162  THR162     -0.2863
    161  CB        -2.9410   -1.6710  -20.7640 C.3   162  THR162      0.1794
    162  OG1       -3.5490   -2.6140  -19.8700 O.3   162  THR162     -0.2208
    163  CG2       -1.5160   -1.4270  -20.3130 C.3   162  THR162      0.0378
    164  N         -4.6870    4.0090  -20.1080 N.3   165  LYS165     -0.1245
    165  CA        -4.7000    4.1430  -18.6780 C.3   165  LYS165      0.1561
    166  C         -3.3570    4.3070  -18.0130 C.2   165  LYS165      0.2260
    167  O         -3.2090    5.0900  -17.1570 O.2   165  LYS165     -0.2867
    168  CB        -5.4580    2.9670  -18.1020 C.3   165  LYS165      0.0271
    169  CG        -5.2870    2.6800  -16.6600 C.3   165  LYS165      0.0035
    170  CD        -6.5990    2.4040  -16.0470 C.3   165  LYS165      0.0206
    171  CE        -6.5570    1.3390  -14.9950 C.3   165  LYS165      0.1093
    172  NZ        -7.8060    0.4510  -15.0060 N.3   165  LYS165     -0.1314
    173  N         -2.5020    6.4350  -14.3210 N.3   169  HIS169     -0.1241
    174  CA        -3.2670    6.0850  -13.1220 C.3   169  HIS169      0.1621
    175  C         -2.3230    5.7120  -11.9920 C.2   169  HIS169      0.2264
    176  O         -2.4580    6.1550  -10.8430 O.2   169  HIS169     -0.2867
    177  CB        -4.2230    4.9200  -13.4040 C.3   169  HIS169      0.0745
    178  CG        -5.1010    4.5790  -12.2430 C.ar  169  HIS169      0.0817
    179  ND1       -6.1040    5.4150  -11.8050 N.ar  169  HIS169     -0.2268
    180  CD2       -5.1120    3.5060  -11.4150 C.ar  169  HIS169      0.1154
    181  CE1       -6.7050    4.8660  -10.7620 C.ar  169  HIS169      0.1986
    182  NE2       -6.1270    3.7080  -10.5090 N.ar  169  HIS169     -0.2212
@<TRIPOS>BOND
     1   144   145    1
     2   151   152    1
     3   135   134    2
     4   146   145    1
     5   146   147    2
     6   145   148    1
     7   152   155    1
     8   152   153    1
     9   134   133    1
    10   148   150    1
    11   148   149    1
    12   155   156    1
    13   159   158    1
    14   159   160    2
    15   157   153   am
    16   157   158    1
    17   153   154    2
    18   133   136    1
    19   133   132    1
    20   139   141   ar
    21   139   137   ar
    22    33    34    1
    23    37    38    1
    24    37    34    1
    25   136   137    1
    26   158   161    1
    27   161   163    1
    28   161   162    1
    29   141   142   ar
    30   137   138   ar
    31    40    38   ar
    32    40    42   ar
    33    38    39   ar
    34    34    35    1
    35   164   165    1
    36    35    36    2
    37    42    43   ar
    38    39    41   ar
    39   142   143    1
    40   142   140   ar
    41   138   140   ar
    42    43    41   ar
    43   165   168    1
    44   165   166    1
    45   124   123    2
    46   168   169    1
    47   166   167    2
    48   123   122    1
    49    26    25    2
    50    44    45    1
    51    51    49    1
    52   169   170    1
    53    25    24    1
    54   122   125    1
    55   122   121    1
    56    49    48    1
    57   125   126    1
    58   170   171    1
    59    48    45    1
    60    48    50    1
    61    58    60   ar
    62    58    57   ar
    63    45    46    1
    64    60    62   ar
    65    52    46   am
    66    52    53    1
    67    56    57    1
    68    56    53    1
    69    24    27    1
    70    24    23    1
    71    57    59   ar
    72   172   171    1
    73    46    47    2
    74   126   128   ar
    75   126   127   ar
    76    27    28    1
    77    53    54    1
    78    62    61   ar
    79   128   130   ar
    80    54    55    2
    81   173   174    1
    82    59    61   ar
    83    28    30   ar
    84    28    29   ar
    85   127   129   ar
    86   177   174    1
    87   177   178    1
    88    20    19    2
    89    30    32   ar
    90   130   131   ar
    91   174   175    1
    92    29    31   ar
    93    22    21    1
    94    32    31   ar
    95   129   131   ar
    96   178   179   ar
    97   178   180   ar
    98    19    18    1
    99   175   176    2
   100   179   181   ar
   101   180   182   ar
   102    18    21    1
   103    18    17    1
   104    12    11    2
   105   116   115    2
   106   119   117    1
   107   181   182   ar
   108    67    64    1
   109    11    17   am
   110    11    10    1
   111   115   114    1
   112   117   114    1
   113   117   118    1
   114    15    13    1
   115    64    63    1
   116    64    65    1
   117   114   113    1
   118   112   111   ar
   119   112   110   ar
   120    10    13    1
   121    10     9    1
   122   111   109   ar
   123   118   120    1
   124    65    66    2
   125    13    14    1
   126   110   108   ar
   127   102   101    2
   128   109   106   ar
   129     4     3    2
   130   113   101   am
   131   101   100    1
   132    14    16    1
   133   108   106   ar
   134   108   107   ar
   135   106   104   ar
   136     3     2    1
   137     7     6    1
   138     6     8    1
   139     6     5    1
   140    80    79    1
   141    80    81    1
   142   107   105   ar
   143    74    76   ar
   144    74    73   ar
   145    90    88    1
   146    79    70   am
   147   100   103    1
   148   100    99    1
   149   104   105   ar
   150   104   103    1
   151    76    78   ar
   152    94    93    2
   153     2     5    1
   154     2     1    1
   155    72    73    1
   156    72    69    1
   157    89    87    1
   158    97    96    1
   159    81    82    2
   160    73    75   ar
   161    70    69    1
   162    70    71    2
   163    96    98    1
   164    96    95    1
   165    68    69    1
   166    87    88    1
   167    87    84    1
   168    93    92    1
   169    78    77   ar
   170    75    77   ar
   171    92    95    1
   172    92    91    1
   173    84    85    1
   174    84    83    1
   175    85    86    2
