@<TRIPOS>MOLECULE
tmp/3qpuA00.pdb
 114 108 0 0 0
SMALL
GASTEIGER

@<TRIPOS>ATOM
      1  N         -9.7000   56.6880   -3.1010 N.3    62  ASN62      -0.1225
      2  CA        -9.3020   55.3240   -2.7510 C.3    62  ASN62       0.1785
      3  C         -8.4750   54.7840   -3.9420 C.2    62  ASN62       0.2597
      4  O         -9.0190   54.4600   -4.9760 O.2    62  ASN62      -0.2718
      5  CB       -10.5710   54.4810   -2.5180 C.3    62  ASN62       0.1169
      6  CG       -10.2840   53.0390   -2.1460 C.2    62  ASN62       0.2627
      7  OD1      -11.1270   52.3570   -1.5770 O.2    62  ASN62      -0.2716
      8  ND2       -9.1530   52.5590   -2.5040 N.am   62  ASN62      -0.0877
      9  N         -7.1640   54.7460   -3.8080 N.am   63  VAL63      -0.1966
     10  CA        -6.3140   54.3020   -4.9170 C.3    63  VAL63       0.1727
     11  C         -6.6720   52.8800   -5.4040 C.2    63  VAL63       0.2616
     12  O         -6.6090   52.5810   -6.5950 O.2    63  VAL63      -0.2715
     13  CB        -4.8150   54.4450   -4.5180 C.3    63  VAL63       0.0290
     14  CG1       -3.8840   53.8850   -5.5900 C.3    63  VAL63       0.0023
     15  CG2       -4.4920   55.9780   -4.2900 C.3    63  VAL63       0.0023
     16  N         -7.0960   52.0280   -4.4930 N.am   64  GLY64      -0.1955
     17  CA        -7.5980   50.7400   -4.8560 C.3    64  GLY64       0.1869
     18  C         -8.7220   50.8130   -5.9200 C.2    64  GLY64       0.2309
     19  O         -8.8600   49.8970   -6.7610 O.2    64  GLY64      -0.2863
     20  N         -7.0850   51.5640   -9.1980 N.3    67  ARG67      -0.1245
     21  CA        -6.5130   50.3270   -9.6890 C.3    67  ARG67       0.1563
     22  C         -7.6040   49.4040  -10.2620 C.2    67  ARG67       0.2260
     23  O         -7.3480   48.7880  -11.2970 O.2    67  ARG67      -0.2867
     24  CB        -5.6390   49.5790   -8.6730 C.3    67  ARG67       0.0307
     25  CG        -5.5490   48.0620   -9.0120 C.3    67  ARG67       0.0489
     26  CD        -4.9750   47.2300   -7.9330 C.3    67  ARG67       0.2205
     27  NE        -5.6390   47.4180   -6.6620 N.pl3  67  ARG67      -0.0865
     28  CZ        -6.6820   46.7130   -6.2690 C.cat  67  ARG67       0.5346
     29  NH1       -7.1870   45.7640   -7.0410 N.pl3  67  ARG67       0.1354
     30  NH2       -7.2270   46.9860   -5.1180 N.pl3  67  ARG67       0.1354
     31  N          0.5300   42.0500   -6.5270 N.3    80  PHE80      -0.1241
     32  CA         1.1990   42.8840   -5.5000 C.3    80  PHE80       0.1605
     33  C          2.6710   42.4880   -5.1450 C.2    80  PHE80       0.2264
     34  O          3.2710   43.1090   -4.2960 O.2    80  PHE80      -0.2867
     35  CB         0.3360   43.0130   -4.2250 C.3    80  PHE80       0.0534
     36  CG        -0.9480   43.8110   -4.4640 C.ar   80  PHE80      -0.0203
     37  CD1       -0.9290   45.2050   -4.4520 C.ar   80  PHE80      -0.0042
     38  CD2       -2.1390   43.1600   -4.7590 C.ar   80  PHE80      -0.0042
     39  CE1       -2.1080   45.9790   -4.7240 C.ar   80  PHE80      -0.0003
     40  CE2       -3.2990   43.8840   -5.0530 C.ar   80  PHE80      -0.0003
     41  CZ        -3.2950   45.3110   -5.0210 C.ar   80  PHE80      -0.0000
     42  N          0.5520   50.5810  -10.3390 N.3    91  ARG91      -0.1245
     43  CA         0.1710   51.0540   -9.0290 C.3    91  ARG91       0.1563
     44  C          0.5880   52.5230   -8.8350 C.2    91  ARG91       0.2260
     45  O         -0.2070   53.3360   -8.3210 O.2    91  ARG91      -0.2867
     46  CB         0.7600   50.1700   -7.9390 C.3    91  ARG91       0.0307
     47  CG         0.0210   48.8480   -7.8360 C.3    91  ARG91       0.0489
     48  CD         0.7930   47.8300   -7.0390 C.3    91  ARG91       0.2205
     49  NE         0.9500   48.2150   -5.6290 N.pl3  91  ARG91      -0.0865
     50  CZ         1.9400   47.7980   -4.8340 C.cat  91  ARG91       0.5346
     51  NH1        2.9090   46.9170   -5.2490 N.pl3  91  ARG91       0.1354
     52  NH2        1.9310   48.2240   -3.5940 N.pl3  91  ARG91       0.1354
     53  N         -6.4360   57.5180    0.3250 N.3   117  ASP117     -0.1225
     54  CA        -6.5300   56.2260    0.9740 C.3   117  ASP117      0.1805
     55  C         -5.7470   55.1900    0.1430 C.2   117  ASP117      0.2598
     56  O         -6.1940   54.7940   -0.9420 O.2   117  ASP117     -0.2718
     57  CB        -7.9850   55.8190    1.0140 C.3   117  ASP117      0.1424
     58  CG        -8.1920   54.4020    1.6060 C.2   117  ASP117      0.3668
     59  OD1       -7.2900   53.9250    2.3460 O.co2 117  ASP117     -0.2456
     60  OD2       -9.2700   53.7840    1.3750 O.co2 117  ASP117     -0.2456
     61  N         -4.5660   54.8180    0.6160 N.am  118  ALA118     -0.1966
     62  CA        -3.7080   53.8320   -0.0630 C.3   118  ALA118      0.1728
     63  C         -2.8090   53.3040    1.0050 C.2   118  ALA118      0.2617
     64  O         -2.7780   53.8850    2.1050 O.2   118  ALA118     -0.2715
     65  CB        -2.8730   54.4710   -1.1890 C.3   118  ALA118      0.0334
     66  N         -2.0360   52.2560    0.7170 N.am  119  THR119     -0.1937
     67  CA        -1.1180   51.6990    1.7400 C.3   119  THR119      0.2028
     68  C         -0.0470   52.6970    2.1350 C.2   119  THR119      0.2642
     69  O          0.1810   52.8640    3.2890 O.2   119  THR119     -0.2714
     70  CB        -0.4700   50.3470    1.2500 C.3   119  THR119      0.1808
     71  OG1        0.2330   50.5760    0.0160 O.3   119  THR119     -0.2208
     72  CG2       -1.5770   49.3460    0.9780 C.3   119  THR119      0.0379
     73  N          0.6090   53.3630    1.1800 N.am  120  ASN120     -0.1971
     74  CA         1.6010   54.3680    1.5440 C.3   120  ASN120      0.1688
     75  C          2.6130   53.8960    2.6140 C.2   120  ASN120      0.2292
     76  O          2.9190   54.6390    3.5780 O.2   120  ASN120     -0.2864
     77  CB         0.9000   55.6220    2.0180 C.3   120  ASN120      0.1181
     78  CG         0.1190   56.2740    0.9140 C.2   120  ASN120      0.2629
     79  OD1        0.6390   56.4520   -0.2060 O.2   120  ASN120     -0.2716
     80  ND2       -1.1630   56.5660    1.1710 N.am  120  ASN120     -0.0877
     81  N          7.4060   56.7560   -0.9370 N.3   125  ARG125     -0.1245
     82  CA         6.0700   57.1550   -1.3180 C.3   125  ARG125      0.1563
     83  C          5.5210   58.2870   -0.4600 C.2   125  ARG125      0.2260
     84  O          4.9310   59.2430   -0.9710 O.2   125  ARG125     -0.2867
     85  CB         5.1300   55.9340   -1.2520 C.3   125  ARG125      0.0307
     86  CG         3.6410   56.2930   -1.6300 C.3   125  ARG125      0.0489
     87  CD         3.5870   57.0620   -3.0120 C.3   125  ARG125      0.2205
     88  NE         4.2600   56.2820   -4.0460 N.pl3 125  ARG125     -0.0865
     89  CZ         3.7180   55.2480   -4.6810 C.cat 125  ARG125      0.5346
     90  NH1        2.4420   54.8770   -4.4400 N.pl3 125  ARG125      0.1354
     91  NH2        4.4700   54.5990   -5.5760 N.pl3 125  ARG125      0.1354
     92  N         -1.1990   38.5150   -0.0980 N.3   182  ARG182     -0.1245
     93  CA        -1.1160   39.9120   -0.4480 C.3   182  ARG182      0.1563
     94  C         -0.4890   40.7330    0.6620 C.2   182  ARG182      0.2260
     95  O          0.5150   41.4560    0.4470 O.2   182  ARG182     -0.2867
     96  CB        -2.4930   40.4340   -0.8160 C.3   182  ARG182      0.0307
     97  CG        -2.5730   41.8680   -1.3660 C.3   182  ARG182      0.0489
     98  CD        -3.9330   41.9160   -2.0680 C.3   182  ARG182      0.2205
     99  NE        -4.5700   43.2220   -2.1650 N.pl3 182  ARG182     -0.0865
    100  CZ        -5.8220   43.4200   -2.6320 C.cat 182  ARG182      0.5346
    101  NH1       -6.6340   42.4300   -3.0660 N.pl3 182  ARG182      0.1354
    102  NH2       -6.2620   44.6510   -2.6740 N.pl3 182  ARG182      0.1354
    103  N          3.9190   43.1540    1.4220 N.3   186  TYR186     -0.1241
    104  CA         4.2410   44.5110    1.8810 C.3   186  TYR186      0.1605
    105  C          5.1800   44.5740    3.0580 C.2   186  TYR186      0.2264
    106  O          5.6330   45.6620    3.4340 O.2   186  TYR186     -0.2867
    107  CB         2.9360   45.1700    2.3830 C.3   186  TYR186      0.0534
    108  CG         2.0030   45.6030    1.2690 C.ar  186  TYR186     -0.0201
    109  CD1        1.1260   44.6910    0.6780 C.ar  186  TYR186     -0.0009
    110  CD2        2.0350   46.9160    0.7970 C.ar  186  TYR186     -0.0009
    111  CE1        0.2550   45.1030   -0.3520 C.ar  186  TYR186      0.0417
    112  CE2        1.2140   47.3260   -0.2430 C.ar  186  TYR186      0.0417
    113  CZ         0.2990   46.4220   -0.7870 C.ar  186  TYR186      0.1957
    114  OH        -0.5110   46.8530   -1.7890 O.3   186  TYR186     -0.2866
@<TRIPOS>BOND
     1    23    22    2
     2    42    43    1
     3    22    21    1
     4    21    20    1
     5    21    24    1
     6    43    44    1
     7    43    46    1
     8    25    24    1
     9    25    26    1
    10    44    45    2
    11    46    47    1
    12    26    27    1
    13    47    48    1
    14    29    28    1
    15    48    49    1
    16    19    18    2
    17    27    28    2
    18    12    11    2
    19    31    32    1
    20    28    30    1
    21    18    17    1
    22    49    50    2
    23    14    13    1
    24    91    89    1
    25    32    33    1
    26    32    35    1
    27    11    10    1
    28    11    16   am
    29    51    50    1
    30    33    34    2
    31    40    41   ar
    32    40    38   ar
    33    41    39   ar
    34     4     3    2
    35    10    13    1
    36    10     9    1
    37    17    16    1
    38    50    52    1
    39    38    36   ar
    40    39    37   ar
    41    89    90    1
    42    89    88    2
    43    13    15    1
    44    36    37   ar
    45    36    35    1
    46    88    87    1
    47     3     9   am
    48     3     2    1
    49     1     2    1
    50   101   100    1
    51    87    86    1
    52     2     5    1
    53   102   100    1
    54   100    99    2
    55     5     6    1
    56     8     6   am
    57    99    98    1
    58     6     7    2
    59    98    97    1
    60   114   113    1
    61    86    85    1
    62    97    96    1
    63    82    85    1
    64    82    81    1
    65    82    83    1
    66    65    62    1
    67    84    83    2
    68    56    55    2
    69    96    93    1
    70   113   111   ar
    71   113   112   ar
    72    93    92    1
    73    93    94    1
    74   111   109   ar
    75   112   110   ar
    76    79    78    2
    77    62    61    1
    78    62    63    1
    79    71    70    1
    80    55    61   am
    81    55    54    1
    82    53    54    1
    83    95    94    2
    84   109   108   ar
    85    66    63   am
    86    66    67    1
    87   110   108   ar
    88    78    80   am
    89    78    77    1
    90    54    57    1
    91    72    70    1
    92    63    64    2
    93    57    58    1
    94    73    74    1
    95    73    68   am
    96    70    67    1
    97   108   107    1
    98    60    58   ar
    99   103   104    1
   100    74    77    1
   101    74    75    1
   102    58    59   ar
   103    67    68    1
   104   104   107    1
   105   104   105    1
   106    68    69    2
   107    75    76    2
   108   105   106    2
