@<TRIPOS>MOLECULE
tmp/3qpuA02.pdb
 108 102 0 0 0
SMALL
GASTEIGER

@<TRIPOS>ATOM
      1  N        -39.1960   58.9090   17.0280 N.3   245  ARG245     -0.1231
      2  CA       -39.8300   60.0330   17.5880 C.3   245  ARG245      0.1694
      3  C        -40.6360   59.6570   18.8060 C.2   245  ARG245      0.2592
      4  O        -40.9060   58.4980   19.0220 O.2   245  ARG245     -0.2718
      5  CB       -40.7180   60.6400   16.5670 C.3   245  ARG245      0.0321
      6  CG       -39.8990   61.3030   15.5140 C.3   245  ARG245      0.0489
      7  CD       -40.7850   61.5660   14.2480 C.3   245  ARG245      0.2205
      8  NE       -41.6950   62.6700   14.5030 N.pl3 245  ARG245     -0.0865
      9  CZ       -42.6050   63.0220   13.6210 C.cat 245  ARG245      0.5346
     10  NH1      -43.4310   64.0130   13.8880 N.pl3 245  ARG245      0.1354
     11  NH2      -42.7100   62.3240   12.4910 N.pl3 245  ARG245      0.1354
     12  N        -40.9420   60.6420   19.6290 N.am  246  HIS246     -0.1976
     13  CA       -41.9190   60.5220   20.7000 C.3   246  HIS246      0.1656
     14  C        -43.2290   60.0260   20.0980 C.2   246  HIS246      0.2291
     15  O        -43.5120   60.2600   18.9080 O.2   246  HIS246     -0.2864
     16  CB       -42.1740   61.9220   21.3380 C.3   246  HIS246      0.0771
     17  CG       -42.4790   62.9620   20.3220 C.ar  246  HIS246      0.0820
     18  ND1      -43.7330   63.0990   19.7450 N.ar  246  HIS246     -0.2267
     19  CD2      -41.6700   63.8400   19.6770 C.ar  246  HIS246      0.1154
     20  CE1      -43.6990   64.0440   18.8210 C.ar  246  HIS246      0.1986
     21  NE2      -42.4640   64.5250   18.7720 N.ar  246  HIS246     -0.2212
     22  N        -48.3410   63.4870   19.8200 N.3   249  ASN249     -0.1240
     23  CA       -48.6160   64.3960   20.9040 C.3   249  ASN249      0.1653
     24  C        -49.7580   65.3030   20.5170 C.2   249  ASN249      0.2266
     25  O        -50.2220   65.2760   19.3790 O.2   249  ASN249     -0.2867
     26  CB       -47.3390   65.1460   21.3530 C.3   249  ASN249      0.1155
     27  CG       -46.8210   66.1380   20.2840 C.2   249  ASN249      0.2627
     28  OD1      -47.5980   66.6720   19.4930 O.2   249  ASN249     -0.2716
     29  ND2      -45.4970   66.3820   20.2740 N.am  249  ASN249     -0.0877
     30  N        -50.0740   68.5580   20.0060 N.3   251  HIS251     -0.1226
     31  CA       -49.8480   69.4400   18.8790 C.3   251  HIS251      0.1752
     32  C        -49.8180   68.6670   17.5290 C.2   251  HIS251      0.2596
     33  O        -50.1680   69.2310   16.4610 O.2   251  HIS251     -0.2718
     34  CB       -48.5260   70.2090   19.0750 C.3   251  HIS251      0.0759
     35  CG       -48.6450   71.3910   19.9820 C.ar  251  HIS251      0.0818
     36  ND1      -49.6610   71.5220   20.9110 N.ar  251  HIS251     -0.2268
     37  CD2      -47.8850   72.5080   20.0930 C.ar  251  HIS251      0.1154
     38  CE1      -49.5230   72.6620   21.5550 C.ar  251  HIS251      0.1986
     39  NE2      -48.4650   73.2860   21.0680 N.ar  251  HIS251     -0.2212
     40  N        -49.3210   67.4310   17.5450 N.am  252  ASN252     -0.1974
     41  CA       -49.4350   66.5720   16.3370 C.3   252  ASN252      0.1688
     42  C        -50.8910   66.5030   15.8790 C.2   252  ASN252      0.2292
     43  O        -51.1510   66.8090   14.7110 O.2   252  ASN252     -0.2864
     44  CB       -48.8980   65.1680   16.5730 C.3   252  ASN252      0.1181
     45  CG       -47.4170   65.1660   16.7660 C.2   252  ASN252      0.2629
     46  OD1      -46.9120   64.3500   17.5050 O.2   252  ASN252     -0.2716
     47  ND2      -46.7140   66.0200   16.0850 N.am  252  ASN252     -0.0877
     48  N        -50.1400   71.5770   14.8430 N.3   256  ARG256     -0.1245
     49  CA       -49.4340   72.7610   15.2940 C.3   256  ARG256      0.1563
     50  C        -47.9190   72.3690   15.4720 C.2   256  ARG256      0.2260
     51  O        -47.6120   71.2830   15.9680 O.2   256  ARG256     -0.2867
     52  CB       -50.0560   73.1500   16.6080 C.3   256  ARG256      0.0307
     53  CG       -50.0530   74.5910   16.9470 C.3   256  ARG256      0.0489
     54  CD       -51.0320   74.9070   18.1410 C.3   256  ARG256      0.2205
     55  NE       -52.4070   74.8470   17.6820 N.pl3 256  ARG256     -0.0865
     56  CZ       -53.0910   75.8910   17.1870 C.cat 256  ARG256      0.5346
     57  NH1      -52.5180   77.0990   17.0910 N.pl3 256  ARG256      0.1354
     58  NH2      -54.3640   75.7250   16.7870 N.pl3 256  ARG256      0.1354
     59  N        -43.7900   72.5060   16.7090 N.3   258  GLY258     -0.1210
     60  CA       -43.0850   72.8310   17.9560 C.3   258  GLY258      0.1956
     61  C        -43.8750   72.6860   19.2340 C.2   258  GLY258      0.2612
     62  O        -44.6700   71.7480   19.4000 O.2   258  GLY258     -0.2717
     63  N        -43.6400   73.6060   20.1390 N.am  259  GLY259     -0.1956
     64  CA       -44.2120   73.5590   21.4850 C.3   259  GLY259      0.1869
     65  C        -43.6730   72.4370   22.3610 C.2   259  GLY259      0.2309
     66  O        -42.6520   71.7980   22.0450 O.2   259  GLY259     -0.2863
     67  N        -38.1130   67.8350   26.0830 N.3   293  LEU293     -0.1245
     68  CA       -39.5570   68.1170   25.8560 C.3   293  LEU293      0.1561
     69  C        -40.3770   66.9640   26.3910 C.2   293  LEU293      0.2260
     70  O        -39.9390   65.8090   26.3270 O.2   293  LEU293     -0.2867
     71  CB       -39.8790   68.4500   24.3730 C.3   293  LEU293      0.0270
     72  CG       -38.9440   69.5790   23.8730 C.3   293  LEU293      0.0019
     73  CD1      -39.1410   69.8540   22.3820 C.3   293  LEU293      0.0001
     74  CD2      -39.0990   70.9680   24.6790 C.3   293  LEU293      0.0001
     75  N        -43.0380   65.1160   25.7090 N.3   295  SER295     -0.1217
     76  CA       -43.5930   63.9290   25.0730 C.3   295  SER295      0.1889
     77  C        -42.5180   62.8850   24.8660 C.2   295  SER295      0.2288
     78  O        -42.8560   61.7090   24.8650 O.2   295  SER295     -0.2866
     79  CB       -44.3620   64.2500   23.7780 C.3   295  SER295      0.2089
     80  OG       -43.4030   64.7700   22.8480 O.3   295  SER295     -0.2183
     81  N        -36.4460   69.5810   19.7770 N.3   315  GLU315     -0.1245
     82  CA       -36.8190   69.8490   18.4080 C.3   315  GLU315      0.1567
     83  C        -36.2130   71.1790   17.9480 C.2   315  GLU315      0.2260
     84  O        -35.9330   72.0800   18.7730 O.2   315  GLU315     -0.2867
     85  CB       -38.3830   69.8630   18.2380 C.3   315  GLU315      0.0388
     86  CG       -38.9070   69.9610   16.6980 C.3   315  GLU315      0.1160
     87  CD       -38.2520   68.9230   15.6660 C.2   315  GLU315      0.3649
     88  OE1      -36.9890   68.8170   15.5850 O.co2 315  GLU315     -0.2457
     89  OE2      -38.9860   68.2180   14.9030 O.co2 315  GLU315     -0.2457
     90  N        -37.1890   63.9120   18.0060 N.3   380  HIS380     -0.1226
     91  CA       -38.1990   64.7040   17.2830 C.3   380  HIS380      0.1752
     92  C        -37.8250   64.6850   15.8210 C.2   380  HIS380      0.2595
     93  O        -36.6580   64.3720   15.4570 O.2   380  HIS380     -0.2718
     94  CB       -38.2980   66.1370   17.7470 C.3   380  HIS380      0.0759
     95  CG       -38.4180   66.2810   19.2250 C.ar  380  HIS380      0.0818
     96  ND1      -39.5890   66.6690   19.8550 N.ar  380  HIS380     -0.2268
     97  CD2      -37.4950   66.1120   20.2110 C.ar  380  HIS380      0.1154
     98  CE1      -39.3980   66.6760   21.1600 C.ar  380  HIS380      0.1986
     99  NE2      -38.1360   66.3460   21.4090 N.ar  380  HIS380     -0.2212
    100  N        -38.7950   65.0460   14.9940 N.am  381  GLN381     -0.1979
    101  CA       -38.6910   64.7830   13.5530 C.3   381  GLN381      0.1601
    102  C        -37.4120   65.3670   12.9700 C.2   381  GLN381      0.2287
    103  O        -36.6710   64.6370   12.3120 O.2   381  GLN381     -0.2864
    104  CB       -39.9200   65.3630   12.8320 C.3   381  GLN381      0.0394
    105  CG       -39.8210   65.2070   11.3290 C.3   381  GLN381      0.0908
    106  CD       -41.1140   65.6660   10.6190 C.2   381  GLN381      0.2608
    107  OE1      -41.7710   64.8440   10.0090 O.2   381  GLN381     -0.2717
    108  NE2      -41.4780   66.9780   10.7160 N.am  381  GLN381     -0.0878
@<TRIPOS>BOND
     1   107   106    2
     2   106   108   am
     3   106   105    1
     4   105   104    1
     5   103   102    2
     6    11     9    1
     7   104   101    1
     8   102   101    1
     9   101   100    1
    10     9    10    1
    11     9     8    2
    12     7     8    1
    13     7     6    1
    14    43    42    2
    15    48    49    1
    16    89    87   ar
    17   100    92   am
    18    49    50    1
    19    49    52    1
    20    93    92    2
    21    50    51    2
    22     6     5    1
    23    88    87   ar
    24    87    86    1
    25    92    91    1
    26    42    41    1
    27    47    45   am
    28    41    44    1
    29    41    40    1
    30    33    32    2
    31     5     2    1
    32    44    45    1
    33    52    53    1
    34    86    85    1
    35    59    60    1
    36    45    46    2
    37    58    56    1
    38    53    54    1
    39     1     2    1
    40    57    56    1
    41    56    55    2
    42    91    94    1
    43    91    90    1
    44    32    40   am
    45    32    31    1
    46     2     3    1
    47    55    54    1
    48    94    95    1
    49    83    82    1
    50    83    84    2
    51    60    61    1
    52    85    82    1
    53    82    81    1
    54    21    20   ar
    55    21    19   ar
    56     3     4    2
    57     3    12   am
    58    20    18   ar
    59    31    34    1
    60    31    30    1
    61    15    14    2
    62    34    35    1
    63    95    96   ar
    64    95    97   ar
    65    61    62    2
    66    61    63   am
    67    25    24    2
    68    28    27    2
    69    12    13    1
    70    19    17   ar
    71    18    17   ar
    72    22    23    1
    73    96    98   ar
    74    35    37   ar
    75    35    36   ar
    76    37    39   ar
    77    14    13    1
    78    63    64    1
    79    97    99   ar
    80    29    27   am
    81    27    26    1
    82    17    16    1
    83    24    23    1
    84    13    16    1
    85    23    26    1
    86    36    38   ar
    87    39    38   ar
    88    98    99   ar
    89    64    65    1
    90    66    65    2
    91    73    72    1
    92    80    79    1
    93    79    76    1
    94    72    71    1
    95    72    74    1
    96    71    68    1
    97    78    77    2
    98    77    76    1
    99    76    75    1
   100    68    67    1
   101    68    69    1
   102    70    69    2
