@<TRIPOS>MOLECULE
tmp/3qpuA03.pdb
 113 109 0 0 0
SMALL
GASTEIGER

@<TRIPOS>ATOM
      1  N        -49.6170   74.7410   10.2470 N.3   326  TYR326     -0.1241
      2  CA       -49.0090   74.9900    8.9440 C.3   326  TYR326      0.1605
      3  C        -49.8080   76.0340    8.0950 C.2   326  TYR326      0.2264
      4  O        -49.2000   76.8070    7.3390 O.2   326  TYR326     -0.2867
      5  CB       -48.6600   73.6640    8.2070 C.3   326  TYR326      0.0534
      6  CG       -47.2580   73.0560    8.5500 C.ar  326  TYR326     -0.0201
      7  CD1      -46.0660   73.8380    8.3810 C.ar  326  TYR326     -0.0009
      8  CD2      -47.1110   71.7380    9.0370 C.ar  326  TYR326     -0.0009
      9  CE1      -44.8010   73.3550    8.6780 C.ar  326  TYR326      0.0417
     10  CE2      -45.8120   71.2240    9.3460 C.ar  326  TYR326      0.0417
     11  CZ       -44.6630   72.0570    9.1590 C.ar  326  TYR326      0.1957
     12  OH       -43.3580   71.6340    9.4500 O.3   326  TYR326     -0.2866
     13  N        -38.4720   78.7990    3.0510 N.3   340  ARG340     -0.1231
     14  CA       -38.1840   77.5380    3.6810 C.3   340  ARG340      0.1694
     15  C        -38.2650   76.3900    2.6390 C.2   340  ARG340      0.2591
     16  O        -37.3220   75.5720    2.5230 O.2   340  ARG340     -0.2718
     17  CB       -39.1100   77.3280    4.9010 C.3   340  ARG340      0.0321
     18  CG       -38.7610   76.1180    5.7380 C.3   340  ARG340      0.0489
     19  CD       -39.5430   75.9870    7.0550 C.3   340  ARG340      0.2205
     20  NE       -38.8200   75.0580    7.9260 N.pl3 340  ARG340     -0.0865
     21  CZ       -39.0930   73.7570    8.1180 C.cat 340  ARG340      0.5346
     22  NH1      -40.1500   73.1840    7.5650 N.pl3 340  ARG340      0.1354
     23  NH2      -38.3220   73.0610    8.9490 N.pl3 340  ARG340      0.1354
     24  N        -39.3350   76.3830    1.8400 N.am  341  GLU341     -0.1979
     25  CA       -39.5340   75.3350    0.8000 C.3   341  GLU341      0.1602
     26  C        -38.4600   75.3540   -0.2780 C.2   341  GLU341      0.2287
     27  O        -38.1590   74.3640   -0.9040 O.2   341  GLU341     -0.2864
     28  CB       -40.9300   75.4220    0.1470 C.3   341  GLU341      0.0415
     29  CG       -42.1960   75.2960    1.0970 C.3   341  GLU341      0.1163
     30  CD       -42.2120   74.0950    2.1290 C.2   341  GLU341      0.3649
     31  OE1      -41.4330   73.0900    1.9930 O.co2 341  GLU341     -0.2457
     32  OE2      -43.0370   74.1720    3.1010 O.co2 341  GLU341     -0.2457
     33  N        -34.4370   74.3410    2.3880 N.3   344  LYS344     -0.1245
     34  CA       -34.9180   73.8630    3.6580 C.3   344  LYS344      0.1561
     35  C        -33.8060   73.5600    4.6890 C.2   344  LYS344      0.2260
     36  O        -34.0480   73.6030    5.8800 O.2   344  LYS344     -0.2867
     37  CB       -35.8000   72.6340    3.4420 C.3   344  LYS344      0.0271
     38  CG       -36.7260   72.3740    4.5960 C.3   344  LYS344      0.0035
     39  CD       -37.5930   71.1780    4.3150 C.3   344  LYS344      0.0206
     40  CE       -38.4000   70.7810    5.5720 C.3   344  LYS344      0.1093
     41  NZ       -39.0420   69.4630    5.3650 N.3   344  LYS344     -0.1314
     42  N        -31.8920   73.6190   10.0600 N.3   355  TYR355     -0.1241
     43  CA       -31.2610   72.2790   10.1870 C.3   355  TYR355      0.1605
     44  C        -29.7820   72.4180   10.4110 C.2   355  TYR355      0.2264
     45  O        -29.1640   71.6160   11.1280 O.2   355  TYR355     -0.2867
     46  CB       -31.5160   71.4280    8.9520 C.3   355  TYR355      0.0534
     47  CG       -32.8330   70.7060    9.0340 C.ar  355  TYR355     -0.0201
     48  CD1      -34.0270   71.3890    8.7750 C.ar  355  TYR355     -0.0009
     49  CD2      -32.9020   69.3520    9.3800 C.ar  355  TYR355     -0.0009
     50  CE1      -35.2330   70.7640    8.8590 C.ar  355  TYR355      0.0417
     51  CE2      -34.1440   68.6910    9.4330 C.ar  355  TYR355      0.0417
     52  CZ       -35.2860   69.3930    9.1820 C.ar  355  TYR355      0.1957
     53  OH       -36.5520   68.7870    9.2590 O.3   355  TYR355     -0.2866
     54  N        -38.7950   65.0460   14.9940 N.3   381  GLN381     -0.1245
     55  CA       -38.6910   64.7830   13.5530 C.3   381  GLN381      0.1566
     56  C        -37.4120   65.3670   12.9700 C.2   381  GLN381      0.2260
     57  O        -36.6710   64.6370   12.3120 O.2   381  GLN381     -0.2867
     58  CB       -39.9200   65.3630   12.8320 C.3   381  GLN381      0.0367
     59  CG       -39.8210   65.2070   11.3290 C.3   381  GLN381      0.0905
     60  CD       -41.1140   65.6660   10.6190 C.2   381  GLN381      0.2608
     61  OE1      -41.7710   64.8440   10.0090 O.2   381  GLN381     -0.2717
     62  NE2      -41.4780   66.9780   10.7160 N.am  381  GLN381     -0.0878
     63  N        -34.0580   63.2940   11.5560 N.3   385  ARG385     -0.1245
     64  CA       -33.5130   63.3830   10.2100 C.3   385  ARG385      0.1563
     65  C        -32.0460   63.7460   10.2690 C.2   385  ARG385      0.2260
     66  O        -31.1970   63.1690    9.5650 O.2   385  ARG385     -0.2867
     67  CB       -34.2430   64.4910    9.4560 C.3   385  ARG385      0.0307
     68  CG       -35.6240   64.1180    9.1020 C.3   385  ARG385      0.0489
     69  CD       -36.3220   65.3280    8.5760 C.3   385  ARG385      0.2205
     70  NE       -37.5520   64.8680    7.9710 N.pl3 385  ARG385     -0.0865
     71  CZ       -38.6240   65.6030    7.7210 C.cat 385  ARG385      0.5346
     72  NH1      -38.7000   66.8710    8.0930 N.pl3 385  ARG385      0.1354
     73  NH2      -39.6880   65.0160    7.1890 N.pl3 385  ARG385      0.1354
     74  N        -35.6150   66.1470    4.1990 N.3   401  TYR401     -0.1241
     75  CA       -36.6830   65.4170    3.5060 C.3   401  TYR401      0.1605
     76  C        -36.6420   63.8990    3.8450 C.2   401  TYR401      0.2264
     77  O        -37.4120   63.1360    3.2520 O.2   401  TYR401     -0.2867
     78  CB       -36.5560   65.5980    1.9420 C.3   401  TYR401      0.0534
     79  CG       -36.6610   67.0480    1.5400 C.ar  401  TYR401     -0.0201
     80  CD1      -37.8960   67.6420    1.4650 C.ar  401  TYR401     -0.0009
     81  CD2      -35.5220   67.8430    1.3020 C.ar  401  TYR401     -0.0009
     82  CE1      -38.0360   68.9640    1.1580 C.ar  401  TYR401      0.0417
     83  CE2      -35.6490   69.2190    0.9760 C.ar  401  TYR401      0.0417
     84  CZ       -36.9100   69.7570    0.9090 C.ar  401  TYR401      0.1957
     85  OH       -37.1750   71.0850    0.6180 O.3   401  TYR401     -0.2866
     86  N        -47.5540   62.1680    8.1160 N.3   433  THR433     -0.1203
     87  CA       -46.4670   63.1430    7.9160 C.3   433  THR433      0.1994
     88  C        -47.0680   64.3480    7.1740 C.2   433  THR433      0.2618
     89  O        -48.1300   64.2130    6.5290 O.2   433  THR433     -0.2717
     90  CB       -45.2330   62.5420    7.1420 C.3   433  THR433      0.1784
     91  OG1      -45.6590   61.8730    5.9370 O.3   433  THR433     -0.2211
     92  CG2      -44.4330   61.5680    8.0460 C.3   433  THR433      0.0376
     93  N        -46.4430   65.5230    7.2990 N.am  434  HIS434     -0.1961
     94  CA       -46.9250   66.6980    6.5560 C.3   434  HIS434      0.1787
     95  C        -46.7740   66.5130    5.0120 C.2   434  HIS434      0.2620
     96  O        -47.6430   66.9860    4.2380 O.2   434  HIS434     -0.2715
     97  CB       -46.2990   68.0120    7.0740 C.3   434  HIS434      0.0785
     98  CG       -46.6700   69.2180    6.2620 C.ar  434  HIS434      0.0821
     99  ND1      -45.7380   69.9830    5.5900 N.ar  434  HIS434     -0.2267
    100  CD2      -47.8800   69.7730    5.9860 C.ar  434  HIS434      0.1154
    101  CE1      -46.3560   70.9650    4.9510 C.ar  434  HIS434      0.1986
    102  NE2      -47.6540   70.8580    5.1730 N.ar  434  HIS434     -0.2212
    103  N        -45.7040   65.8080    4.5830 N.am  435  ARG435     -0.1977
    104  CA       -45.4600   65.5110    3.1490 C.3   435  ARG435      0.1597
    105  C        -46.6330   64.7560    2.5050 C.2   435  ARG435      0.2287
    106  O        -47.1000   65.1610    1.4320 O.2   435  ARG435     -0.2864
    107  CB       -44.1180   64.7860    2.8990 C.3   435  ARG435      0.0334
    108  CG       -43.8900   64.3570    1.4040 C.3   435  ARG435      0.0492
    109  CD       -42.4710   64.6580    0.8780 C.3   435  ARG435      0.2205
    110  NE       -42.3160   65.9740    0.2220 N.pl3 435  ARG435     -0.0865
    111  CZ       -42.1760   67.1570    0.8420 C.cat 435  ARG435      0.5346
    112  NH1      -42.1910   67.2680    2.1720 N.pl3 435  ARG435      0.1354
    113  NH2      -42.0330   68.2570    0.1230 N.pl3 435  ARG435      0.1354
@<TRIPOS>BOND
     1    27    26    2
     2    26    25    1
     3   113   111    1
     4    28    25    1
     5    28    29    1
     6   110   111    2
     7   110   109    1
     8    85    84    1
     9    25    24    1
    10   111   112    1
    11   109   108    1
    12    84    83   ar
    13    84    82   ar
    14    83    81   ar
    15    29    30    1
    16    82    80   ar
    17    81    79   ar
    18   108   107    1
    19   106   105    2
    20    80    79   ar
    21    79    78    1
    22    24    15   am
    23    78    75    1
    24    31    30   ar
    25    30    32   ar
    26    33    34    1
    27   105   104    1
    28    16    15    2
    29    15    14    1
    30   107   104    1
    31    13    14    1
    32   104   103    1
    33    77    76    2
    34    37    34    1
    35    37    38    1
    36    75    76    1
    37    75    74    1
    38    34    35    1
    39    14    17    1
    40    96    95    2
    41    39    38    1
    42    39    40    1
    43   103    95   am
    44    35    36    2
    45    17    18    1
    46   101   102   ar
    47   101    99   ar
    48    95    94    1
    49   102   100   ar
    50    41    40    1
    51    99    98   ar
    52    18    19    1
    53    91    90    1
    54   100    98   ar
    55    98    97    1
    56    89    88    2
    57    94    97    1
    58    94    93    1
    59    19    20    1
    60    90    87    1
    61    90    92    1
    62    88    93   am
    63    88    87    1
    64    73    71    1
    65     4     3    2
    66    22    21    1
    67    71    70    2
    68    71    72    1
    69    87    86    1
    70    20    21    2
    71    70    69    1
    72     3     2    1
    73    21    23    1
    74     5     6    1
    75     5     2    1
    76     7     6   ar
    77     7     9   ar
    78     6     8   ar
    79    69    68    1
    80     9    11   ar
    81    48    50   ar
    82    48    47   ar
    83    50    52   ar
    84     2     1    1
    85    46    47    1
    86    46    43    1
    87    47    49   ar
    88     8    10   ar
    89    68    67    1
    90    11    10   ar
    91    11    12    1
    92    52    53    1
    93    52    51   ar
    94    49    51   ar
    95    67    64    1
    96    66    65    2
    97    61    60    2
    98    42    43    1
    99    43    44    1
   100    64    65    1
   101    64    63    1
   102    44    45    2
   103    60    62   am
   104    60    59    1
   105    59    58    1
   106    57    56    2
   107    58    55    1
   108    56    55    1
   109    55    54    1
