@<TRIPOS>MOLECULE
tmp/3qpvA00.pdb
 171 162 0 0 0
SMALL
GASTEIGER

@<TRIPOS>ATOM
      1  N         -2.4360   45.9140    4.3420 N.3    30  PRO30      -0.2116
      2  CA        -3.8310   45.6800    4.0780 C.3    30  PRO30       0.1372
      3  C         -4.5400   45.0230    5.2160 C.2    30  PRO30       0.2244
      4  O         -3.8740   44.3420    6.0370 O.2    30  PRO30      -0.2868
      5  CB        -3.8150   44.7730    2.8300 C.3    30  PRO30       0.0268
      6  CG        -2.5610   45.1700    2.1570 C.3    30  PRO30       0.0207
      7  CD        -1.5860   45.3260    3.3070 C.3    30  PRO30       0.0892
      8  N         -9.6310   51.5470    5.1080 N.3    35  THR35      -0.1218
      9  CA       -10.7680   51.9710    4.3210 C.3    35  THR35       0.1862
     10  C        -11.9220   52.3090    5.2400 C.2    35  THR35       0.2287
     11  O        -12.6210   53.3110    5.0450 O.2    35  THR35      -0.2866
     12  CB       -11.1970   50.8880    3.3520 C.3    35  THR35       0.1770
     13  OG1      -10.1920   50.8180    2.3590 O.3    35  THR35      -0.2211
     14  CG2      -12.5180   51.2370    2.6160 C.3    35  THR35       0.0375
     15  N         -9.8230   56.0970   -2.9440 N.3    56  ASN56      -0.1225
     16  CA        -9.3530   54.7200   -2.7300 C.3    56  ASN56       0.1785
     17  C         -8.5810   54.3090   -4.0100 C.2    56  ASN56       0.2597
     18  O         -9.1770   54.1670   -5.0970 O.2    56  ASN56      -0.2718
     19  CB       -10.5210   53.7830   -2.4600 C.3    56  ASN56       0.1169
     20  CG       -10.0830   52.3380   -2.3240 C.2    56  ASN56       0.2627
     21  OD1       -9.8580   51.8310   -1.2200 O.2    56  ASN56      -0.2716
     22  ND2       -9.9350   51.6660   -3.4490 N.am   56  ASN56      -0.0877
     23  N         -7.2540   54.1680   -3.8690 N.am   57  VAL57      -0.1966
     24  CA        -6.3540   53.8720   -4.9840 C.3    57  VAL57       0.1727
     25  C         -6.6680   52.4590   -5.6010 C.2    57  VAL57       0.2616
     26  O         -6.6180   52.2620   -6.8410 O.2    57  VAL57      -0.2715
     27  CB        -4.8940   54.0610   -4.5280 C.3    57  VAL57       0.0290
     28  CG1       -3.9760   53.6630   -5.5790 C.3    57  VAL57       0.0023
     29  CG2       -4.6590   55.5020   -4.1570 C.3    57  VAL57       0.0023
     30  N         -7.0740   51.5320   -4.7410 N.am   58  GLY58      -0.1955
     31  CA        -7.5910   50.2830   -5.1850 C.3    58  GLY58       0.1869
     32  C         -8.7320   50.3660   -6.2110 C.2    58  GLY58       0.2309
     33  O         -8.8820   49.4650   -7.0660 O.2    58  GLY58      -0.2863
     34  N         -7.2480   51.1590   -9.4810 N.3    61  ARG61      -0.1231
     35  CA        -6.6660   49.9490   -9.9660 C.3    61  ARG61       0.1694
     36  C         -7.7230   49.0700  -10.6280 C.2    61  ARG61       0.2591
     37  O         -7.5020   48.5370  -11.7130 O.2    61  ARG61      -0.2718
     38  CB        -6.0550   49.2860   -8.7670 C.3    61  ARG61       0.0321
     39  CG        -4.9910   48.3110   -9.0700 C.3    61  ARG61       0.0489
     40  CD        -5.5280   46.9840   -8.8690 C.3    61  ARG61       0.2205
     41  NE        -5.8810   46.7450   -7.4810 N.pl3  61  ARG61      -0.0865
     42  CZ        -6.8070   45.8550   -7.1360 C.cat  61  ARG61       0.5346
     43  NH1       -7.4340   45.1590   -8.0840 N.pl3  61  ARG61       0.1354
     44  NH2       -7.1280   45.6780   -5.8670 N.pl3  61  ARG61       0.1354
     45  N         -8.8960   48.9660  -10.0060 N.am   62  ARG62      -0.1980
     46  CA        -9.9170   48.0890  -10.5500 C.3    62  ARG62       0.1597
     47  C        -10.5270   48.6550  -11.8100 C.2    62  ARG62       0.2287
     48  O        -11.1330   47.9310  -12.5920 O.2    62  ARG62      -0.2864
     49  CB       -11.0030   47.8170   -9.5450 C.3    62  ARG62       0.0334
     50  CG       -10.8320   46.4880   -8.9040 C.3    62  ARG62       0.0492
     51  CD       -12.0240   46.1430   -7.9580 C.3    62  ARG62       0.2205
     52  NE       -12.1920   47.1390   -6.8990 N.pl3  62  ARG62      -0.0865
     53  CZ       -11.4920   47.1750   -5.7710 C.cat  62  ARG62       0.5346
     54  NH1      -10.5640   46.2620   -5.5070 N.pl3  62  ARG62       0.1354
     55  NH2      -11.7400   48.1420   -4.9030 N.pl3  62  ARG62       0.1354
     56  N          0.6850   42.0210   -7.2620 N.3    74  PHE74      -0.1241
     57  CA         1.2660   42.8820   -6.2170 C.3    74  PHE74       0.1605
     58  C          2.7270   42.6120   -5.8460 C.2    74  PHE74       0.2264
     59  O          3.2690   43.2570   -4.9740 O.2    74  PHE74      -0.2867
     60  CB         0.3810   42.8300   -4.9560 C.3    74  PHE74       0.0534
     61  CG        -0.9170   43.5100   -5.1350 C.ar   74  PHE74      -0.0203
     62  CD1       -1.0100   44.9070   -5.0070 C.ar   74  PHE74      -0.0042
     63  CD2       -2.0590   42.7920   -5.4440 C.ar   74  PHE74      -0.0042
     64  CE1       -2.2330   45.5930   -5.1830 C.ar   74  PHE74      -0.0003
     65  CE2       -3.3100   43.4600   -5.6310 C.ar   74  PHE74      -0.0003
     66  CZ        -3.3850   44.8820   -5.5080 C.ar   74  PHE74      -0.0000
     67  N          0.3600   50.5680  -10.7000 N.3    85  ARG85      -0.1245
     68  CA         0.1390   51.0010   -9.3650 C.3    85  ARG85       0.1563
     69  C          0.6130   52.4360   -9.1820 C.2    85  ARG85       0.2260
     70  O         -0.1470   53.2900   -8.7680 O.2    85  ARG85      -0.2867
     71  CB         0.7890   50.0210   -8.4000 C.3    85  ARG85       0.0307
     72  CG         0.1460   48.6230   -8.4250 C.3    85  ARG85       0.0489
     73  CD         0.9640   47.6350   -7.5910 C.3    85  ARG85       0.2205
     74  NE         1.0870   48.1080   -6.2120 N.pl3  85  ARG85      -0.0865
     75  CZ         1.9400   47.6380   -5.2970 C.cat  85  ARG85       0.5346
     76  NH1        2.7840   46.6620   -5.6130 N.pl3  85  ARG85       0.1354
     77  NH2        1.9380   48.1240   -4.0510 N.pl3  85  ARG85       0.1354
     78  N         -1.9370   55.5600   -8.2300 N.3    89  ALA89      -0.1245
     79  CA        -1.6760   56.5790   -7.1910 C.3    89  ALA89       0.1562
     80  C         -1.7150   58.0060   -7.7590 C.2    89  ALA89       0.2260
     81  O         -2.5150   58.8350   -7.2690 O.2    89  ALA89      -0.2867
     82  CB        -0.3620   56.3180   -6.4370 C.3    89  ALA89       0.0290
     83  N         -6.4550   57.0570    0.3840 N.3   111  ASP111     -0.1225
     84  CA        -6.6010   55.7440    0.9490 C.3   111  ASP111      0.1805
     85  C         -5.8800   54.6550    0.1330 C.2   111  ASP111      0.2598
     86  O         -6.4020   54.1520   -0.8820 O.2   111  ASP111     -0.2718
     87  CB        -8.1150   55.3990    1.1140 C.3   111  ASP111      0.1424
     88  CG        -8.3070   54.0210    1.7060 C.2   111  ASP111      0.3668
     89  OD1       -7.3800   53.6790    2.4530 O.co2 111  ASP111     -0.2456
     90  OD2       -9.3220   53.3170    1.4360 O.co2 111  ASP111     -0.2456
     91  N         -4.6920   54.2990    0.6190 N.am  112  ALA112     -0.1966
     92  CA        -3.8030   53.3410    0.0200 C.3   112  ALA112      0.1728
     93  C         -2.8750   52.8480    1.1450 C.2   112  ALA112      0.2617
     94  O         -2.8970   53.4220    2.2460 O.2   112  ALA112     -0.2715
     95  CB        -3.0020   54.0270   -1.0410 C.3   112  ALA112      0.0334
     96  N         -2.0290   51.8520    0.8820 N.am  113  THR113     -0.1937
     97  CA        -1.1640   51.3540    1.9660 C.3   113  THR113      0.2028
     98  C         -0.1750   52.4360    2.3560 C.2   113  THR113      0.2642
     99  O          0.1790   52.5590    3.5160 O.2   113  THR113     -0.2714
    100  CB        -0.3880   49.9970    1.6360 C.3   113  THR113      0.1808
    101  OG1        0.8390   50.2670    0.9560 O.3   113  THR113     -0.2208
    102  CG2       -1.1760   49.1220    0.7280 C.3   113  THR113      0.0379
    103  N          0.2550   53.2310    1.3710 N.am  114  ASN114     -0.1957
    104  CA         1.2320   54.2800    1.6120 C.3   114  ASN114      0.1819
    105  C          2.3190   53.8700    2.6280 C.2   114  ASN114      0.2621
    106  O          2.7880   54.6630    3.4640 O.2   114  ASN114     -0.2715
    107  CB         0.4810   55.5510    1.9910 C.3   114  ASN114      0.1195
    108  CG        -0.3760   56.0030    0.8620 C.2   114  ASN114      0.2630
    109  OD1        0.1130   56.0660   -0.2560 O.2   114  ASN114     -0.2716
    110  ND2       -1.6680   56.2570    1.1030 N.am  114  ASN114     -0.0877
    111  N          2.7540   52.6150    2.4760 N.am  115  THR115     -0.1951
    112  CA         3.6980   51.9270    3.4030 C.3   115  THR115      0.1897
    113  C          5.2310   52.1910    3.2910 C.2   115  THR115      0.2313
    114  O          6.0240   51.7820    4.1740 O.2   115  THR115     -0.2863
    115  CB         3.4810   50.4320    3.3080 C.3   115  THR115      0.1794
    116  OG1        3.3050   50.0710    1.9230 O.3   115  THR115     -0.2208
    117  CG2        2.2510   49.9850    4.1900 C.3   115  THR115      0.0378
    118  N          6.9410   56.4990   -0.9170 N.3   119  ARG119     -0.1245
    119  CA         5.5910   56.8930   -1.3150 C.3   119  ARG119      0.1563
    120  C          5.1270   58.1380   -0.5150 C.2   119  ARG119      0.2260
    121  O          4.6110   59.0960   -1.0750 O.2   119  ARG119     -0.2867
    122  CB         4.6210   55.7390   -1.2110 C.3   119  ARG119      0.0307
    123  CG         3.1950   56.1440   -1.3400 C.3   119  ARG119      0.0489
    124  CD         2.8550   56.6900   -2.7100 C.3   119  ARG119      0.2205
    125  NE         2.7080   55.5810   -3.6150 N.pl3 119  ARG119     -0.0865
    126  CZ         1.7550   54.6450   -3.5350 C.cat 119  ARG119      0.5346
    127  NH1        0.7990   54.6670   -2.5990 N.pl3 119  ARG119      0.1354
    128  NH2        1.7590   53.6670   -4.4220 N.pl3 119  ARG119      0.1354
    129  N        -12.8520   41.5670    2.8060 N.3   155  LYS155     -0.1245
    130  CA       -11.9520   41.3830    1.6780 C.3   155  LYS155      0.1561
    131  C        -12.4860   40.3350    0.7160 C.2   155  LYS155      0.2260
    132  O        -12.6480   40.6050   -0.4780 O.2   155  LYS155     -0.2867
    133  CB       -10.4960   41.0920    2.1190 C.3   155  LYS155      0.0271
    134  CG        -9.8550   42.2080    3.0060 C.3   155  LYS155      0.0035
    135  CD       -10.0530   43.5910    2.3640 C.3   155  LYS155      0.0206
    136  CE        -9.0170   44.5430    2.8120 C.3   155  LYS155      0.1093
    137  NZ        -9.2250   45.8190    2.1590 N.3   155  LYS155     -0.1314
    138  N         -5.2170   36.6530   -0.3340 N.3   173  PHE173     -0.1241
    139  CA        -5.1050   37.9350    0.2930 C.3   173  PHE173      0.1605
    140  C         -3.9890   37.9020    1.3340 C.2   173  PHE173      0.2264
    141  O         -3.3130   38.9260    1.5370 O.2   173  PHE173     -0.2867
    142  CB        -6.4550   38.4060    0.8740 C.3   173  PHE173      0.0534
    143  CG        -6.5180   39.9000    1.1030 C.ar  173  PHE173     -0.0203
    144  CD1       -6.9250   40.7480    0.0810 C.ar  173  PHE173     -0.0042
    145  CD2       -6.1490   40.4460    2.3250 C.ar  173  PHE173     -0.0042
    146  CE1       -6.9750   42.0940    0.2390 C.ar  173  PHE173     -0.0003
    147  CE2       -6.1770   41.8200    2.5060 C.ar  173  PHE173     -0.0003
    148  CZ        -6.5980   42.6550    1.4380 C.ar  173  PHE173     -0.0000
    149  N         -1.0480   38.5780   -0.7960 N.3   176  ARG176     -0.1245
    150  CA        -1.0220   40.0280   -1.0880 C.3   176  ARG176      0.1563
    151  C         -0.4600   40.8010    0.0910 C.2   176  ARG176      0.2260
    152  O          0.4090   41.6350   -0.0980 O.2   176  ARG176     -0.2867
    153  CB        -2.3980   40.5170   -1.3310 C.3   176  ARG176      0.0307
    154  CG        -2.5750   41.8440   -2.0770 C.3   176  ARG176      0.0489
    155  CD        -3.9590   41.6140   -2.7350 C.3   176  ARG176      0.2205
    156  NE        -4.8180   42.7540   -2.6300 N.pl3 176  ARG176     -0.0865
    157  CZ        -6.0200   42.8310   -3.1810 C.cat 176  ARG176      0.5346
    158  NH1       -6.5480   41.7940   -3.8730 N.pl3 176  ARG176      0.1354
    159  NH2       -6.7180   43.9710   -3.0100 N.pl3 176  ARG176      0.1354
    160  N          3.5910   43.2810    0.7150 N.3   180  TYR180     -0.1241
    161  CA         3.8610   44.5720    1.2890 C.3   180  TYR180      0.1605
    162  C          4.7390   44.5390    2.5190 C.2   180  TYR180      0.2264
    163  O          5.3600   45.5460    2.8570 O.2   180  TYR180     -0.2867
    164  CB         2.5290   45.1970    1.7190 C.3   180  TYR180      0.0534
    165  CG         1.6960   45.7450    0.5940 C.ar  180  TYR180     -0.0201
    166  CD1        1.9690   47.0130    0.0430 C.ar  180  TYR180     -0.0009
    167  CD2        0.6520   44.9900    0.0780 C.ar  180  TYR180     -0.0009
    168  CE1        1.1570   47.5130   -1.0030 C.ar  180  TYR180      0.0417
    169  CE2       -0.1410   45.4600   -0.9620 C.ar  180  TYR180      0.0417
    170  CZ         0.1000   46.7200   -1.4930 C.ar  180  TYR180      0.1957
    171  OH        -0.7220   47.1630   -2.5070 O.3   180  TYR180     -0.2866
@<TRIPOS>BOND
     1    48    47    2
     2    47    46    1
     3    37    36    2
     4    67    68    1
     5    36    45   am
     6    36    35    1
     7    46    45    1
     8    46    49    1
     9    35    34    1
    10    35    38    1
    11    49    50    1
    12    68    69    1
    13    68    71    1
    14    69    70    2
    15    39    40    1
    16    39    38    1
    17    50    51    1
    18    40    41    1
    19    72    71    1
    20    72    73    1
    21    78    79    1
    22    43    42    1
    23    51    52    1
    24    80    81    2
    25    80    79    1
    26    73    74    1
    27    41    42    2
    28    56    57    1
    29    79    82    1
    30    42    44    1
    31    33    32    2
    32    52    53    2
    33    26    25    2
    34    57    58    1
    35    57    60    1
    36    74    75    2
    37    32    31    1
    38    58    59    2
    39    53    54    1
    40    53    55    1
    41    65    66   ar
    42    65    63   ar
    43    76    75    1
    44    25    24    1
    45    25    30   am
    46    28    27    1
    47    66    64   ar
    48    63    61   ar
    49    75    77    1
    50    31    30    1
    51    64    62   ar
    52    61    62   ar
    53    61    60    1
    54    18    17    2
    55    24    27    1
    56    24    23    1
    57    27    29    1
    58   128   126    1
    59    17    23   am
    60    17    16    1
    61   158   157    1
    62   125   126    2
    63   125   124    1
    64   126   127    1
    65    22    20   am
    66   157   159    1
    67   157   156    2
    68    15    16    1
    69   155   156    1
    70   155   154    1
    71    16    19    1
    72   124   123    1
    73   171   170    1
    74    19    20    1
    75    20    21    2
    76   154   153    1
    77   170   168   ar
    78   170   169   ar
    79   123   122    1
    80   153   150    1
    81   119   122    1
    82   119   118    1
    83   119   120    1
    84   150   149    1
    85   150   151    1
    86   121   120    2
    87    95    92    1
    88   168   166   ar
    89   169   167   ar
    90    86    85    2
    91   132   131    2
    92   138   139    1
    93   109   108    2
    94   152   151    2
    95    92    91    1
    96    92    93    1
    97   166   165   ar
    98   167   165   ar
    99   144   146   ar
   100   144   143   ar
   101    85    91   am
   102    85    84    1
   103   146   148   ar
   104   139   142    1
   105   139   140    1
   106    83    84    1
   107   165   164    1
   108   160   161    1
   109   131   130    1
   110   102   100    1
   111   108   110   am
   112   108   107    1
   113   142   143    1
   114    96    93   am
   115    96    97    1
   116    84    87    1
   117   101   100    1
   118   143   145   ar
   119    87    88    1
   120    93    94    2
   121   161   164    1
   122   161   162    1
   123   140   141    2
   124   103   104    1
   125   103    98   am
   126    90    88   ar
   127   148   147   ar
   128   104   107    1
   129   104   105    1
   130   100    97    1
   131   130   133    1
   132   130   129    1
   133    88    89   ar
   134   116   115    1
   135    97    98    1
   136   133   134    1
   137     6     5    1
   138     6     7    1
   139   137   136    1
   140   145   147   ar
   141    98    99    2
   142    13    12    1
   143   135   136    1
   144   135   134    1
   145   111   105   am
   146   111   112    1
   147   162   163    2
   148    14    12    1
   149   105   106    2
   150     5     2    1
   151   113   112    1
   152   113   114    2
   153     7     1    1
   154   115   112    1
   155   115   117    1
   156    12     9    1
   157     2     1    1
   158     2     3    1
   159     9     8    1
   160     9    10    1
   161    11    10    2
   162     3     4    2
