@<TRIPOS>MOLECULE
tmp/3qpwA01.pdb
 109 102 0 0 0
SMALL
GASTEIGER

@<TRIPOS>ATOM
      1  N         -7.2320   54.4740   -3.9120 N.3    62  VAL62      -0.1231
      2  CA        -6.3450   53.9840   -5.0010 C.3    62  VAL62       0.1692
      3  C         -6.6950   52.5510   -5.5290 C.2    62  VAL62       0.2592
      4  O         -6.6660   52.2850   -6.7350 O.2    62  VAL62      -0.2718
      5  CB        -4.8290   54.1760   -4.6490 C.3    62  VAL62       0.0266
      6  CG1       -3.9480   53.8050   -5.8420 C.3    62  VAL62       0.0020
      7  CG2       -4.5600   55.6520   -4.2810 C.3    62  VAL62       0.0020
      8  N         -7.0410   51.6580   -4.6390 N.am   63  GLY63      -0.1957
      9  CA        -7.5270   50.3390   -5.0040 C.3    63  GLY63       0.1869
     10  C         -8.6880   50.3550   -5.9960 C.2    63  GLY63       0.2309
     11  O         -8.7800   49.4660   -6.8660 O.2    63  GLY63      -0.2863
     12  N         -7.2930   51.2010   -9.2930 N.3    66  ARG66      -0.1245
     13  CA        -6.6280   50.0000   -9.8060 C.3    66  ARG66       0.1563
     14  C         -7.6600   48.9970  -10.3430 C.2    66  ARG66       0.2260
     15  O         -7.4470   48.4400  -11.4010 O.2    66  ARG66      -0.2867
     16  CB        -5.7000   49.3780   -8.7590 C.3    66  ARG66       0.0307
     17  CG        -4.9650   48.0900   -9.1670 C.3    66  ARG66       0.0489
     18  CD        -5.7910   46.8160   -8.8850 C.3    66  ARG66       0.2205
     19  NE        -6.1390   46.6600   -7.4670 N.pl3  66  ARG66      -0.0865
     20  CZ        -7.1230   45.8880   -7.0070 C.cat  66  ARG66       0.5346
     21  NH1       -7.8500   45.1650   -7.8400 N.pl3  66  ARG66       0.1354
     22  NH2       -7.3830   45.8210   -5.7040 N.pl3  66  ARG66       0.1354
     23  N          0.3510   41.9400   -6.5930 N.3    79  PHE79      -0.1241
     24  CA         1.0000   42.7890   -5.5390 C.3    79  PHE79       0.1605
     25  C          2.4570   42.4110   -5.1650 C.2    79  PHE79       0.2264
     26  O          3.0390   43.0000   -4.2310 O.2    79  PHE79      -0.2867
     27  CB         0.1160   42.9140   -4.2930 C.3    79  PHE79       0.0534
     28  CG        -1.1660   43.6640   -4.5640 C.ar   79  PHE79      -0.0203
     29  CD1       -1.1830   45.0490   -4.5310 C.ar   79  PHE79      -0.0042
     30  CD2       -2.3350   42.9750   -4.8950 C.ar   79  PHE79      -0.0042
     31  CE1       -2.3420   45.7700   -4.8400 C.ar   79  PHE79      -0.0003
     32  CE2       -3.5260   43.6760   -5.2060 C.ar   79  PHE79      -0.0003
     33  CZ        -3.5220   45.0890   -5.1790 C.ar   79  PHE79      -0.0000
     34  N          0.1370   50.3100  -10.3660 N.3    90  ARG90      -0.1245
     35  CA        -0.0510   50.8280   -9.0210 C.3    90  ARG90       0.1563
     36  C          0.4200   52.2580   -8.8630 C.2    90  ARG90       0.2260
     37  O         -0.3360   53.0830   -8.3560 O.2    90  ARG90      -0.2867
     38  CB         0.5960   49.9180   -7.9780 C.3    90  ARG90       0.0307
     39  CG        -0.1370   48.6100   -7.8410 C.3    90  ARG90       0.0489
     40  CD         0.5880   47.5760   -6.9780 C.3    90  ARG90       0.2205
     41  NE         0.8770   48.0600   -5.6260 N.pl3  90  ARG90      -0.0865
     42  CZ         1.9100   47.6420   -4.8930 C.cat  90  ARG90       0.5346
     43  NH1        2.7560   46.6950   -5.3750 N.pl3  90  ARG90       0.1354
     44  NH2        2.0970   48.1460   -3.6720 N.pl3  90  ARG90       0.1354
     45  N         -1.8460   54.6150  -10.8820 N.3    93  CYS93      -0.1221
     46  CA        -3.1300   54.7290  -10.2170 C.3    93  CYS93       0.1808
     47  C         -3.0440   55.7570   -9.0740 C.2    93  CYS93       0.2601
     48  O         -3.9290   56.5810   -8.9240 O.2    93  CYS93      -0.2717
     49  CB        -3.6040   53.3910   -9.6860 C.3    93  CYS93       0.0970
     50  SG        -4.1590   52.3040  -10.9910 S.3    93  CYS93      -0.0800
     51  N         -1.9390   55.7230   -8.3320 N.am   94  ALA94      -0.1979
     52  CA        -1.7010   56.6630   -7.2960 C.3    94  ALA94       0.1597
     53  C         -1.6180   58.0980   -7.8370 C.2    94  ALA94       0.2287
     54  O         -2.2160   59.0140   -7.2490 O.2    94  ALA94      -0.2864
     55  CB        -0.4860   56.2660   -6.5160 C.3    94  ALA94       0.0319
     56  N         -4.5320   54.6770    0.4310 N.3   117  ALA117     -0.1231
     57  CA        -3.6890   53.6480   -0.1820 C.3   117  ALA117      0.1694
     58  C         -2.8660   53.0990    0.9690 C.2   117  ALA117      0.2593
     59  O         -2.9490   53.6180    2.0910 O.2   117  ALA117     -0.2718
     60  CB        -2.7440   54.2890   -1.2610 C.3   117  ALA117      0.0304
     61  N         -2.0630   52.0580    0.7180 N.am  118  THR118     -0.1939
     62  CA        -1.0740   51.5570    1.7090 C.3   118  THR118      0.2028
     63  C         -0.0480   52.5860    2.1500 C.2   118  THR118      0.2642
     64  O          0.2110   52.7190    3.3250 O.2   118  THR118     -0.2714
     65  CB        -0.3370   50.2660    1.2040 C.3   118  THR118      0.1808
     66  OG1        0.3370   50.5720   -0.0380 O.3   118  THR118     -0.2208
     67  CG2       -1.3370   49.2060    0.9830 C.3   118  THR118      0.0379
     68  N          0.5690   53.2920    1.2170 N.am  119  ASN119     -0.1971
     69  CA         1.6010   54.2830    1.5640 C.3   119  ASN119      0.1688
     70  C          2.6250   53.8360    2.6080 C.2   119  ASN119      0.2292
     71  O          2.9830   54.5920    3.5290 O.2   119  ASN119     -0.2864
     72  CB         0.9320   55.6230    1.9520 C.3   119  ASN119      0.1181
     73  CG         0.0980   56.1700    0.8190 C.2   119  ASN119      0.2629
     74  OD1        0.6050   56.3280   -0.2940 O.2   119  ASN119     -0.2716
     75  ND2       -1.1850   56.4200    1.0670 N.am  119  ASN119     -0.0877
     76  N          7.2840   56.6140   -1.0800 N.3   124  ARG124     -0.1245
     77  CA         5.9370   56.9470   -1.4810 C.3   124  ARG124      0.1563
     78  C          5.3910   58.1730   -0.6980 C.2   124  ARG124      0.2260
     79  O          4.7920   59.0680   -1.3020 O.2   124  ARG124     -0.2867
     80  CB         5.0300   55.7300   -1.3360 C.3   124  ARG124      0.0307
     81  CG         3.5950   56.0070   -1.8050 C.3   124  ARG124      0.0489
     82  CD         3.5700   56.7490   -3.2010 C.3   124  ARG124      0.2205
     83  NE         4.1160   55.9400   -4.3160 N.pl3 124  ARG124     -0.0865
     84  CZ         3.4230   54.9770   -4.9500 C.cat 124  ARG124      0.5346
     85  NH1        2.1890   54.6730   -4.5730 N.pl3 124  ARG124      0.1354
     86  NH2        3.9720   54.2730   -5.9470 N.pl3 124  ARG124      0.1354
     87  N         -1.0690   38.3460   -0.1040 N.3   181  ARG181     -0.1245
     88  CA        -1.0600   39.7680   -0.4770 C.3   181  ARG181      0.1563
     89  C         -0.4550   40.6340    0.6110 C.2   181  ARG181      0.2260
     90  O          0.4120   41.4500    0.3320 O.2   181  ARG181     -0.2867
     91  CB        -2.4790   40.2140   -0.7470 C.3   181  ARG181      0.0307
     92  CG        -2.6390   41.5540   -1.4540 C.3   181  ARG181      0.0489
     93  CD        -4.0510   41.4270   -2.0600 C.3   181  ARG181      0.2205
     94  NE        -4.7040   42.7000   -2.2560 N.pl3 181  ARG181     -0.0865
     95  CZ        -5.9240   42.8730   -2.7540 C.cat 181  ARG181      0.5346
     96  NH1       -6.6950   41.8410   -3.1470 N.pl3 181  ARG181      0.1354
     97  NH2       -6.3610   44.1180   -2.8640 N.pl3 181  ARG181      0.1354
     98  N          3.8560   43.1020    1.3990 N.3   185  TYR185     -0.1241
     99  CA         4.1690   44.4750    1.8240 C.3   185  TYR185      0.1605
    100  C          5.1230   44.5470    2.9920 C.2   185  TYR185      0.2264
    101  O          5.6570   45.6070    3.2800 O.2   185  TYR185     -0.2867
    102  CB         2.8900   45.1640    2.2760 C.3   185  TYR185      0.0534
    103  CG         1.9930   45.5700    1.1610 C.ar  185  TYR185     -0.0201
    104  CD1        1.0970   44.6530    0.5950 C.ar  185  TYR185     -0.0009
    105  CD2        2.0690   46.8520    0.6350 C.ar  185  TYR185     -0.0009
    106  CE1        0.2340   45.0510   -0.4540 C.ar  185  TYR185      0.0417
    107  CE2        1.2670   47.2210   -0.4000 C.ar  185  TYR185      0.0417
    108  CZ         0.3410   46.3420   -0.9140 C.ar  185  TYR185      0.1957
    109  OH        -0.4520   46.7330   -1.9530 O.3   185  TYR185     -0.2866
@<TRIPOS>BOND
     1    15    14    2
     2    50    49    1
     3    45    46    1
     4    34    35    1
     5    14    13    1
     6    46    49    1
     7    46    47    1
     8    13    12    1
     9    13    16    1
    10    17    18    1
    11    17    16    1
    12    47    48    2
    13    47    51   am
    14    35    36    1
    15    35    38    1
    16    18    19    1
    17    36    37    2
    18    51    52    1
    19    38    39    1
    20    39    40    1
    21    21    20    1
    22    53    52    1
    23    53    54    2
    24    19    20    2
    25    52    55    1
    26    20    22    1
    27    40    41    1
    28    11    10    2
    29     4     3    2
    30    23    24    1
    31    10     9    1
    32    86    84    1
    33     6     5    1
    34    41    42    2
    35    24    25    1
    36    24    27    1
    37     3     2    1
    38     3     8   am
    39    43    42    1
    40    32    33   ar
    41    32    30   ar
    42    33    31   ar
    43    25    26    2
    44     9     8    1
    45     2     5    1
    46     2     1    1
    47    84    85    1
    48    84    83    2
    49    30    28   ar
    50    42    44    1
    51    31    29   ar
    52     5     7    1
    53    28    29   ar
    54    28    27    1
    55    83    82    1
    56    82    81    1
    57    96    95    1
    58    97    95    1
    59    95    94    2
    60    94    93    1
    61    93    92    1
    62   109   108    1
    63    81    80    1
    64    77    80    1
    65    77    76    1
    66    77    78    1
    67    92    91    1
    68    79    78    2
    69    60    57    1
    70   108   106   ar
    71   108   107   ar
    72    91    88    1
    73    88    87    1
    74    88    89    1
    75   106   104   ar
    76   107   105   ar
    77    74    73    2
    78    57    56    1
    79    57    58    1
    80    66    65    1
    81    90    89    2
    82   104   103   ar
    83   105   103   ar
    84    61    58   am
    85    61    62    1
    86    73    75   am
    87    73    72    1
    88    58    59    2
    89    67    65    1
    90   103   102    1
    91    65    62    1
    92    68    69    1
    93    68    63   am
    94    98    99    1
    95    69    72    1
    96    69    70    1
    97    62    63    1
    98    99   102    1
    99    99   100    1
   100    63    64    2
   101    70    71    2
   102   100   101    2
