@<TRIPOS>MOLECULE
tmp/3qq7A00.pdb
 90 87 0 0 0
SMALL
GASTEIGER

@<TRIPOS>ATOM
      1  N         22.0740    6.8450    4.0380 N.3    15  GLU15      -0.1231
      2  CA        22.7130    5.6600    3.4730 C.3    15  GLU15       0.1699
      3  C         22.3820    4.3650    4.2130 C.2    15  GLU15       0.2592
      4  O         22.7910    3.2860    3.7590 O.2    15  GLU15      -0.2718
      5  CB        24.2290    5.8510    3.4000 C.3    15  GLU15       0.0402
      6  CG        24.7690    6.1220    1.9970 C.3    15  GLU15       0.1161
      7  CD        24.1320    7.3260    1.3320 C.2    15  GLU15       0.3649
      8  OE1       23.9810    8.3760    1.9930 O.co2  15  GLU15      -0.2457
      9  OE2       23.7840    7.2190    0.1370 O.co2  15  GLU15      -0.2457
     10  N         21.6460    4.4760    5.3250 N.am   16  ASP16      -0.1960
     11  CA        21.2010    3.3190    6.0970 C.3    16  ASP16       0.1840
     12  C         20.4030    2.3190    5.2570 C.2    16  ASP16       0.2622
     13  O         19.3800    2.6640    4.6780 O.2    16  ASP16      -0.2715
     14  CB        20.3630    3.7910    7.2800 C.3    16  ASP16       0.1450
     15  CG        20.0600    2.6820    8.2600 C.2    16  ASP16       0.3671
     16  OD1       20.2900    2.8980    9.4610 O.co2  16  ASP16      -0.2456
     17  OD2       19.6070    1.6000    7.8380 O.co2  16  ASP16      -0.2456
     18  N         20.8740    1.0740    5.2320 N.am   17  ASN17      -0.1972
     19  CA        20.4120    0.0590    4.2800 C.3    17  ASN17       0.1688
     20  C         18.9340   -0.2930    4.3660 C.2    17  ASN17       0.2292
     21  O         18.4010   -0.9840    3.5050 O.2    17  ASN17      -0.2864
     22  CB        21.2020   -1.2420    4.4680 C.3    17  ASN17       0.1181
     23  CG        22.6590   -1.1050    4.1260 C.2    17  ASN17       0.2629
     24  OD1       23.0640   -0.1850    3.4080 O.2    17  ASN17      -0.2716
     25  ND2       23.4640   -2.0450    4.6170 N.am   17  ASN17      -0.0877
     26  N         26.5980   -5.3900   15.9680 N.3   118  PRO118     -0.2102
     27  CA        26.5540   -3.9310   15.7960 C.3   118  PRO118      0.1504
     28  C         25.5570   -3.4570   14.7180 C.2   118  PRO118      0.2575
     29  O         24.8720   -2.4580   14.9230 O.2   118  PRO118     -0.2718
     30  CB        27.9850   -3.5830   15.3850 C.3   118  PRO118      0.0282
     31  CG        28.8140   -4.7280   15.8310 C.3   118  PRO118      0.0208
     32  CD        27.9480   -5.9360   15.7430 C.3   118  PRO118      0.0893
     33  N         25.4720   -4.1570   13.5910 N.am  119  TYR119     -0.1977
     34  CA        24.5510   -3.7730   12.5320 C.3   119  TYR119      0.1639
     35  C         23.0840   -3.9140   12.9360 C.2   119  TYR119      0.2290
     36  O         22.2900   -3.0030   12.7310 O.2   119  TYR119     -0.2864
     37  CB        24.8410   -4.5860   11.2710 C.3   119  TYR119      0.0560
     38  CG        23.8900   -4.3690   10.1140 C.ar  119  TYR119     -0.0198
     39  CD1       23.8920   -3.1880    9.3960 C.ar  119  TYR119     -0.0009
     40  CD2       23.0130   -5.3690    9.7140 C.ar  119  TYR119     -0.0009
     41  CE1       23.0240   -2.9940    8.3090 C.ar  119  TYR119      0.0417
     42  CE2       22.1430   -5.1850    8.6420 C.ar  119  TYR119      0.0417
     43  CZ        22.1520   -3.9970    7.9380 C.ar  119  TYR119      0.1957
     44  OH        21.2880   -3.8160    6.8640 O.3   119  TYR119     -0.2866
     45  N         19.8890   -2.4140   17.7730 N.3   122  GLU122     -0.1245
     46  CA        19.3540   -1.0670   17.5970 C.3   122  GLU122      0.1567
     47  C         18.0940   -1.0920   16.7380 C.2   122  GLU122      0.2260
     48  O         16.9950   -0.8190   17.2220 O.2   122  GLU122     -0.2867
     49  CB        20.3880   -0.1100   16.9490 C.3   122  GLU122      0.0388
     50  CG        20.3590   -0.0670   15.3960 C.3   122  GLU122      0.1160
     51  CD        21.6660    0.3650   14.7440 C.2   122  GLU122      0.3649
     52  OE1       22.3780    1.2050   15.3300 O.co2 122  GLU122     -0.2457
     53  OE2       21.9780   -0.1340   13.6370 O.co2 122  GLU122     -0.2457
     54  N         15.7330   -4.0170   12.0990 N.3   125  ARG125     -0.1245
     55  CA        15.7850   -3.9850   10.6440 C.3   125  ARG125      0.1563
     56  C         14.8900   -5.0540   10.0330 C.2   125  ARG125      0.2260
     57  O         14.8610   -6.1800   10.4990 O.2   125  ARG125     -0.2867
     58  CB        17.2220   -4.1820   10.1730 C.3   125  ARG125      0.0307
     59  CG        18.1990   -3.1810   10.7650 C.3   125  ARG125      0.0489
     60  CD        19.5930   -3.4590   10.2850 C.3   125  ARG125      0.2205
     61  NE        20.5370   -2.4360   10.7230 N.pl3 125  ARG125     -0.0865
     62  CZ        20.7270   -1.2700   10.1080 C.cat 125  ARG125      0.5346
     63  NH1       20.0240   -0.9480    9.0310 N.pl3 125  ARG125      0.1354
     64  NH2       21.6140   -0.4090   10.5840 N.pl3 125  ARG125      0.1354
     65  N         25.3280   -4.7940    3.2950 N.3   134  LEU134     -0.1231
     66  CA        26.7120   -4.4300    3.5000 C.3   134  LEU134      0.1693
     67  C         26.8920   -3.8000    4.8590 C.2   134  LEU134      0.2592
     68  O         26.2850   -2.7660    5.1470 O.2   134  LEU134     -0.2718
     69  CB        27.0980   -3.4100    2.4390 C.3   134  LEU134      0.0284
     70  CG        28.5180   -2.8880    2.4540 C.3   134  LEU134      0.0019
     71  CD1       29.3670   -3.8470    1.6710 C.3   134  LEU134      0.0001
     72  CD2       28.5280   -1.5230    1.8240 C.3   134  LEU134      0.0001
     73  N         27.7280   -4.4140    5.6920 N.am  135  VAL135     -0.1966
     74  CA        28.0380   -3.8550    7.0080 C.3   135  VAL135      0.1727
     75  C         29.3960   -3.1810    7.0020 C.2   135  VAL135      0.2616
     76  O         30.4160   -3.8170    6.7310 O.2   135  VAL135     -0.2715
     77  CB        28.0010   -4.9130    8.1500 C.3   135  VAL135      0.0290
     78  CG1       28.0530   -4.2250    9.5070 C.3   135  VAL135      0.0023
     79  CG2       26.7670   -5.8050    8.0480 C.3   135  VAL135      0.0023
     80  N         29.3880   -1.8810    7.2840 N.am  136  ARG136     -0.1977
     81  CA        30.6060   -1.0900    7.4400 C.3   136  ARG136      0.1597
     82  C         31.2630   -1.4820    8.7570 C.2   136  ARG136      0.2287
     83  O         30.9160   -0.9590    9.8120 O.2   136  ARG136     -0.2864
     84  CB        30.3030    0.4090    7.4070 C.3   136  ARG136      0.0334
     85  CG        29.8430    0.9190    6.0500 C.3   136  ARG136      0.0492
     86  CD        29.5870    2.4170    6.0040 C.3   136  ARG136      0.2205
     87  NE        29.0820    2.8460    4.7030 N.pl3 136  ARG136     -0.0865
     88  CZ        28.6710    4.0760    4.4330 C.cat 136  ARG136      0.5346
     89  NH1       28.7070    5.0120    5.3730 N.pl3 136  ARG136      0.1354
     90  NH2       28.2260    4.3790    3.2200 N.pl3 136  ARG136      0.1354
@<TRIPOS>BOND
     1     9     7   ar
     2     7     8   ar
     3     7     6    1
     4    71    70    1
     5    72    70    1
     6     6     5    1
     7    69    70    1
     8    69    66    1
     9    90    88    1
    10    65    66    1
    11     5     2    1
    12    24    23    2
    13     2     1    1
    14     2     3    1
    15    66    67    1
    16    21    20    2
    17     4     3    2
    18    23    22    1
    19    23    25   am
    20     3    10   am
    21    19    20    1
    22    19    22    1
    23    19    18    1
    24    88    87    2
    25    88    89    1
    26    13    12    2
    27    87    86    1
    28    67    68    2
    29    67    73   am
    30    18    12   am
    31    12    11    1
    32    10    11    1
    33    73    74    1
    34    86    85    1
    35    85    84    1
    36    11    14    1
    37    76    75    2
    38    44    43    1
    39    75    74    1
    40    75    80   am
    41    74    77    1
    42    14    15    1
    43    80    81    1
    44    84    81    1
    45    81    82    1
    46    17    15   ar
    47    43    41   ar
    48    43    42   ar
    49    79    77    1
    50    77    78    1
    51    15    16   ar
    52    41    39   ar
    53    42    40   ar
    54    82    83    2
    55    63    62    1
    56    39    38   ar
    57    40    38   ar
    58    56    57    2
    59    56    55    1
    60    62    64    1
    61    62    61    2
    62    38    37    1
    63    58    55    1
    64    58    59    1
    65    60    61    1
    66    60    59    1
    67    55    54    1
    68    37    34    1
    69    34    35    1
    70    34    33    1
    71    36    35    2
    72    33    28   am
    73    53    51   ar
    74    28    29    2
    75    28    27    1
    76    51    52   ar
    77    51    50    1
    78    30    27    1
    79    30    31    1
    80    50    49    1
    81    32    31    1
    82    32    26    1
    83    27    26    1
    84    47    48    2
    85    47    46    1
    86    49    46    1
    87    46    45    1
