@<TRIPOS>MOLECULE
tmp/3qqgA00.pdb
 144 138 0 0 0
SMALL
GASTEIGER

@<TRIPOS>ATOM
      1  N        -94.1030  -13.2370  -43.2140 N.3    10  ILE10      -0.1231
      2  CA       -92.9740  -12.4000  -43.5850 C.3    10  ILE10       0.1692
      3  C        -92.8340  -11.1000  -42.8000 C.2    10  ILE10       0.2592
      4  O        -91.7300  -10.7270  -42.4020 O.2    10  ILE10      -0.2718
      5  CB       -93.0450  -12.0740  -45.1050 C.3    10  ILE10       0.0266
      6  CG1      -92.0680  -12.9580  -45.8720 C.3    10  ILE10       0.0019
      7  CG2      -92.7890  -10.6010  -45.3530 C.3    10  ILE10       0.0020
      8  CD1      -92.0440  -12.6750  -47.3670 C.3    10  ILE10       0.0001
      9  N        -93.9480  -10.4040  -42.6000 N.am   11  GLY11      -0.1957
     10  CA       -93.9130   -9.1420  -41.8890 C.3    11  GLY11       0.1869
     11  C        -95.2810   -8.5010  -41.7630 C.2    11  GLY11       0.2309
     12  O        -96.2750   -9.0430  -42.2580 O.2    11  GLY11      -0.2863
     13  N        -97.8500   -9.7520  -44.5650 N.3    18  VAL18      -0.1245
     14  CA       -97.3440  -10.3710  -45.7860 C.3    18  VAL18       0.1561
     15  C        -96.8100  -11.7660  -45.4690 C.2    18  VAL18       0.2260
     16  O        -96.2070  -11.9870  -44.4180 O.2    18  VAL18      -0.2867
     17  CB       -96.2260   -9.5280  -46.4410 C.3    18  VAL18       0.0252
     18  CG1      -95.8580  -10.1360  -47.8030 C.3    18  VAL18       0.0019
     19  CG2      -96.6960   -8.0800  -46.6260 C.3    18  VAL18       0.0019
     20  N        -95.2200  -13.9100  -52.6970 N.3    31  ALA31      -0.1245
     21  CA       -95.4620  -13.1660  -51.4710 C.3    31  ALA31       0.1562
     22  C        -96.9540  -12.9190  -51.4770 C.2    31  ALA31       0.2260
     23  O        -97.5140  -12.4780  -52.4800 O.2    31  ALA31      -0.2867
     24  CB       -94.7190  -11.8670  -51.4860 C.3    31  ALA31       0.0290
     25  N       -100.0230  -10.9380  -49.5870 N.3    33  LYS33      -0.1245
     26  CA      -100.4120   -9.9090  -48.6350 C.3    33  LYS33       0.1561
     27  C       -101.9110   -9.9920  -48.3870 C.2    33  LYS33       0.2260
     28  O       -102.7040  -10.0400  -49.3310 O.2    33  LYS33      -0.2867
     29  CB      -100.0610   -8.5170  -49.1590 C.3    33  LYS33       0.0271
     30  CG      -100.3040   -7.4020  -48.1270 C.3    33  LYS33       0.0035
     31  CD      -100.0560   -6.0260  -48.7290 C.3    33  LYS33       0.0206
     32  CE      -100.2420   -4.8880  -47.7040 C.3    33  LYS33       0.1093
     33  NZ       -99.1790   -4.8350  -46.6660 N.3    33  LYS33      -0.1314
     34  N        -92.2510   -4.2700  -57.8500 N.3    60  VAL60      -0.1245
     35  CA       -92.5330   -5.6820  -57.5900 C.3    60  VAL60       0.1561
     36  C        -93.8230   -6.0280  -58.3440 C.2    60  VAL60       0.2260
     37  O        -94.8370   -5.3490  -58.2100 O.2    60  VAL60      -0.2867
     38  CB       -92.7220   -5.9530  -56.0780 C.3    60  VAL60       0.0252
     39  CG1      -93.1940   -7.3900  -55.8550 C.3    60  VAL60       0.0019
     40  CG2      -91.3930   -5.7380  -55.3440 C.3    60  VAL60       0.0019
     41  N        -97.9440  -11.2840  -54.9580 N.3    76  PHE76      -0.1227
     42  CA       -96.7950  -10.6070  -55.5620 C.3    76  PHE76       0.1736
     43  C        -95.6390  -11.5490  -55.8520 C.2    76  PHE76       0.2595
     44  O        -95.4900  -12.5750  -55.1960 O.2    76  PHE76      -0.2718
     45  CB       -96.2110   -9.5740  -54.6030 C.3    76  PHE76       0.0547
     46  CG       -97.1150   -8.4330  -54.2820 C.ar   76  PHE76      -0.0202
     47  CD1      -97.2030   -7.3440  -55.1360 C.ar   76  PHE76      -0.0042
     48  CD2      -97.7970   -8.4020  -53.0700 C.ar   76  PHE76      -0.0042
     49  CE1      -97.9570   -6.2140  -54.7810 C.ar   76  PHE76      -0.0003
     50  CE2      -98.5520   -7.2830  -52.7050 C.ar   76  PHE76      -0.0003
     51  CZ       -98.6310   -6.1930  -53.5540 C.ar   76  PHE76      -0.0000
     52  N        -94.8080  -11.1690  -56.8200 N.am   77  GLU77      -0.1965
     53  CA       -93.6020  -11.9470  -57.0990 C.3    77  GLU77       0.1733
     54  C        -92.8170  -11.7730  -55.7870 C.2    77  GLU77       0.2616
     55  O        -92.9400  -10.7400  -55.1020 O.2    77  GLU77      -0.2715
     56  CB       -92.7980  -11.3410  -58.2510 C.3    77  GLU77       0.0429
     57  CG       -92.2010   -9.9970  -57.9360 C.3    77  GLU77       0.1163
     58  CD       -91.2300   -9.5030  -58.9960 C.2    77  GLU77       0.3649
     59  OE1      -90.2000  -10.1630  -59.2580 O.co2  77  GLU77      -0.2457
     60  OE2      -91.4890   -8.4430  -59.5690 O.co2  77  GLU77      -0.2457
     61  N        -92.0150  -12.7680  -55.4420 N.am   78  PHE78      -0.1960
     62  CA       -91.2520  -12.7430  -54.2040 C.3    78  PHE78       0.1771
     63  C        -89.7750  -12.3460  -54.3540 C.2    78  PHE78       0.2619
     64  O        -89.1060  -12.7440  -55.3180 O.2    78  PHE78      -0.2715
     65  CB       -91.3640  -14.1310  -53.5510 C.3    78  PHE78       0.0574
     66  CG       -90.5330  -14.3060  -52.3080 C.ar   78  PHE78      -0.0200
     67  CD1      -89.2850  -14.9110  -52.3710 C.ar   78  PHE78      -0.0042
     68  CD2      -91.0030  -13.8660  -51.0720 C.ar   78  PHE78      -0.0042
     69  CE1      -88.5100  -15.0770  -51.2220 C.ar   78  PHE78      -0.0003
     70  CE2      -90.2380  -14.0250  -49.9180 C.ar   78  PHE78      -0.0003
     71  CZ       -88.9920  -14.6300  -49.9940 C.ar   78  PHE78      -0.0000
     72  N        -89.3080  -11.5160  -53.4190 N.am   79  LEU79      -0.1963
     73  CA       -87.9020  -11.1090  -53.3440 C.3    79  LEU79       0.1728
     74  C        -87.4720  -11.5200  -51.9400 C.2    79  LEU79       0.2616
     75  O        -88.2720  -11.4620  -51.0020 O.2    79  LEU79      -0.2715
     76  CB       -87.7050   -9.6000  -53.5930 C.3    79  LEU79       0.0311
     77  CG       -87.5020   -9.3070  -55.0950 C.3    79  LEU79       0.0022
     78  CD1      -88.8600   -9.1580  -55.7790 C.3    79  LEU79       0.0001
     79  CD2      -86.6870   -8.0370  -55.2940 C.3    79  LEU79       0.0001
     80  N        -86.2170  -11.9370  -51.7930 N.am   80  HIS80      -0.1959
     81  CA       -85.7250  -12.4420  -50.5160 C.3    80  HIS80       0.1787
     82  C        -85.4220  -11.5100  -49.3660 C.2    80  HIS80       0.2620
     83  O        -85.4410  -11.9510  -48.2100 O.2    80  HIS80      -0.2715
     84  CB       -84.4960  -13.3360  -50.7440 C.3    80  HIS80       0.0785
     85  CG       -84.8150  -14.6650  -51.3620 C.ar   80  HIS80       0.0821
     86  ND1      -85.2230  -14.8000  -52.6710 N.ar   80  HIS80      -0.2267
     87  CD2      -84.8090  -15.9170  -50.8400 C.ar   80  HIS80       0.1154
     88  CE1      -85.4600  -16.0750  -52.9280 C.ar   80  HIS80       0.1986
     89  NE2      -85.2170  -16.7740  -51.8330 N.ar   80  HIS80      -0.2212
     90  N        -85.1570  -10.2310  -49.6280 N.am   81  GLN81      -0.1963
     91  CA       -84.8390   -9.3580  -48.5020 C.3    81  GLN81       0.1733
     92  C        -85.3340   -7.9290  -48.6890 C.2    81  GLN81       0.2616
     93  O        -85.3510   -7.4180  -49.8030 O.2    81  GLN81      -0.2715
     94  CB       -83.3240   -9.3800  -48.2690 C.3    81  GLN81       0.0408
     95  CG       -82.8300   -8.6330  -47.0210 C.3    81  GLN81       0.0908
     96  CD       -81.4560   -9.1020  -46.5850 C.2    81  GLN81       0.2608
     97  OE1      -81.2650  -10.2750  -46.2500 O.2    81  GLN81      -0.2717
     98  NE2      -80.4890   -8.1960  -46.5880 N.am   81  GLN81      -0.0878
     99  N        -85.7510   -7.3010  -47.5900 N.am   82  ASP82      -0.1971
    100  CA       -86.2350   -5.9220  -47.6400 C.3    82  ASP82       0.1709
    101  C        -85.0810   -5.0020  -47.2470 C.2    82  ASP82       0.2293
    102  O        -84.1340   -5.4310  -46.6070 O.2    82  ASP82      -0.2864
    103  CB       -87.4590   -5.7320  -46.7280 C.3    82  ASP82       0.1436
    104  CG       -87.1280   -5.8470  -45.2440 C.2    82  ASP82       0.3671
    105  OD1      -86.4430   -4.9580  -44.7040 O.co2  82  ASP82      -0.2456
    106  OD2      -87.5480   -6.8340  -44.6160 O.co2  82  ASP82      -0.2456
    107  N        -89.0280   -0.9630  -45.3680 N.3   127  GLN127     -0.1231
    108  CA       -89.6920   -2.2620  -45.3560 C.3   127  GLN127      0.1698
    109  C        -90.3880   -2.6470  -46.6520 C.2   127  GLN127      0.2592
    110  O        -90.5630   -3.8460  -46.9110 O.2   127  GLN127     -0.2718
    111  CB       -90.7070   -2.3410  -44.2020 C.3   127  GLN127      0.0381
    112  CG       -90.1180   -2.1950  -42.7920 C.3   127  GLN127      0.0905
    113  CD       -89.4180   -0.8630  -42.5500 C.2   127  GLN127      0.2608
    114  OE1      -89.8070    0.1730  -43.0880 O.2   127  GLN127     -0.2717
    115  NE2      -88.3860   -0.8870  -41.7140 N.am  127  GLN127     -0.0878
    116  N        -90.8260   -1.6830  -47.4670 N.am  128  ASN128     -0.1974
    117  CA       -91.4710   -2.1040  -48.7020 C.3   128  ASN128      0.1688
    118  C        -90.6050   -1.9490  -49.9440 C.2   128  ASN128      0.2292
    119  O        -91.1070   -1.9120  -51.0660 O.2   128  ASN128     -0.2864
    120  CB       -92.8400   -1.4430  -48.9040 C.3   128  ASN128      0.1181
    121  CG       -92.8160    0.0270  -48.6810 C.2   128  ASN128      0.2629
    122  OD1      -91.9670    0.7270  -49.2090 O.2   128  ASN128     -0.2716
    123  ND2      -93.7680    0.5180  -47.8980 N.am  128  ASN128     -0.0877
    124  N        -87.6720   -3.9120  -51.8300 N.3   130  LEU130     -0.1245
    125  CA       -87.0970   -5.2590  -51.8180 C.3   130  LEU130      0.1561
    126  C        -85.9050   -5.4290  -52.7520 C.2   130  LEU130      0.2260
    127  O        -85.8900   -4.8690  -53.8380 O.2   130  LEU130     -0.2867
    128  CB       -88.1980   -6.2570  -52.1700 C.3   130  LEU130      0.0270
    129  CG       -89.3880   -5.9490  -51.2550 C.3   130  LEU130      0.0019
    130  CD1      -90.6570   -6.4870  -51.8260 C.3   130  LEU130      0.0001
    131  CD2      -89.0980   -6.5030  -49.8580 C.3   130  LEU130      0.0001
    132  N        -92.6200   -2.0810  -53.6010 N.3   140  ALA140     -0.1231
    133  CA       -93.7960   -2.9220  -53.4350 C.3   140  ALA140      0.1694
    134  C        -94.9050   -2.1500  -52.7140 C.2   140  ALA140      0.2592
    135  O        -94.6270   -1.2350  -51.9390 O.2   140  ALA140     -0.2718
    136  CB       -93.4260   -4.1590  -52.6290 C.3   140  ALA140      0.0304
    137  N        -96.1520   -2.5310  -52.9860 N.am  141  ASP141     -0.1974
    138  CA       -97.3350   -1.9410  -52.3550 C.3   141  ASP141      0.1709
    139  C        -97.7670   -0.5560  -52.7960 C.2   141  ASP141      0.2293
    140  O        -98.1820    0.2570  -51.9820 O.2   141  ASP141     -0.2864
    141  CB       -97.1840   -1.9740  -50.8290 C.3   141  ASP141      0.1436
    142  CG       -97.3590   -3.3710  -50.2710 C.2   141  ASP141      0.3671
    143  OD1      -97.1010   -3.6010  -49.0640 O.co2 141  ASP141     -0.2456
    144  OD2      -97.7610   -4.2520  -51.0570 O.co2 141  ASP141     -0.2456
@<TRIPOS>BOND
     1    60    58   ar
     2    59    58   ar
     3    58    57    1
     4    36    37    2
     5    36    35    1
     6    56    57    1
     7    56    53    1
     8    34    35    1
     9    35    38    1
    10    53    52    1
    11    53    54    1
    12    52    43   am
    13    38    39    1
    14    38    40    1
    15    43    42    1
    16    43    44    2
    17    54    61   am
    18    54    55    2
    19    78    77    1
    20    42    41    1
    21    42    45    1
    22    61    62    1
    23    64    63    2
    24    79    77    1
    25    47    49   ar
    26    47    46   ar
    27    77    76    1
    28    49    51   ar
    29    45    46    1
    30    63    62    1
    31    63    72   am
    32    46    48   ar
    33    62    65    1
    34   127   126    2
    35   132   133    1
    36    76    73    1
    37    51    50   ar
    38    65    66    1
    39   133   134    1
    40   133   136    1
    41    72    73    1
    42    73    74    1
    43    48    50   ar
    44   137   134   am
    45   137   138    1
    46    88    86   ar
    47    88    89   ar
    48   139   138    1
    49   139   140    2
    50   126   125    1
    51   134   135    2
    52    20    21    1
    53    86    85   ar
    54    23    22    2
    55    67    66   ar
    56    67    69   ar
    57   138   141    1
    58    66    68   ar
    59   128   125    1
    60   128   129    1
    61    74    80   am
    62    74    75    2
    63    89    87   ar
    64   124   125    1
    65   130   129    1
    66    80    81    1
    67    24    21    1
    68    22    21    1
    69    85    87   ar
    70    85    84    1
    71   129   131    1
    72    69    71   ar
    73    68    70   ar
    74   119   118    2
    75   144   142   ar
    76   141   142    1
    77    84    81    1
    78    81    82    1
    79   142   143   ar
    80    71    70   ar
    81   118   117    1
    82    93    92    2
    83    90    82   am
    84    90    91    1
    85    25    26    1
    86    82    83    2
    87    28    27    2
    88   122   121    2
    89    29    26    1
    90    29    30    1
    91   120   117    1
    92   120   121    1
    93    31    30    1
    94    31    32    1
    95   117   116    1
    96    92    91    1
    97    92    99   am
    98   121   123   am
    99    26    27    1
   100    91    94    1
   101    94    95    1
   102    18    17    1
   103    32    33    1
   104   100    99    1
   105   100   101    1
   106   100   103    1
   107   116   109   am
   108     8     6    1
   109   101   102    2
   110    95    96    1
   111   110   109    2
   112   103   104    1
   113   109   108    1
   114    19    17    1
   115    98    96   am
   116    96    97    2
   117    17    14    1
   118     6     5    1
   119    14    15    1
   120    14    13    1
   121    15    16    2
   122   107   108    1
   123   108   111    1
   124     7     5    1
   125   104   105   ar
   126   104   106   ar
   127     5     2    1
   128   111   112    1
   129     2     1    1
   130     2     3    1
   131   114   113    2
   132     3     9   am
   133     3     4    2
   134   112   113    1
   135     9    10    1
   136   113   115   am
   137    12    11    2
   138    10    11    1
