@<TRIPOS>MOLECULE
tmp/3qqhA00.pdb
 166 159 0 0 0
SMALL
GASTEIGER

@<TRIPOS>ATOM
      1  N         66.5740   83.8840  -42.1640 N.3    10  ILE10      -0.1231
      2  CA        65.2810   83.2320  -42.2450 C.3    10  ILE10       0.1692
      3  C         65.2560   81.7650  -41.8410 C.2    10  ILE10       0.2593
      4  O         64.2020   81.1360  -41.8640 O.2    10  ILE10      -0.2718
      5  CB        64.6850   83.3920  -43.6610 C.3    10  ILE10       0.0266
      6  CG1       65.6300   82.7960  -44.7070 C.3    10  ILE10       0.0019
      7  CG2       64.4640   84.8710  -43.9580 C.3    10  ILE10       0.0020
      8  CD1       65.1170   82.9200  -46.1400 C.3    10  ILE10       0.0001
      9  N         66.4080   81.2180  -41.4640 N.am   11  GLY11      -0.1942
     10  CA        66.4390   79.8230  -41.0580 C.3    11  GLY11       0.2014
     11  C         67.8340   79.2380  -41.0330 C.2    11  GLY11       0.2639
     12  O         68.7820   79.8610  -41.5100 O.2    11  GLY11      -0.2714
     13  N         67.9680   78.0410  -40.4710 N.am   12  GLU12      -0.1963
     14  CA        69.2670   77.3890  -40.4070 C.3    12  GLU12       0.1733
     15  C         69.2150   76.0030  -41.0230 C.2    12  GLU12       0.2616
     16  O         68.5260   75.1130  -40.5190 O.2    12  GLU12      -0.2715
     17  CB        69.7430   77.2700  -38.9600 C.3    12  GLU12       0.0429
     18  CG        70.9990   76.4210  -38.8050 C.3    12  GLU12       0.1163
     19  CD        72.2030   77.0120  -39.5140 C.2    12  GLU12       0.3649
     20  OE1       72.5100   78.2010  -39.2740 O.co2  12  GLU12      -0.2457
     21  OE2       72.8470   76.2880  -40.3040 O.co2  12  GLU12      -0.2457
     22  N         69.9440   75.8290  -42.1170 N.am   13  GLY13      -0.1955
     23  CA        69.9830   74.5400  -42.7730 C.3    13  GLY13       0.1869
     24  C         71.1400   73.7070  -42.2450 C.2    13  GLY13       0.2309
     25  O         72.0200   74.2120  -41.5410 O.2    13  GLY13      -0.2863
     26  N         70.4620   80.5260  -43.7380 N.3    18  VAL18      -0.1245
     27  CA        69.9400   81.1110  -44.9560 C.3    18  VAL18       0.1561
     28  C         69.4130   82.5010  -44.6390 C.2    18  VAL18       0.2260
     29  O         68.7270   82.6890  -43.6440 O.2    18  VAL18      -0.2867
     30  CB        68.8010   80.2620  -45.5520 C.3    18  VAL18       0.0252
     31  CG1       68.2540   80.9410  -46.8030 C.3    18  VAL18       0.0019
     32  CG2       69.3200   78.8650  -45.8940 C.3    18  VAL18       0.0019
     33  N         67.8490   84.5090  -51.7690 N.3    31  ALA31      -0.1245
     34  CA        68.1000   83.7620  -50.5490 C.3    31  ALA31       0.1562
     35  C         69.5960   83.5680  -50.5720 C.2    31  ALA31       0.2260
     36  O         70.1530   83.0850  -51.5520 O.2    31  ALA31      -0.2867
     37  CB        67.4090   82.4360  -50.5770 C.3    31  ALA31       0.0290
     38  N         72.7040   81.7710  -48.7150 N.3    33  LYS33      -0.1245
     39  CA        73.0580   80.7310  -47.7600 C.3    33  LYS33       0.1561
     40  C         74.5620   80.7560  -47.5300 C.2    33  LYS33       0.2260
     41  O         75.3440   80.6140  -48.4730 O.2    33  LYS33      -0.2867
     42  CB        72.6440   79.3540  -48.2830 C.3    33  LYS33       0.0271
     43  CG        72.8690   78.2200  -47.2840 C.3    33  LYS33       0.0035
     44  CD        72.5990   76.8670  -47.9220 C.3    33  LYS33       0.0206
     45  CE        72.7810   75.7100  -46.9210 C.3    33  LYS33       0.1093
     46  NZ        71.7260   75.6560  -45.8750 N.3    33  LYS33      -0.1314
     47  N         64.8770   75.0080  -56.8750 N.3    60  VAL60      -0.1245
     48  CA        65.1800   76.4030  -56.5600 C.3    60  VAL60       0.1561
     49  C         66.4700   76.7390  -57.3170 C.2    60  VAL60       0.2260
     50  O         67.4880   76.0490  -57.1770 O.2    60  VAL60      -0.2867
     51  CB        65.3840   76.6120  -55.0370 C.3    60  VAL60       0.0252
     52  CG1       65.9220   78.0280  -54.7590 C.3    60  VAL60       0.0019
     53  CG2       64.0430   76.4230  -54.2990 C.3    60  VAL60       0.0019
     54  N         70.5330   81.9630  -54.0070 N.3    76  PHE76      -0.1227
     55  CA        69.4010   81.2390  -54.5670 C.3    76  PHE76       0.1736
     56  C         68.2500   82.1630  -54.8760 C.2    76  PHE76       0.2595
     57  O         68.0920   83.2000  -54.2280 O.2    76  PHE76      -0.2718
     58  CB        68.8560   80.2540  -53.5380 C.3    76  PHE76       0.0547
     59  CG        69.7030   79.0460  -53.3080 C.ar   76  PHE76      -0.0202
     60  CD1       69.6320   77.9640  -54.1760 C.ar   76  PHE76      -0.0042
     61  CD2       70.4960   78.9510  -52.1690 C.ar   76  PHE76      -0.0042
     62  CE1       70.3320   76.7870  -53.9130 C.ar   76  PHE76      -0.0003
     63  CE2       71.2070   77.7780  -51.8900 C.ar   76  PHE76      -0.0003
     64  CZ        71.1220   76.6950  -52.7640 C.ar   76  PHE76      -0.0000
     65  N         67.4240   81.7620  -55.8390 N.am   77  GLU77      -0.1965
     66  CA        66.2370   82.5450  -56.1290 C.3    77  GLU77       0.1733
     67  C         65.4750   82.4210  -54.8180 C.2    77  GLU77       0.2616
     68  O         65.5830   81.4050  -54.1080 O.2    77  GLU77      -0.2715
     69  CB        65.4150   81.9270  -57.2560 C.3    77  GLU77       0.0429
     70  CG        64.8300   80.5880  -56.9210 C.3    77  GLU77       0.1163
     71  CD        63.8260   80.1190  -57.9520 C.2    77  GLU77       0.3649
     72  OE1       62.7560   80.7540  -58.0920 O.co2  77  GLU77      -0.2457
     73  OE2       64.1050   79.1150  -58.6230 O.co2  77  GLU77      -0.2457
     74  N         64.7050   83.4430  -54.4950 N.am   78  PHE78      -0.1960
     75  CA        63.9650   83.4400  -53.2560 C.3    78  PHE78       0.1771
     76  C         62.5050   83.0620  -53.4150 C.2    78  PHE78       0.2619
     77  O         61.8370   83.5580  -54.3170 O.2    78  PHE78      -0.2715
     78  CB        64.0660   84.8220  -52.6220 C.3    78  PHE78       0.0574
     79  CG        63.2880   84.9660  -51.3550 C.ar   78  PHE78      -0.0200
     80  CD1       61.9900   85.4550  -51.3780 C.ar   78  PHE78      -0.0042
     81  CD2       63.8500   84.5970  -50.1320 C.ar   78  PHE78      -0.0042
     82  CE1       61.2560   85.5800  -50.2020 C.ar   78  PHE78      -0.0003
     83  CE2       63.1260   84.7170  -48.9530 C.ar   78  PHE78      -0.0003
     84  CZ        61.8230   85.2100  -48.9920 C.ar   78  PHE78      -0.0000
     85  N         62.0320   82.1590  -52.5490 N.am   79  LEU79      -0.1963
     86  CA        60.6180   81.7730  -52.5200 C.3    79  LEU79       0.1728
     87  C         60.1540   82.1990  -51.1340 C.2    79  LEU79       0.2616
     88  O         60.9340   82.1680  -50.1810 O.2    79  LEU79      -0.2715
     89  CB        60.4130   80.2660  -52.7490 C.3    79  LEU79       0.0311
     90  CG        60.3690   79.8810  -54.2400 C.3    79  LEU79       0.0022
     91  CD1       61.7750   79.5940  -54.7160 C.3    79  LEU79       0.0001
     92  CD2       59.4980   78.6480  -54.4630 C.3    79  LEU79       0.0001
     93  N         58.8860   82.5840  -51.0070 N.am   80  HIS80      -0.1959
     94  CA        58.4080   83.1070  -49.7350 C.3    80  HIS80       0.1787
     95  C         58.1300   82.2200  -48.5740 C.2    80  HIS80       0.2620
     96  O         58.1620   82.6890  -47.4340 O.2    80  HIS80      -0.2715
     97  CB        57.1830   83.9860  -49.9440 C.3    80  HIS80       0.0785
     98  CG        57.5100   85.3370  -50.4900 C.ar   80  HIS80       0.0821
     99  ND1       57.8730   85.5330  -51.8040 N.ar   80  HIS80      -0.2267
    100  CD2       57.5690   86.5530  -49.8960 C.ar   80  HIS80       0.1154
    101  CE1       58.1450   86.8120  -51.9960 C.ar   80  HIS80       0.1986
    102  NE2       57.9700   87.4510  -50.8550 N.ar   80  HIS80      -0.2212
    103  N         57.8650   80.9460  -48.8110 N.am   81  GLN81      -0.1963
    104  CA        57.5860   80.1190  -47.6560 C.3    81  GLN81       0.1733
    105  C         58.0730   78.7010  -47.8480 C.2    81  GLN81       0.2616
    106  O         58.0210   78.1770  -48.9510 O.2    81  GLN81      -0.2715
    107  CB        56.0920   80.1460  -47.3870 C.3    81  GLN81       0.0408
    108  CG        55.6640   79.5670  -46.0550 C.3    81  GLN81       0.0908
    109  CD        54.2500   79.9810  -45.7230 C.2    81  GLN81       0.2608
    110  OE1       53.9870   81.1420  -45.3810 O.2    81  GLN81      -0.2717
    111  NE2       53.3270   79.0520  -45.8430 N.am   81  GLN81      -0.0878
    112  N         58.5640   78.0990  -46.7680 N.am   82  ASP82      -0.1971
    113  CA        59.0350   76.7220  -46.8340 C.3    82  ASP82       0.1709
    114  C         57.8780   75.8170  -46.4210 C.2    82  ASP82       0.2293
    115  O         56.9260   76.2480  -45.7570 O.2    82  ASP82      -0.2864
    116  CB        60.2780   76.5160  -45.9520 C.3    82  ASP82       0.1436
    117  CG        59.9900   76.6270  -44.4720 C.2    82  ASP82       0.3671
    118  OD1       59.3620   75.7230  -43.9030 O.co2  82  ASP82      -0.2456
    119  OD2       60.4000   77.6300  -43.8670 O.co2  82  ASP82      -0.2456
    120  N         56.8570   75.5410  -42.6820 N.3    85  LYS85      -0.1245
    121  CA        56.0210   76.6530  -42.2240 C.3    85  LYS85       0.1561
    122  C         54.6060   76.5290  -42.7470 C.2    85  LYS85       0.2260
    123  O         53.6510   76.8000  -42.0280 O.2    85  LYS85      -0.2867
    124  CB        56.6110   77.9930  -42.6730 C.3    85  LYS85       0.0271
    125  CG        57.9810   78.2600  -42.0810 C.3    85  LYS85       0.0035
    126  CD        58.5150   79.6490  -42.4540 C.3    85  LYS85       0.0206
    127  CE        59.9150   79.8840  -41.8790 C.3    85  LYS85       0.1093
    128  NZ        60.6000   81.0400  -42.5400 N.3    85  LYS85      -0.1314
    129  N         61.8100   71.8880  -44.6840 N.3   127  GLN127     -0.1231
    130  CA        62.3970   73.2260  -44.7820 C.3   127  GLN127      0.1698
    131  C         63.1600   73.4480  -46.0780 C.2   127  GLN127      0.2592
    132  O         63.4070   74.5930  -46.4700 O.2   127  GLN127     -0.2718
    133  CB        63.3040   73.4880  -43.5850 C.3   127  GLN127      0.0381
    134  CG        62.5940   73.3320  -42.2540 C.3   127  GLN127      0.0905
    135  CD        62.7210   71.9260  -41.6870 C.2   127  GLN127      0.2608
    136  OE1       62.3620   70.9300  -42.3360 O.2   127  GLN127     -0.2717
    137  NE2       63.2310   71.8350  -40.4650 N.am  127  GLN127     -0.0878
    138  N         63.5260   72.3520  -46.7420 N.am  128  ASN128     -0.1974
    139  CA        64.2510   72.3820  -48.0170 C.3   128  ASN128      0.1688
    140  C         63.3080   72.5760  -49.1910 C.2   128  ASN128      0.2292
    141  O         63.7580   72.7530  -50.3260 O.2   128  ASN128     -0.2864
    142  CB        64.9750   71.0500  -48.2470 C.3   128  ASN128      0.1181
    143  CG        66.3250   71.0220  -47.6260 C.2   128  ASN128      0.2629
    144  OD1       67.1820   71.8420  -47.9560 O.2   128  ASN128     -0.2716
    145  ND2       66.5410   70.0900  -46.7240 N.am  128  ASN128     -0.0877
    146  N         60.3880   74.7440  -50.8800 N.3   130  LEU130     -0.1245
    147  CA        59.8620   76.0970  -50.8960 C.3   130  LEU130      0.1561
    148  C         58.6780   76.2240  -51.8240 C.2   130  LEU130      0.2260
    149  O         58.6680   75.6490  -52.9010 O.2   130  LEU130     -0.2867
    150  CB        60.9800   77.0290  -51.3360 C.3   130  LEU130      0.0270
    151  CG        62.1520   76.6600  -50.4320 C.3   130  LEU130      0.0019
    152  CD1       63.4560   77.0850  -51.0110 C.3   130  LEU130      0.0001
    153  CD2       61.8840   77.2640  -49.0580 C.3   130  LEU130      0.0001
    154  N         65.3060   72.8710  -52.7290 N.3   140  ALA140     -0.1231
    155  CA        66.5050   73.6760  -52.6440 C.3   140  ALA140      0.1694
    156  C         67.6160   72.8800  -51.9530 C.2   140  ALA140      0.2592
    157  O         67.3460   71.9620  -51.1900 O.2   140  ALA140     -0.2718
    158  CB        66.2170   74.9370  -51.8530 C.3   140  ALA140      0.0304
    159  N         68.8590   73.2450  -52.2440 N.am  141  ASP141     -0.1974
    160  CA        70.0310   72.6440  -51.6340 C.3   141  ASP141      0.1709
    161  C         70.4240   71.2410  -52.0280 C.2   141  ASP141      0.2293
    162  O         70.8480   70.4560  -51.1860 O.2   141  ASP141     -0.2864
    163  CB        69.9250   72.7120  -50.1120 C.3   141  ASP141      0.1436
    164  CG        70.0940   74.1120  -49.5840 C.2   141  ASP141      0.3671
    165  OD1       70.8160   74.8980  -50.2200 O.co2 141  ASP141     -0.2456
    166  OD2       69.5190   74.4260  -48.5230 O.co2 141  ASP141     -0.2456
@<TRIPOS>BOND
     1    73    71   ar
     2    72    71   ar
     3    71    70    1
     4    49    50    2
     5    49    48    1
     6    69    70    1
     7    69    66    1
     8    47    48    1
     9    48    51    1
    10    66    65    1
    11    66    67    1
    12    65    56   am
    13    51    52    1
    14    51    53    1
    15    56    55    1
    16    56    57    2
    17    67    74   am
    18    67    68    2
    19    91    90    1
    20    55    54    1
    21    55    58    1
    22    74    75    1
    23    92    90    1
    24    77    76    2
    25    90    89    1
    26    60    62   ar
    27    60    59   ar
    28    62    64   ar
    29    58    59    1
    30    76    75    1
    31    76    85   am
    32    59    61   ar
    33    75    78    1
    34   149   148    2
    35    64    63   ar
    36    89    86    1
    37   154   155    1
    38   155   156    1
    39   155   158    1
    40    78    79    1
    41    85    86    1
    42    86    87    1
    43   159   156   am
    44   159   160    1
    45    61    63   ar
    46   161   160    1
    47   161   162    2
    48   101    99   ar
    49   101   102   ar
    50   156   157    2
    51   148   147    1
    52    99    98   ar
    53    33    34    1
    54   160   163    1
    55    36    35    2
    56    80    79   ar
    57    80    82   ar
    58    79    81   ar
    59   150   147    1
    60   150   151    1
    61    87    93   am
    62    87    88    2
    63   152   151    1
    64    93    94    1
    65   147   146    1
    66   102   100   ar
    67    37    34    1
    68    35    34    1
    69    98    97    1
    70    98   100   ar
    71   151   153    1
    72   141   140    2
    73   165   164   ar
    74    82    84   ar
    75    81    83   ar
    76   163   164    1
    77    97    94    1
    78    94    95    1
    79   164   166   ar
    80   140   139    1
    81    84    83   ar
    82   106   105    2
    83   103    95   am
    84   103   104    1
    85    38    39    1
    86    95    96    2
    87    41    40    2
    88    42    39    1
    89    42    43    1
    90   142   139    1
    91   142   143    1
    92   139   138    1
    93   144   143    2
    94    44    43    1
    95    44    45    1
    96   105   104    1
    97   105   112   am
    98    39    40    1
    99   104   107    1
   100   143   145   am
   101   107   108    1
   102    45    46    1
   103   113   112    1
   104   113   114    1
   105   113   116    1
   106    31    30    1
   107   138   131   am
   108   132   131    2
   109   114   115    2
   110     8     6    1
   111   131   130    1
   112   108   109    1
   113   116   117    1
   114    32    30    1
   115   111   109   am
   116   109   110    2
   117    30    27    1
   118    27    28    1
   119    27    26    1
   120   130   129    1
   121   130   133    1
   122     6     5    1
   123    28    29    2
   124   117   118   ar
   125   117   119   ar
   126     7     5    1
   127     5     2    1
   128   133   134    1
   129    23    24    1
   130    23    22    1
   131   122   121    1
   132   122   123    2
   133   120   121    1
   134   124   121    1
   135   124   125    1
   136   128   127    1
   137   126   125    1
   138   126   127    1
   139   136   135    2
   140   134   135    1
   141    24    25    2
   142     2     1    1
   143     2     3    1
   144    22    15   am
   145     4     3    2
   146     3     9   am
   147   135   137   am
   148    12    11    2
   149     9    10    1
   150    10    11    1
   151    11    13   am
   152    15    16    2
   153    15    14    1
   154    13    14    1
   155    14    17    1
   156    21    19   ar
   157    19    20   ar
   158    19    18    1
   159    17    18    1
