@<TRIPOS>MOLECULE
tmp/3qqiA00.pdb
 98 93 0 0 0
SMALL
GASTEIGER

@<TRIPOS>ATOM
      1  N         18.9130  -16.3510   -0.5130 N.3    46  TYR46      -0.1241
      2  CA        17.6330  -15.6880   -0.2980 C.3    46  TYR46       0.1605
      3  C         17.0720  -16.5420    0.8490 C.2    46  TYR46       0.2264
      4  O         17.0350  -17.7460    0.7260 O.2    46  TYR46      -0.2867
      5  CB        16.7470  -15.7460   -1.5440 C.3    46  TYR46       0.0534
      6  CG        15.5460  -14.8340   -1.3460 C.ar   46  TYR46      -0.0201
      7  CD1       15.5300  -13.5440   -1.8720 C.ar   46  TYR46      -0.0009
      8  CD2       14.4400  -15.2560   -0.6160 C.ar   46  TYR46      -0.0009
      9  CE1       14.4140  -12.7250   -1.7460 C.ar   46  TYR46       0.0417
     10  CE2       13.3450  -14.4160   -0.4120 C.ar   46  TYR46       0.0417
     11  CZ        13.3400  -13.1460   -0.9740 C.ar   46  TYR46       0.1957
     12  OH        12.2350  -12.3530   -0.8160 O.3    46  TYR46      -0.2866
     13  N          8.9160  -12.9750  -16.9080 N.3    81  THR81      -0.1218
     14  CA        10.2630  -12.4670  -16.7250 C.3    81  THR81       0.1862
     15  C         11.0160  -13.5390  -15.9450 C.2    81  THR81       0.2287
     16  O         10.4760  -14.1330  -15.0210 O.2    81  THR81      -0.2866
     17  CB        10.2390  -11.1050  -16.0260 C.3    81  THR81       0.1770
     18  OG1        9.5030  -10.1900  -16.8380 O.3    81  THR81      -0.2211
     19  CG2       11.6450  -10.5360  -15.7760 C.3    81  THR81       0.0375
     20  N         14.6580  -13.0730  -15.3660 N.3    83  THR83      -0.1203
     21  CA        15.9360  -12.4320  -15.0030 C.3    83  THR83       0.1994
     22  C         16.0440  -12.0610  -13.5190 C.2    83  THR83       0.2618
     23  O         17.1140  -11.6220  -13.0800 O.2    83  THR83      -0.2717
     24  CB        16.1050  -11.1580  -15.8320 C.3    83  THR83       0.1784
     25  OG1       14.9720  -10.3030  -15.5930 O.3    83  THR83      -0.2211
     26  CG2       16.2570  -11.4410  -17.3100 C.3    83  THR83       0.0376
     27  N         14.9490  -12.2520  -12.7750 N.am   84  GLY84      -0.1942
     28  CA        14.8290  -11.9070  -11.3590 C.3    84  GLY84       0.2014
     29  C         16.0020  -12.3390  -10.5110 C.2    84  GLY84       0.2639
     30  O         16.4010  -13.5020  -10.5400 O.2    84  GLY84      -0.2714
     31  N         16.5550  -11.3760   -9.7870 N.am   85  GLY85      -0.1939
     32  CA        17.6800  -11.5980   -8.8980 C.3    85  GLY85       0.2014
     33  C         17.5610  -10.7440   -7.6540 C.2    85  GLY85       0.2640
     34  O         16.7870   -9.7800   -7.6110 O.2    85  GLY85      -0.2714
     35  N         18.3450  -11.0670   -6.6390 N.am   86  SER86      -0.1935
     36  CA        18.2790  -10.2820   -5.4190 C.3    86  SER86       0.2055
     37  C         19.6700   -9.9420   -4.9550 C.2    86  SER86       0.2642
     38  O         20.6370  -10.6470   -5.3080 O.2    86  SER86      -0.2714
     39  CB        17.5120  -11.0670   -4.3420 C.3    86  SER86       0.2130
     40  OG        17.5440  -10.4490   -3.0630 O.3    86  SER86      -0.2179
     41  N         19.7870   -8.8790   -4.1290 N.am   87  ARG87      -0.1977
     42  CA        21.0880   -8.5180   -3.5620 C.3    87  ARG87       0.1597
     43  C         21.4880   -9.6130   -2.5300 C.2    87  ARG87       0.2287
     44  O         22.6770   -9.7570   -2.2280 O.2    87  ARG87      -0.2864
     45  CB        21.0640   -7.1240   -2.9080 C.3    87  ARG87       0.0334
     46  CG        20.6990   -6.0010   -3.8650 C.3    87  ARG87       0.0492
     47  CD        21.4790   -4.7350   -3.5840 C.3    87  ARG87       0.2205
     48  NE        22.7760   -4.7390   -4.2610 N.pl3  87  ARG87      -0.0865
     49  CZ        22.9870   -4.2720   -5.4880 C.cat  87  ARG87       0.5346
     50  NH1       21.9860   -3.7550   -6.1930 N.pl3  87  ARG87       0.1354
     51  NH2       24.1990   -4.3190   -6.0210 N.pl3  87  ARG87       0.1354
     52  N         13.4970  -17.4820  -11.0400 N.3   103  TRP103     -0.1241
     53  CA        12.4860  -16.7120  -10.3360 C.3   103  TRP103      0.1605
     54  C         11.5580  -16.1830  -11.4300 C.2   103  TRP103      0.2264
     55  O         11.9040  -15.2440  -12.1540 O.2   103  TRP103     -0.2867
     56  CB        13.1950  -15.5740   -9.6280 C.3   103  TRP103      0.0550
     57  CG        12.3290  -14.8340   -8.6540 C.ar  103  TRP103      0.0003
     58  CD1       10.9720  -14.9540   -8.4720 C.ar  103  TRP103      0.0946
     59  CD2       12.8010  -13.9970   -7.6070 C.ar  103  TRP103      0.0152
     60  NE1       10.5740  -14.1560   -7.4310 N.ar  103  TRP103     -0.2442
     61  CE2       11.6820  -13.6110   -6.8400 C.ar  103  TRP103      0.0810
     62  CE3       14.0800  -13.5580   -7.2160 C.ar  103  TRP103      0.0012
     63  CZ2       11.7910  -12.7030   -5.7640 C.ar  103  TRP103      0.0191
     64  CZ3       14.1800  -12.6290   -6.1840 C.ar  103  TRP103      0.0001
     65  CH2       13.0530  -12.2570   -5.4390 C.ar  103  TRP103      0.0015
     66  N          8.7020  -13.9080  -12.7220 N.3   105  THR105     -0.1218
     67  CA         7.9500  -12.7030  -12.3660 C.3   105  THR105      0.1862
     68  C          7.1120  -12.1710  -13.5160 C.2   105  THR105      0.2287
     69  O          7.2080  -12.6450  -14.6590 O.2   105  THR105     -0.2866
     70  CB         8.8650  -11.6230  -11.7420 C.3   105  THR105      0.1770
     71  OG1        9.8690  -11.2350  -12.7020 O.3   105  THR105     -0.2211
     72  CG2        9.4780  -12.0720  -10.3870 C.3   105  THR105      0.0375
     73  N          4.8740   -6.0560   -2.2940 N.3   140  GLU140     -0.1245
     74  CA         5.8830   -6.9420   -2.8910 C.3   140  GLU140      0.1567
     75  C          5.1950   -8.0100   -3.7590 C.2   140  GLU140      0.2260
     76  O          5.6080   -8.2580   -4.8910 O.2   140  GLU140     -0.2867
     77  CB         6.6680   -7.6370   -1.7580 C.3   140  GLU140      0.0388
     78  CG         8.1430   -7.8460   -2.0250 C.3   140  GLU140      0.1160
     79  CD         8.7120   -9.1290   -1.4420 C.2   140  GLU140      0.3649
     80  OE1        8.7520   -9.2740   -0.1980 O.co2 140  GLU140     -0.2457
     81  OE2        9.1200   -9.9970   -2.2450 O.co2 140  GLU140     -0.2457
     82  N          5.8470   -8.2300   -7.9020 N.3   144  LEU144     -0.1245
     83  CA         6.4570   -9.4050   -8.5390 C.3   144  LEU144      0.1561
     84  C          5.4580  -10.2050   -9.3500 C.2   144  LEU144      0.2260
     85  O          5.7990  -10.7020  -10.4300 O.2   144  LEU144     -0.2867
     86  CB         7.0320  -10.3210   -7.4630 C.3   144  LEU144      0.0270
     87  CG         8.2010   -9.7560   -6.6290 C.3   144  LEU144      0.0019
     88  CD1        8.4630  -10.6220   -5.4260 C.3   144  LEU144      0.0001
     89  CD2        9.4670   -9.6170   -7.4480 C.3   144  LEU144      0.0001
     90  N         16.2280   -9.3770    3.4550 N.3   176  GLN176     -0.1245
     91  CA        14.8670   -9.7120    3.0220 C.3   176  GLN176      0.1566
     92  C         13.8970  -10.1700    4.1140 C.2   176  GLN176      0.2260
     93  O         14.2590  -10.9610    4.9740 O.2   176  GLN176     -0.2867
     94  CB        14.9300  -10.8870    2.0160 C.3   176  GLN176      0.0367
     95  CG        15.9190  -10.7220    0.8540 C.3   176  GLN176      0.0905
     96  CD        15.6250   -9.4970    0.0010 C.2   176  GLN176      0.2608
     97  OE1       14.4700   -9.1100   -0.2320 O.2   176  GLN176     -0.2717
     98  NE2       16.6760   -8.8410   -0.4680 N.am  176  GLN176     -0.0878
@<TRIPOS>BOND
     1    26    24    1
     2    13    14    1
     3    18    17    1
     4    14    17    1
     5    14    15    1
     6    17    19    1
     7    15    16    2
     8    24    25    1
     9    24    21    1
    10    20    21    1
    11    21    22    1
    12    69    68    2
    13    22    23    2
    14    22    27   am
    15    68    67    1
    16    27    28    1
    17    66    67    1
    18    71    70    1
    19    67    70    1
    20    55    54    2
    21    70    72    1
    22    54    53    1
    23    28    29    1
    24    52    53    1
    25    30    29    2
    26    29    31   am
    27    85    84    2
    28    53    56    1
    29    31    32    1
    30    56    57    1
    31    84    83    1
    32    32    33    1
    33    57    58   ar
    34    57    59   ar
    35    83    82    1
    36    83    86    1
    37    58    60   ar
    38    33    34    2
    39    33    35   am
    40    59    62   ar
    41    59    61   ar
    42    86    87    1
    43    89    87    1
    44    60    61   ar
    45    62    64   ar
    46    61    63   ar
    47    35    36    1
    48    87    88    1
    49    50    49    1
    50    64    65   ar
    51    51    49    1
    52    63    65   ar
    53    49    48    2
    54    36    37    1
    55    36    39    1
    56    38    37    2
    57    37    41   am
    58    76    75    2
    59    39    40    1
    60    48    47    1
    61    41    42    1
    62    46    47    1
    63    46    45    1
    64    75    74    1
    65    42    45    1
    66    42    43    1
    67    74    73    1
    68    74    77    1
    69    43    44    2
    70    81    79   ar
    71    78    77    1
    72    78    79    1
    73     7     9   ar
    74     7     6   ar
    75     9    11   ar
    76     5     6    1
    77     5     2    1
    78    79    80   ar
    79     6     8   ar
    80    11    12    1
    81    11    10   ar
    82     8    10   ar
    83     1     2    1
    84    98    96   am
    85     2     3    1
    86    97    96    2
    87    96    95    1
    88     4     3    2
    89    95    94    1
    90    94    91    1
    91    91    90    1
    92    91    92    1
    93    92    93    2
