@<TRIPOS>MOLECULE
tmp/3qqkA00.pdb
 144 137 0 0 0
SMALL
GASTEIGER

@<TRIPOS>ATOM
      1  N         68.2580  157.6460  -42.4980 N.3    10  ILE10      -0.1245
      2  CA        67.3080  156.5840  -42.8120 C.3    10  ILE10       0.1561
      3  C         67.4420  155.3540  -41.9220 C.2    10  ILE10       0.2260
      4  O         66.4730  154.6250  -41.7070 O.2    10  ILE10      -0.2867
      5  CB        67.4500  156.1470  -44.2900 C.3    10  ILE10       0.0252
      6  CG1       67.0770  157.3130  -45.2030 C.3    10  ILE10       0.0019
      7  CG2       66.5840  154.9280  -44.5710 C.3    10  ILE10       0.0019
      8  CD1       65.7470  157.9470  -44.8600 C.3    10  ILE10       0.0001
      9  N         72.3090  150.6630  -41.6100 N.3    13  GLY13      -0.1225
     10  CA        72.3610  149.4610  -42.4260 C.3    13  GLY13       0.1811
     11  C         73.2660  148.3440  -41.9360 C.2    13  GLY13       0.2280
     12  O         73.7630  148.3660  -40.8040 O.2    13  GLY13      -0.2866
     13  N         72.7480  154.9570  -43.4480 N.3    18  VAL18      -0.1245
     14  CA        71.9940  155.3360  -44.6370 C.3    18  VAL18       0.1561
     15  C         71.2620  156.6460  -44.3790 C.2    18  VAL18       0.2260
     16  O         70.5470  156.7910  -43.3880 O.2    18  VAL18      -0.2867
     17  CB        70.9640  154.2560  -45.0240 C.3    18  VAL18       0.0252
     18  CG1       70.3650  154.5810  -46.3970 C.3    18  VAL18       0.0019
     19  CG2       71.6330  152.8880  -45.0340 C.3    18  VAL18       0.0019
     20  N         69.3020  158.1820  -51.6900 N.3    31  ALA31      -0.1245
     21  CA        69.5820  157.4370  -50.4710 C.3    31  ALA31       0.1562
     22  C         71.0920  157.2460  -50.5120 C.2    31  ALA31       0.2260
     23  O         71.6260  156.6950  -51.4700 O.2    31  ALA31      -0.2867
     24  CB        68.8930  156.0870  -50.4900 C.3    31  ALA31       0.0290
     25  N         74.4410  155.6250  -48.7530 N.3    33  LYS33      -0.1245
     26  CA        74.9600  154.6580  -47.7960 C.3    33  LYS33       0.1561
     27  C         76.4590  154.9260  -47.6370 C.2    33  LYS33       0.2260
     28  O         77.1950  154.9840  -48.6220 O.2    33  LYS33      -0.2867
     29  CB        74.7290  153.2310  -48.2980 C.3    33  LYS33       0.0271
     30  CG        75.0990  152.1510  -47.2750 C.3    33  LYS33       0.0035
     31  CD        74.9460  150.7400  -47.8490 C.3    33  LYS33       0.0206
     32  CE        75.0240  149.6960  -46.7360 C.3    33  LYS33       0.1093
     33  NZ        74.9560  148.3040  -47.2620 N.3    33  LYS33      -0.1314
     34  N         66.5060  148.4490  -57.0750 N.3    60  VAL60      -0.1245
     35  CA        66.8930  149.8300  -56.7790 C.3    60  VAL60       0.1561
     36  C         68.1630  150.1750  -57.5710 C.2    60  VAL60       0.2260
     37  O         69.1430  149.4230  -57.5820 O.2    60  VAL60      -0.2867
     38  CB        67.1240  150.0240  -55.2480 C.3    60  VAL60       0.0252
     39  CG1       67.7840  151.3600  -54.9610 C.3    60  VAL60       0.0019
     40  CG2       65.7750  149.9620  -54.5210 C.3    60  VAL60       0.0019
     41  N         72.0520  155.7120  -54.1550 N.3    76  PHE76      -0.1227
     42  CA        70.9250  154.9920  -54.7230 C.3    76  PHE76       0.1736
     43  C         69.7520  155.9070  -55.0010 C.2    76  PHE76       0.2595
     44  O         69.5860  156.9460  -54.3630 O.2    76  PHE76      -0.2718
     45  CB        70.4370  153.9210  -53.7360 C.3    76  PHE76       0.0547
     46  CG        71.4580  152.8710  -53.4190 C.ar   76  PHE76      -0.0202
     47  CD1       71.7440  151.8600  -54.3310 C.ar   76  PHE76      -0.0042
     48  CD2       72.1190  152.8750  -52.1990 C.ar   76  PHE76      -0.0042
     49  CE1       72.6770  150.8600  -54.0240 C.ar   76  PHE76      -0.0003
     50  CE2       73.0550  151.8810  -51.8840 C.ar   76  PHE76      -0.0003
     51  CZ        73.3290  150.8700  -52.8050 C.ar   76  PHE76      -0.0000
     52  N         68.9360  155.5020  -55.9610 N.am   77  GLU77      -0.1965
     53  CA        67.7240  156.2440  -56.2710 C.3    77  GLU77       0.1733
     54  C         66.9030  156.0850  -54.9860 C.2    77  GLU77       0.2616
     55  O         66.9270  155.0220  -54.3440 O.2    77  GLU77      -0.2715
     56  CB        67.0010  155.5950  -57.4450 C.3    77  GLU77       0.0429
     57  CG        66.5320  154.1940  -57.1510 C.3    77  GLU77       0.1163
     58  CD        65.5420  153.6540  -58.1730 C.2    77  GLU77       0.3649
     59  OE1       64.5420  154.3390  -58.4850 O.co2  77  GLU77      -0.2457
     60  OE2       65.7520  152.5340  -58.6570 O.co2  77  GLU77      -0.2457
     61  N         66.1800  157.1280  -54.6130 N.am   78  PHE78      -0.1960
     62  CA        65.3860  157.1340  -53.3880 C.3    78  PHE78       0.1771
     63  C         63.9380  156.6390  -53.5530 C.2    78  PHE78       0.2619
     64  O         63.2510  157.0270  -54.4990 O.2    78  PHE78      -0.2715
     65  CB        65.3860  158.5690  -52.8180 C.3    78  PHE78       0.0574
     66  CG        64.6550  158.7170  -51.5190 C.ar   78  PHE78      -0.0200
     67  CD1       63.3140  159.1000  -51.4880 C.ar   78  PHE78      -0.0042
     68  CD2       65.2990  158.4440  -50.3160 C.ar   78  PHE78      -0.0042
     69  CE1       62.6270  159.2060  -50.2810 C.ar   78  PHE78      -0.0003
     70  CE2       64.6250  158.5450  -49.1050 C.ar   78  PHE78      -0.0003
     71  CZ        63.2870  158.9270  -49.0860 C.ar   78  PHE78      -0.0000
     72  N         63.5060  155.7570  -52.6510 N.am   79  LEU79      -0.1963
     73  CA        62.1240  155.2600  -52.6390 C.3    79  LEU79       0.1728
     74  C         61.5350  155.7190  -51.3130 C.2    79  LEU79       0.2616
     75  O         62.2570  155.8380  -50.3300 O.2    79  LEU79      -0.2715
     76  CB        62.0570  153.7330  -52.7990 C.3    79  LEU79       0.0311
     77  CG        61.9670  153.3610  -54.2900 C.3    79  LEU79       0.0022
     78  CD1       63.3720  153.1810  -54.8620 C.3    79  LEU79       0.0001
     79  CD2       61.1340  152.1110  -54.4920 C.3    79  LEU79       0.0001
     80  N         60.2240  155.9630  -51.2620 N.am   80  HIS80      -0.1959
     81  CA        59.6520  156.5060  -50.0360 C.3    80  HIS80       0.1787
     82  C         59.2970  155.6310  -48.8790 C.2    80  HIS80       0.2620
     83  O         59.1910  156.1290  -47.7530 O.2    80  HIS80      -0.2715
     84  CB        58.4440  157.3970  -50.3540 C.3    80  HIS80       0.0785
     85  CG        58.8250  158.7590  -50.8420 C.ar   80  HIS80       0.0821
     86  ND1       59.2910  158.9880  -52.1190 N.ar   80  HIS80      -0.2267
     87  CD2       58.8480  159.9590  -50.2090 C.ar   80  HIS80       0.1154
     88  CE1       59.5860  160.2710  -52.2530 C.ar   80  HIS80       0.1986
     89  NE2       59.3250  160.8820  -51.1090 N.ar   80  HIS80      -0.2212
     90  N         59.1280  154.3350  -49.1030 N.am   81  GLN81      -0.1963
     91  CA        58.7660  153.4930  -47.9650 C.3    81  GLN81       0.1733
     92  C         59.2980  152.0810  -48.1460 C.2    81  GLN81       0.2616
     93  O         59.5260  151.6550  -49.2760 O.2    81  GLN81      -0.2715
     94  CB        57.2390  153.4760  -47.8090 C.3    81  GLN81       0.0408
     95  CG        56.7600  152.9160  -46.4700 C.3    81  GLN81       0.0908
     96  CD        55.3800  153.4160  -46.0920 C.2    81  GLN81       0.2608
     97  OE1       55.2110  154.5670  -45.6680 O.2    81  GLN81      -0.2717
     98  NE2       54.3860  152.5670  -46.2580 N.am   81  GLN81      -0.0878
     99  N         59.5390  151.3800  -47.0370 N.am   82  ASP82      -0.1971
    100  CA        59.9950  149.9950  -47.1260 C.3    82  ASP82       0.1709
    101  C         58.8420  149.0690  -46.7590 C.2    82  ASP82       0.2293
    102  O         57.8530  149.4910  -46.1550 O.2    82  ASP82      -0.2864
    103  CB        61.2390  149.7490  -46.2430 C.3    82  ASP82       0.1436
    104  CG        60.9780  149.9510  -44.7540 C.2    82  ASP82       0.3671
    105  OD1       60.2190  149.1620  -44.1580 O.co2  82  ASP82      -0.2456
    106  OD2       61.5470  150.8980  -44.1770 O.co2  82  ASP82      -0.2456
    107  N         62.6890  145.0610  -44.5900 N.3   127  GLN127     -0.1231
    108  CA        63.3370  146.3730  -44.5120 C.3   127  GLN127      0.1698
    109  C         64.1180  146.7830  -45.7460 C.2   127  GLN127      0.2592
    110  O         64.3370  147.9830  -45.9450 O.2   127  GLN127     -0.2718
    111  CB        64.2620  146.4520  -43.2940 C.3   127  GLN127      0.0381
    112  CG        63.5240  146.5630  -41.9830 C.3   127  GLN127      0.0905
    113  CD        64.3970  146.2050  -40.8050 C.2   127  GLN127      0.2608
    114  OE1       64.7910  145.0510  -40.6430 O.2   127  GLN127     -0.2717
    115  NE2       64.7110  147.1940  -39.9760 N.am  127  GLN127     -0.0878
    116  N         64.5670  145.8250  -46.5610 N.am  128  ASN128     -0.1974
    117  CA        65.2630  146.2160  -47.7830 C.3   128  ASN128      0.1688
    118  C         64.4820  145.9890  -49.0820 C.2   128  ASN128      0.2292
    119  O         65.0670  145.9200  -50.1530 O.2   128  ASN128     -0.2864
    120  CB        66.6760  145.6210  -47.8920 C.3   128  ASN128      0.1181
    121  CG        66.7120  144.1320  -47.7690 C.2   128  ASN128      0.2629
    122  OD1       65.8510  143.4250  -48.3030 O.2   128  ASN128     -0.2716
    123  ND2       67.7410  143.6270  -47.0750 N.am  128  ASN128     -0.0877
    124  N         61.7780  147.9640  -51.0810 N.3   130  LEU130     -0.1245
    125  CA        61.2500  149.3260  -51.1060 C.3   130  LEU130      0.1561
    126  C         60.0990  149.5020  -52.0760 C.2   130  LEU130      0.2260
    127  O         60.1280  148.9610  -53.1710 O.2   130  LEU130     -0.2867
    128  CB        62.3840  150.2890  -51.4650 C.3   130  LEU130      0.0270
    129  CG        63.6390  149.9980  -50.6400 C.3   130  LEU130      0.0019
    130  CD1       64.7070  150.9940  -51.0100 C.3   130  LEU130      0.0001
    131  CD2       63.3330  150.0760  -49.1390 C.3   130  LEU130      0.0001
    132  N         66.6080  146.1510  -52.6360 N.3   140  ALA140     -0.1231
    133  CA        67.6350  147.1050  -52.2300 C.3   140  ALA140      0.1694
    134  C         68.6520  146.4570  -51.2890 C.2   140  ALA140      0.2592
    135  O         68.4690  145.3370  -50.8180 O.2   140  ALA140     -0.2718
    136  CB        67.0020  148.3030  -51.5260 C.3   140  ALA140      0.0304
    137  N         69.7160  147.1960  -51.0160 N.am  141  ASP141     -0.1974
    138  CA        70.7710  146.7720  -50.1070 C.3   141  ASP141      0.1709
    139  C         71.2480  145.3370  -50.2730 C.2   141  ASP141      0.2293
    140  O         71.1610  144.5220  -49.3410 O.2   141  ASP141     -0.2864
    141  CB        70.3120  147.0080  -48.6710 C.3   141  ASP141      0.1436
    142  CG        71.4650  147.0390  -47.6880 C.2   141  ASP141      0.3671
    143  OD1       72.5390  147.5480  -48.0470 O.co2 141  ASP141     -0.2456
    144  OD2       71.2860  146.5740  -46.5560 O.co2 141  ASP141     -0.2456
@<TRIPOS>BOND
     1    60    58   ar
     2    59    58   ar
     3    58    57    1
     4    37    36    2
     5    36    35    1
     6    56    57    1
     7    56    53    1
     8    34    35    1
     9    35    38    1
    10    53    52    1
    11    53    54    1
    12    52    43   am
    13    38    39    1
    14    38    40    1
    15    43    42    1
    16    43    44    2
    17    54    61   am
    18    54    55    2
    19    78    77    1
    20    42    41    1
    21    42    45    1
    22    61    62    1
    23    64    63    2
    24    79    77    1
    25    47    49   ar
    26    47    46   ar
    27    77    76    1
    28    49    51   ar
    29    45    46    1
    30    63    62    1
    31    63    72   am
    32    46    48   ar
    33    62    65    1
    34   127   126    2
    35    65    66    1
    36    51    50   ar
    37    76    73    1
    38    72    73    1
    39    73    74    1
    40   132   133    1
    41    88    86   ar
    42    88    89   ar
    43   133   136    1
    44   133   134    1
    45    48    50   ar
    46    86    85   ar
    47   126   125    1
    48    20    21    1
    49    66    67   ar
    50    66    68   ar
    51    67    69   ar
    52    23    22    2
    53   128   125    1
    54   128   129    1
    55    74    80   am
    56    74    75    2
    57   134   137   am
    58   134   135    2
    59    80    81    1
    60    89    87   ar
    61   125   124    1
    62   137   138    1
    63   130   129    1
    64    85    84    1
    65    85    87   ar
    66   129   131    1
    67    22    21    1
    68    24    21    1
    69    84    81    1
    70    68    70   ar
    71    69    71   ar
    72   139   138    1
    73   139   140    2
    74   119   118    2
    75   138   141    1
    76    81    82    1
    77    93    92    2
    78    70    71   ar
    79    90    82   am
    80    90    91    1
    81   118   117    1
    82    82    83    2
    83    25    26    1
    84   141   142    1
    85    28    27    2
    86   122   121    2
    87    29    26    1
    88    29    30    1
    89    92    91    1
    90    92    99   am
    91   143   142   ar
    92    91    94    1
    93   120   117    1
    94   120   121    1
    95    31    30    1
    96    31    32    1
    97    94    95    1
    98    26    27    1
    99   117   116    1
   100   121   123   am
   101   142   144   ar
   102    33    32    1
   103   100    99    1
   104   100   101    1
   105   100   103    1
   106   101   102    2
   107   116   109   am
   108    95    96    1
   109    18    17    1
   110    98    96   am
   111   103   104    1
   112    96    97    2
   113   110   109    2
   114   109   108    1
   115     6     8    1
   116     6     5    1
   117    19    17    1
   118    17    14    1
   119   104   106   ar
   120   104   105   ar
   121    14    15    1
   122    14    13    1
   123   107   108    1
   124     7     5    1
   125   108   111    1
   126    15    16    2
   127     5     2    1
   128   111   112    1
   129     2     1    1
   130     2     3    1
   131    10    11    1
   132    10     9    1
   133   112   113    1
   134    11    12    2
   135     3     4    2
   136   113   114    2
   137   113   115   am
