@<TRIPOS>MOLECULE
tmp/3qqpC00.pdb
 153 144 0 0 0
SMALL
GASTEIGER

@<TRIPOS>ATOM
      1  N        -17.1400   50.6250   10.9740 N.3   102  ILE102     -0.1245
      2  CA       -17.1370   50.2500    9.5690 C.3   102  ILE102      0.1561
      3  C        -17.9100   51.3030    8.8200 C.2   102  ILE102      0.2260
      4  O        -18.7510   51.9850    9.4070 O.2   102  ILE102     -0.2867
      5  CB       -17.7400   48.8410    9.2880 C.3   102  ILE102      0.0252
      6  CG1      -19.1430   48.6300    9.9330 C.3   102  ILE102      0.0019
      7  CG2      -16.7530   47.7120    9.5750 C.3   102  ILE102      0.0019
      8  CD1      -19.9220   47.4510    9.3480 C.3   102  ILE102      0.0001
      9  N        -22.7870   49.5250    4.8630 N.3   105  THR105     -0.1203
     10  CA       -22.8520   48.4610    3.8470 C.3   105  THR105      0.1994
     11  C        -24.2520   47.8360    3.7610 C.2   105  THR105      0.2619
     12  O        -24.9160   47.6030    4.7810 O.2   105  THR105     -0.2717
     13  CB       -21.8800   47.3100    4.2180 C.3   105  THR105      0.1784
     14  OG1      -20.8010   47.8110    4.9950 O.3   105  THR105     -0.2211
     15  CG2      -21.3570   46.5640    3.0130 C.3   105  THR105      0.0376
     16  N        -24.6460   47.4840    2.5400 N.am  106  SER106     -0.1937
     17  CA       -25.9090   46.8150    2.2340 C.3   106  SER106      0.2055
     18  C        -25.5820   45.5390    1.4420 C.2   106  SER106      0.2642
     19  O        -24.4840   45.4310    0.8900 O.2   106  SER106     -0.2714
     20  CB       -26.8120   47.7400    1.4250 C.3   106  SER106      0.2130
     21  OG       -26.1090   48.2760    0.3150 O.3   106  SER106     -0.2179
     22  N        -26.4940   44.5580    1.4180 N.am  107  LEU107     -0.1977
     23  CA       -26.2340   43.3300    0.6650 C.3   107  LEU107      0.1596
     24  C        -26.5580   43.6310   -0.7810 C.2   107  LEU107      0.2287
     25  O        -27.7230   43.8420   -1.0930 O.2   107  LEU107     -0.2864
     26  CB       -27.0950   42.1490    1.1590 C.3   107  LEU107      0.0297
     27  CG       -26.8090   41.5170    2.5170 C.3   107  LEU107      0.0022
     28  CD1      -27.9320   40.5500    2.8880 C.3   107  LEU107      0.0001
     29  CD2      -25.5410   40.7170    2.4850 C.3   107  LEU107      0.0001
     30  N        -15.3430   39.7640   10.9960 N.3   151  SER151     -0.1202
     31  CA       -16.5860   39.0860   10.6730 C.3   151  SER151      0.2020
     32  C        -16.2770   37.7160   10.0560 C.2   151  SER151      0.2619
     33  O        -15.1400   37.4690    9.6460 O.2   151  SER151     -0.2717
     34  CB       -17.3410   39.9600    9.6570 C.3   151  SER151      0.2103
     35  OG       -18.5150   39.3870    9.1000 O.3   151  SER151     -0.2182
     36  N        -17.3090   36.8430    9.9430 N.am  152  LEU152     -0.1965
     37  CA       -17.2130   35.5520    9.2530 C.3   152  LEU152      0.1728
     38  C        -16.8620   35.8270    7.7910 C.2   152  LEU152      0.2616
     39  O        -16.1020   35.0620    7.1850 O.2   152  LEU152     -0.2715
     40  CB       -18.5380   34.7760    9.3430 C.3   152  LEU152      0.0311
     41  CG       -18.8390   34.0880   10.6830 C.3   152  LEU152      0.0022
     42  CD1      -20.1860   33.4460   10.6530 C.3   152  LEU152      0.0001
     43  CD2      -17.8370   32.9850   10.9660 C.3   152  LEU152      0.0001
     44  N        -17.3550   36.9870    7.2630 N.am  153  ALA153     -0.1977
     45  CA       -17.0830   37.4790    5.9120 C.3   153  ALA153      0.1597
     46  C        -15.6130   37.8840    5.7470 C.2   153  ALA153      0.2287
     47  O        -15.1490   38.1020    4.6320 O.2   153  ALA153     -0.2864
     48  CB       -18.0110   38.6360    5.5660 C.3   153  ALA153      0.0319
     49  N        -18.6800   35.1150    0.9730 N.3   158  TYR158     -0.1228
     50  CA       -20.1290   35.1920    0.7850 C.3   158  TYR158      0.1721
     51  C        -20.4370   36.1250   -0.3670 C.2   158  TYR158      0.2437
     52  O        -19.7910   37.1600   -0.4620 O.2   158  TYR158     -0.2733
     53  CB       -20.8300   35.7580    2.0340 C.3   158  TYR158      0.0547
     54  CG       -20.6250   34.9640    3.3000 C.ar  158  TYR158     -0.0200
     55  CD1      -19.8950   35.4890    4.3620 C.ar  158  TYR158     -0.0009
     56  CD2      -21.1790   33.6960    3.4490 C.ar  158  TYR158     -0.0009
     57  CE1      -19.7410   34.7840    5.5540 C.ar  158  TYR158      0.0417
     58  CE2      -21.0120   32.9690    4.6270 C.ar  158  TYR158      0.0417
     59  CZ       -20.3110   33.5280    5.6870 C.ar  158  TYR158      0.1957
     60  OH       -20.1190   32.8120    6.8430 O.3   158  TYR158     -0.2866
     61  N        -21.4710   35.8740   -1.1940 N.am  159  PRO159     -0.2729
     62  CA       -21.8330   36.8720   -2.2110 C.3   159  PRO159      0.1401
     63  C        -22.4760   38.0930   -1.5300 C.2   159  PRO159      0.2269
     64  O        -22.7290   38.0530   -0.3250 O.2   159  PRO159     -0.2865
     65  CB       -22.8630   36.1210   -3.0670 C.3   159  PRO159      0.0296
     66  CG       -23.4890   35.1580   -2.1590 C.3   159  PRO159      0.0237
     67  CD       -22.3980   34.7230   -1.2230 C.3   159  PRO159      0.0939
     68  N        -21.4510   40.7660   -0.4120 N.3   161  VAL161     -0.1245
     69  CA       -20.6120   41.5070    0.5430 C.3   161  VAL161      0.1561
     70  C        -19.1610   41.6590    0.0950 C.2   161  VAL161      0.2260
     71  O        -18.2690   41.7510    0.9380 O.2   161  VAL161     -0.2867
     72  CB       -20.7390   40.9590    2.0080 C.3   161  VAL161      0.0252
     73  CG1      -22.1300   41.1910    2.5730 C.3   161  VAL161      0.0019
     74  CG2      -20.3450   39.4840    2.1180 C.3   161  VAL161      0.0019
     75  N        -16.8560   44.6770    1.5210 N.3   164  TYR164     -0.1241
     76  CA       -16.7770   44.4440    2.9750 C.3   164  TYR164      0.1605
     77  C        -15.8120   43.3020    3.2950 C.2   164  TYR164      0.2264
     78  O        -14.9270   43.4560    4.1260 O.2   164  TYR164     -0.2867
     79  CB       -18.2020   44.1560    3.5100 C.3   164  TYR164      0.0534
     80  CG       -18.3300   43.8150    4.9800 C.ar  164  TYR164     -0.0201
     81  CD1      -18.4570   44.8150    5.9370 C.ar  164  TYR164     -0.0009
     82  CD2      -18.4490   42.4920    5.4010 C.ar  164  TYR164     -0.0009
     83  CE1      -18.6130   44.5120    7.2870 C.ar  164  TYR164      0.0417
     84  CE2      -18.5910   42.1730    6.7540 C.ar  164  TYR164      0.0417
     85  CZ       -18.6930   43.1900    7.6940 C.ar  164  TYR164      0.1957
     86  OH       -18.9020   42.9020    9.0270 O.3   164  TYR164     -0.2866
     87  N        -16.9720   37.6440   14.1440 N.3   196  LEU196     -0.1231
     88  CA       -18.3820   37.6180   14.5060 C.3   196  LEU196      0.1693
     89  C        -19.3130   37.1260   13.4230 C.2   196  LEU196      0.2593
     90  O        -19.1850   37.5100   12.2580 O.2   196  LEU196     -0.2718
     91  CB       -18.8750   38.9930   14.9750 C.3   196  LEU196      0.0284
     92  CG       -17.9950   39.8140   15.8980 C.3   196  LEU196      0.0019
     93  CD1      -18.6750   41.0820   16.2240 C.3   196  LEU196      0.0001
     94  CD2      -17.6340   39.0780   17.1890 C.3   196  LEU196      0.0001
     95  N        -20.2950   36.3340   13.8520 N.am  197  GLY197     -0.1942
     96  CA       -21.3890   35.8630   13.0280 C.3   197  GLY197      0.2014
     97  C        -22.4680   36.9170   13.0710 C.2   197  GLY197      0.2638
     98  O        -22.1860   38.0500   13.4430 O.2   197  GLY197     -0.2714
     99  N        -23.7100   36.5760   12.7280 N.am  198  LEU198     -0.1977
    100  CA       -24.7640   37.5850   12.7450 C.3   198  LEU198      0.1596
    101  C        -25.1580   38.0480   14.1680 C.2   198  LEU198      0.2287
    102  O        -25.4430   37.2320   15.0510 O.2   198  LEU198     -0.2864
    103  CB       -25.9780   37.1710   11.8820 C.3   198  LEU198      0.0297
    104  CG       -27.0350   38.2630   11.6470 C.3   198  LEU198      0.0022
    105  CD1      -26.5480   39.3170   10.6370 C.3   198  LEU198      0.0001
    106  CD2      -28.3410   37.6470   11.1980 C.3   198  LEU198      0.0001
    107  N        -27.8050   43.7930   15.6430 N.3   201  THR201     -0.1218
    108  CA       -27.7620   45.2520   15.5820 C.3   201  THR201      0.1862
    109  C        -28.8080   45.6990   14.5420 C.2   201  THR201      0.2287
    110  O        -29.0780   44.9550   13.5940 O.2   201  THR201     -0.2866
    111  CB       -26.3520   45.7850   15.2740 C.3   201  THR201      0.1770
    112  OG1      -25.9400   45.2890   14.0090 O.3   201  THR201     -0.2211
    113  CG2      -25.3240   45.4230   16.3500 C.3   201  THR201      0.0375
    114  N        -28.5710   47.9430   12.2130 N.3   203  THR203     -0.1203
    115  CA       -27.8970   48.0550   10.9210 C.3   203  THR203      0.1994
    116  C        -27.8730   46.7250   10.1860 C.2   203  THR203      0.2617
    117  O        -28.2550   46.6880    9.0130 O.2   203  THR203     -0.2717
    118  CB       -26.5180   48.6870   11.0890 C.3   203  THR203      0.1784
    119  OG1      -26.6930   49.9640   11.6930 O.3   203  THR203     -0.2211
    120  CG2      -25.8020   48.8800    9.7720 C.3   203  THR203      0.0376
    121  N        -27.4590   45.6380   10.8840 N.am  204  ALA204     -0.1979
    122  CA       -27.3910   44.2850   10.3240 C.3   204  ALA204      0.1597
    123  C        -28.7770   43.6890   10.1110 C.2   204  ALA204      0.2287
    124  O        -28.9990   43.0740    9.0780 O.2   204  ALA204     -0.2864
    125  CB       -26.5550   43.3770   11.2100 C.3   204  ALA204      0.0319
    126  N        -30.2030   45.2700    7.0980 N.3   207  ALA207     -0.1231
    127  CA       -29.3750   44.7850    6.0010 C.3   207  ALA207      0.1694
    128  C        -29.6840   43.3760    5.5160 C.2   207  ALA207      0.2591
    129  O        -29.4930   43.1040    4.3330 O.2   207  ALA207     -0.2718
    130  CB       -27.9100   44.8940    6.3760 C.3   207  ALA207      0.0304
    131  N        -30.1560   42.4840    6.3990 N.am  208  VAL208     -0.1980
    132  CA       -30.4600   41.0990    6.0220 C.3   208  VAL208      0.1595
    133  C        -31.9530   40.7830    5.9150 C.2   208  VAL208      0.2287
    134  O        -32.2940   39.6930    5.4710 O.2   208  VAL208     -0.2864
    135  CB       -29.6950   40.0380    6.8640 C.3   208  VAL208      0.0276
    136  CG1      -28.1850   40.2000    6.7260 C.3   208  VAL208      0.0022
    137  CG2      -30.1270   40.0580    8.3330 C.3   208  VAL208      0.0022
    138  N        -33.5700   38.6890    3.1940 N.3   211  ILE211     -0.1245
    139  CA       -32.9980   37.3550    2.9900 C.3   211  ILE211      0.1561
    140  C        -33.3010   36.4230    4.1710 C.2   211  ILE211      0.2260
    141  O        -33.6150   36.8960    5.2680 O.2   211  ILE211     -0.2867
    142  CB       -31.4750   37.3440    2.5790 C.3   211  ILE211      0.0252
    143  CG1      -30.5060   37.5210    3.7750 C.3   211  ILE211      0.0019
    144  CG2      -31.1520   38.2800    1.4060 C.3   211  ILE211      0.0019
    145  CD1      -29.6080   36.3470    4.0350 C.3   211  ILE211      0.0001
    146  N        -29.9710   32.8240    9.7180 N.3   214  MET214     -0.1245
    147  CA       -29.8060   32.0890   10.9700 C.3   214  MET214      0.1570
    148  C        -30.2080   33.0130   12.1370 C.2   214  MET214      0.2261
    149  O        -30.4420   34.2090   11.9280 O.2   214  MET214     -0.2867
    150  CB       -28.3200   31.6700   11.1250 C.3   214  MET214      0.0387
    151  CG       -27.4650   31.8340    9.8460 C.3   214  MET214      0.0595
    152  SD       -27.3140   33.5560    9.2780 S.3   214  MET214     -0.1393
    153  CE       -26.1550   33.3610    7.9020 C.3   214  MET214      0.0692
@<TRIPOS>BOND
     1    65    62    1
     2    65    66    1
     3    62    63    1
     4    62    61    1
     5    66    67    1
     6    63    64    2
     7    67    61    1
     8    61    51   am
     9    25    24    2
    10    24    23    1
    11    52    51    2
    12    68    69    1
    13    51    50    1
    14    70    69    1
    15    70    71    2
    16    21    20    1
    17    69    72    1
    18    23    26    1
    19    23    22    1
    20    50    49    1
    21    50    53    1
    22    19    18    2
    23    26    27    1
    24   144   142    1
    25    22    18   am
    26    20    17    1
    27    18    17    1
    28    75    76    1
    29    72    74    1
    30    72    73    1
    31    53    54    1
    32    17    16    1
    33    29    27    1
    34    27    28    1
    35    16    11   am
    36   142   139    1
    37   142   143    1
    38    76    77    1
    39    76    79    1
    40   139   138    1
    41   139   140    1
    42    15    13    1
    43    77    78    2
    44    54    56   ar
    45    54    55   ar
    46    56    58   ar
    47    79    80    1
    48    11    10    1
    49    11    12    2
    50   143   145    1
    51    10    13    1
    52    10     9    1
    53   140   141    2
    54    13    14    1
    55   129   128    2
    56    55    57   ar
    57    58    59   ar
    58    47    46    2
    59    80    82   ar
    60    80    81   ar
    61    82    84   ar
    62   134   133    2
    63   128   127    1
    64   128   131   am
    65    57    59   ar
    66    48    45    1
    67    59    60    1
    68    46    45    1
    69    45    44    1
    70   133   132    1
    71    81    83   ar
    72   127   130    1
    73   127   126    1
    74   132   131    1
    75   132   135    1
    76   136   135    1
    77    84    85   ar
    78   135   137    1
    79    39    38    2
    80    44    38   am
    81    83    85   ar
    82    85    86    1
    83    38    37    1
    84   153   152    1
    85     3     4    2
    86     3     2    1
    87   117   116    2
    88   124   123    2
    89    35    34    1
    90    37    40    1
    91    37    36    1
    92   152   151    1
    93     5     2    1
    94     5     7    1
    95     5     6    1
    96    40    41    1
    97     8     6    1
    98     2     1    1
    99    33    32    2
   100    34    31    1
   101   146   147    1
   102   120   118    1
   103   151   150    1
   104    36    32   am
   105    32    31    1
   106   123   122    1
   107   116   121   am
   108   116   115    1
   109   122   121    1
   110   122   125    1
   111   105   104    1
   112    42    41    1
   113    31    30    1
   114    41    43    1
   115   115   118    1
   116   115   114    1
   117   147   150    1
   118   147   148    1
   119   118   119    1
   120   106   104    1
   121   104   103    1
   122   103   100    1
   123   149   148    2
   124    90    89    2
   125    99   100    1
   126    99    97   am
   127   100   101    1
   128    96    97    1
   129    96    95    1
   130    97    98    2
   131    89    95   am
   132    89    88    1
   133   110   109    2
   134   112   111    1
   135    87    88    1
   136   101   102    2
   137    88    91    1
   138   109   108    1
   139    91    92    1
   140   111   108    1
   141   111   113    1
   142   108   107    1
   143    92    93    1
   144    92    94    1
