@<TRIPOS>MOLECULE
tmp/3qqrB00.pdb
 214 206 0 0 0
SMALL
GASTEIGER

@<TRIPOS>ATOM
      1  N          6.6350   -9.6060  -22.1120 N.3    29  PHE29      -0.1241
      2  CA         5.5720  -10.3320  -21.4600 C.3    29  PHE29       0.1605
      3  C          5.8270  -11.8390  -21.5180 C.2    29  PHE29       0.2264
      4  O          5.5170  -12.5740  -20.5690 O.2    29  PHE29      -0.2867
      5  CB         4.2290   -9.9820  -22.0820 C.3    29  PHE29       0.0534
      6  CG         3.2080   -9.5030  -21.0960 C.ar   29  PHE29      -0.0203
      7  CD1        3.1470  -10.0280  -19.8150 C.ar   29  PHE29      -0.0042
      8  CD2        2.2850   -8.5340  -21.4590 C.ar   29  PHE29      -0.0042
      9  CE1        2.1890   -9.5830  -18.9040 C.ar   29  PHE29      -0.0003
     10  CE2        1.3200   -8.0860  -20.5650 C.ar   29  PHE29      -0.0003
     11  CZ         1.2760   -8.6080  -19.2780 C.ar   29  PHE29      -0.0000
     12  N          8.3640  -12.5860  -18.7720 N.3    32  ILE32      -0.1245
     13  CA         7.5680  -12.6790  -17.5480 C.3    32  ILE32       0.1561
     14  C          6.9360  -14.0590  -17.3720 C.2    32  ILE32       0.2260
     15  O          7.1410  -14.7280  -16.3340 O.2    32  ILE32      -0.2867
     16  CB         6.4930  -11.5510  -17.4910 C.3    32  ILE32       0.0252
     17  CG1        7.1560  -10.1690  -17.4620 C.3    32  ILE32       0.0019
     18  CG2        5.5430  -11.7240  -16.2850 C.3    32  ILE32       0.0019
     19  CD1        6.1700   -9.0110  -17.6700 C.3    32  ILE32       0.0001
     20  N          1.5700  -16.0500  -13.4710 N.3    39  ALA39      -0.1245
     21  CA         1.1800  -14.6410  -13.5100 C.3    39  ALA39       0.1562
     22  C          0.1590  -14.3250  -14.6270 C.2    39  ALA39       0.2260
     23  O         -0.4730  -13.2630  -14.6100 O.2    39  ALA39      -0.2867
     24  CB         2.3980  -13.7430  -13.6140 C.3    39  ALA39       0.0290
     25  N         -3.5020  -13.6000  -13.4920 N.3    42  LEU42      -0.1231
     26  CA        -3.8880  -12.2460  -13.0480 C.3    42  LEU42       0.1693
     27  C         -4.6790  -11.4400  -14.0980 C.2    42  LEU42       0.2592
     28  O         -5.4390  -10.5300  -13.7440 O.2    42  LEU42      -0.2718
     29  CB        -2.6330  -11.4300  -12.6900 C.3    42  LEU42       0.0284
     30  CG        -1.7490  -11.9010  -11.5370 C.3    42  LEU42       0.0019
     31  CD1       -0.4060  -11.1740  -11.5320 C.3    42  LEU42       0.0001
     32  CD2       -2.5180  -11.6980  -10.2160 C.3    42  LEU42       0.0001
     33  N         -4.4620  -11.7430  -15.3780 N.am   43  PHE43      -0.1962
     34  CA        -5.0320  -10.9720  -16.4640 C.3    43  PHE43       0.1771
     35  C         -6.2670  -11.7120  -16.9380 C.2    43  PHE43       0.2620
     36  O         -6.1560  -12.8130  -17.5100 O.2    43  PHE43      -0.2715
     37  CB        -4.0090  -10.7890  -17.6090 C.3    43  PHE43       0.0574
     38  CG        -2.7430  -10.0640  -17.1920 C.ar   43  PHE43      -0.0200
     39  CD1       -1.6550  -10.7740  -16.6780 C.ar   43  PHE43      -0.0042
     40  CD2       -2.6490   -8.6730  -17.2870 C.ar   43  PHE43      -0.0042
     41  CE1       -0.4840  -10.1140  -16.2630 C.ar   43  PHE43      -0.0003
     42  CE2       -1.4780   -7.9960  -16.8920 C.ar   43  PHE43      -0.0003
     43  CZ        -0.3930   -8.7280  -16.3780 C.ar   43  PHE43      -0.0000
     44  N         -7.4390  -11.1130  -16.6930 N.am   44  SER44      -0.1936
     45  CA        -8.7440  -11.7310  -16.9990 C.3    44  SER44       0.2055
     46  C         -8.8290  -12.0400  -18.4880 C.2    44  SER44       0.2643
     47  O         -9.3230  -13.0980  -18.9180 O.2    44  SER44      -0.2714
     48  CB        -9.8910  -10.8010  -16.5780 C.3    44  SER44       0.2130
     49  OG        -9.7760   -9.5130  -17.1840 O.3    44  SER44      -0.2179
     50  N         -8.2880  -11.1280  -19.2790 N.am   45  TYR45      -0.1973
     51  CA        -8.2030  -11.3500  -20.7130 C.3    45  TYR45       0.1639
     52  C         -7.1850  -12.4060  -21.1850 C.2    45  TYR45       0.2290
     53  O         -7.1010  -12.6520  -22.3840 O.2    45  TYR45      -0.2864
     54  CB        -8.0210  -10.0160  -21.4590 C.3    45  TYR45       0.0560
     55  CG        -6.8090   -9.1870  -21.0640 C.ar   45  TYR45      -0.0198
     56  CD1       -5.5380   -9.4600  -21.5990 C.ar   45  TYR45      -0.0009
     57  CD2       -6.9470   -8.1120  -20.1960 C.ar   45  TYR45      -0.0009
     58  CE1       -4.4360   -8.7000  -21.2600 C.ar   45  TYR45       0.0417
     59  CE2       -5.8590   -7.3280  -19.8520 C.ar   45  TYR45       0.0417
     60  CZ        -4.6020   -7.6220  -20.3880 C.ar   45  TYR45       0.1957
     61  OH        -3.5380   -6.8240  -20.0350 O.3    45  TYR45      -0.2866
     62  N         -0.2800   -3.7070  -22.0180 N.3    59  HIS59      -0.1241
     63  CA         0.2910   -3.5940  -20.6900 C.3    59  HIS59       0.1621
     64  C          1.8220   -3.5260  -20.6800 C.2    59  HIS59       0.2264
     65  O          2.4050   -2.7160  -19.9420 O.2    59  HIS59      -0.2867
     66  CB        -0.2050   -4.6980  -19.7540 C.3    59  HIS59       0.0745
     67  CG         0.2330   -4.4840  -18.3530 C.ar   59  HIS59       0.0817
     68  ND1        1.4840   -4.8440  -17.9180 N.ar   59  HIS59      -0.2268
     69  CD2       -0.3630   -3.8410  -17.3210 C.ar   59  HIS59       0.1154
     70  CE1        1.6290   -4.4690  -16.6610 C.ar   59  HIS59       0.1986
     71  NE2        0.5170   -3.8720  -16.2730 N.ar   59  HIS59      -0.2212
     72  N          3.0250   -0.1330  -21.9950 N.3    62  THR62      -0.1203
     73  CA         2.7940    0.9110  -21.0370 C.3    62  THR62       0.1994
     74  C          3.9010    0.9440  -19.9870 C.2    62  THR62       0.2617
     75  O          4.3560    2.0160  -19.6240 O.2    62  THR62      -0.2717
     76  CB         1.4520    0.7410  -20.3850 C.3    62  THR62       0.1784
     77  OG1        0.4480    0.7830  -21.4010 O.3    62  THR62      -0.2211
     78  CG2        1.2080    1.8660  -19.4370 C.3    62  THR62       0.0376
     79  N          4.3360   -0.2340  -19.5370 N.am   63  VAL63      -0.1979
     80  CA         5.4310   -0.3470  -18.5920 C.3    63  VAL63       0.1595
     81  C          6.6780    0.3900  -19.0940 C.2    63  VAL63       0.2287
     82  O          7.2370    1.2140  -18.3770 O.2    63  VAL63      -0.2864
     83  CB         5.7580   -1.8290  -18.2390 C.3    63  VAL63       0.0276
     84  CG1        7.0120   -1.9140  -17.3140 C.3    63  VAL63       0.0022
     85  CG2        4.5680   -2.4990  -17.5620 C.3    63  VAL63       0.0022
     86  N          5.9440    4.3280  -19.4420 N.3    66  MET66      -0.1230
     87  CA         5.8330    5.0030  -18.1460 C.3    66  MET66       0.1702
     88  C          7.1430    5.0850  -17.3830 C.2    66  MET66       0.2593
     89  O          7.4450    6.1020  -16.7800 O.2    66  MET66      -0.2718
     90  CB         4.7200    4.3930  -17.3150 C.3    66  MET66       0.0401
     91  CG         3.3360    4.6990  -17.8950 C.3    66  MET66       0.0596
     92  SD         1.9910    4.2660  -16.7810 S.3    66  MET66      -0.1393
     93  CE         2.1600    5.5340  -15.5340 C.3    66  MET66       0.0692
     94  N          7.9240    4.0120  -17.4270 N.am   67  THR67      -0.1953
     95  CA         9.2790    4.0150  -16.8820 C.3    67  THR67       0.1897
     96  C         10.1560    5.0880  -17.5410 C.2    67  THR67       0.2313
     97  O         10.8390    5.8570  -16.8430 O.2    67  THR67      -0.2863
     98  CB         9.8960    2.5890  -16.9620 C.3    67  THR67       0.1794
     99  OG1        8.9780    1.6690  -16.3640 O.3    67  THR67      -0.2208
    100  CG2       11.2300    2.5000  -16.1980 C.3    67  THR67       0.0378
    101  N         -6.0630    4.9550  -10.4030 N.3    89  ARG89      -0.1231
    102  CA        -6.6960    3.9200  -11.1940 C.3    89  ARG89       0.1694
    103  C         -5.7720    2.7070  -11.4470 C.2    89  ARG89       0.2591
    104  O         -6.2360    1.5580  -11.5110 O.2    89  ARG89      -0.2718
    105  CB        -7.1740    4.5080  -12.5160 C.3    89  ARG89       0.0321
    106  CG        -8.3260    3.7380  -13.1420 C.3    89  ARG89       0.0489
    107  CD        -8.5720    4.1750  -14.5880 C.3    89  ARG89       0.2205
    108  NE        -7.3130    4.2560  -15.3300 N.pl3  89  ARG89      -0.0865
    109  CZ        -6.8330    5.3610  -15.8980 C.cat  89  ARG89       0.5346
    110  NH1       -7.5180    6.5070  -15.8460 N.pl3  89  ARG89       0.1354
    111  NH2       -5.6650    5.3120  -16.5380 N.pl3  89  ARG89       0.1354
    112  N         -4.4740    2.9650  -11.6070 N.am   90  ILE90      -0.1980
    113  CA        -3.5110    1.8790  -11.7900 C.3    90  ILE90       0.1595
    114  C         -3.4050    1.0960  -10.4890 C.2    90  ILE90       0.2287
    115  O         -3.4920   -0.1340  -10.5070 O.2    90  ILE90      -0.2864
    116  CB        -2.1030    2.3660  -12.2370 C.3    90  ILE90       0.0276
    117  CG1       -2.1610    3.0710  -13.6010 C.3    90  ILE90       0.0022
    118  CG2       -1.1640    1.1810  -12.3190 C.3    90  ILE90       0.0022
    119  CD1       -0.9740    4.0080  -13.8760 C.3    90  ILE90       0.0001
    120  N         -6.6140   -1.1650   -9.7130 N.3    93  ILE93      -0.1231
    121  CA        -6.7100   -2.4230  -10.4530 C.3    93  ILE93       0.1692
    122  C         -5.5750   -3.4080  -10.1090 C.2    93  ILE93       0.2592
    123  O         -5.7680   -4.6170  -10.1060 O.2    93  ILE93      -0.2718
    124  CB        -6.8890   -2.2260  -11.9900 C.3    93  ILE93       0.0266
    125  CG1       -7.5030   -3.5000  -12.6080 C.3    93  ILE93       0.0019
    126  CG2       -5.5470   -1.8970  -12.6540 C.3    93  ILE93       0.0020
    127  CD1       -8.3730   -3.2790  -13.8730 C.3    93  ILE93       0.0001
    128  N         -4.4060   -2.8920   -9.7970 N.am   94  HIS94      -0.1976
    129  CA        -3.2960   -3.7450   -9.3860 C.3    94  HIS94       0.1656
    130  C         -3.6400   -4.4130   -8.0790 C.2    94  HIS94       0.2291
    131  O         -3.4000   -5.6140   -7.8550 O.2    94  HIS94      -0.2864
    132  CB        -2.0550   -2.9140   -9.2120 C.3    94  HIS94       0.0771
    133  CG        -1.3220   -2.6860  -10.4820 C.ar   94  HIS94       0.0820
    134  ND1       -1.9130   -2.8570  -11.7110 N.ar   94  HIS94      -0.2267
    135  CD2       -0.0470   -2.3180  -10.7240 C.ar   94  HIS94       0.1154
    136  CE1       -1.0310   -2.6050  -12.6560 C.ar   94  HIS94       0.1986
    137  NE2        0.1110   -2.2860  -12.0880 N.ar   94  HIS94      -0.2212
    138  N         -6.6740   -7.1670   -8.6590 N.3    97  THR97      -0.1218
    139  CA        -6.3350   -8.3810   -9.4240 C.3    97  THR97       0.1862
    140  C         -5.4210   -9.3380   -8.6460 C.2    97  THR97       0.2287
    141  O         -5.3470  -10.5390   -8.9330 O.2    97  THR97      -0.2866
    142  CB        -5.7240   -8.0470  -10.7980 C.3    97  THR97       0.1770
    143  OG1       -4.6790   -7.0840  -10.6270 O.3    97  THR97      -0.2211
    144  CG2       -6.7790   -7.4440  -11.6920 C.3    97  THR97       0.0375
    145  N         -1.9760   -8.3920   -7.7640 N.3    99  VAL99      -0.1245
    146  CA        -0.5520   -8.1590   -8.0300 C.3    99  VAL99       0.1561
    147  C          0.2420   -8.0840   -6.7130 C.2    99  VAL99       0.2260
    148  O         -0.1370   -7.3440   -5.8060 O.2    99  VAL99      -0.2867
    149  CB        -0.2850   -6.8690   -8.8460 C.3    99  VAL99       0.0252
    150  CG1        1.2350   -6.6920   -9.0520 C.3    99  VAL99       0.0019
    151  CG2       -1.0140   -6.9060  -10.1870 C.3    99  VAL99       0.0019
    152  N          5.4990  -10.2500   -8.4310 N.3   103  HIS103     -0.1226
    153  CA         5.0660   -9.8470   -9.7690 C.3   103  HIS103      0.1752
    154  C          5.8350   -8.6410  -10.2630 C.2   103  HIS103      0.2596
    155  O          6.4060   -8.7110  -11.3500 O.2   103  HIS103     -0.2718
    156  CB         3.5610   -9.6220   -9.8510 C.3   103  HIS103      0.0759
    157  CG         2.7570  -10.8590   -9.5830 C.ar  103  HIS103      0.0818
    158  ND1        1.6430  -10.8640   -8.7690 N.ar  103  HIS103     -0.2268
    159  CD2        2.9160  -12.1350  -10.0030 C.ar  103  HIS103      0.1154
    160  CE1        1.1470  -12.0840   -8.7100 C.ar  103  HIS103      0.1986
    161  NE2        1.9030  -12.8740   -9.4460 N.ar  103  HIS103     -0.2212
    162  N          5.8830   -7.5670   -9.4660 N.am  104  PHE104     -0.1976
    163  CA         6.6910   -6.3810   -9.7980 C.3   104  PHE104      0.1639
    164  C          8.1630   -6.7050  -10.0000 C.2   104  PHE104      0.2290
    165  O          8.8510   -6.0500  -10.8020 O.2   104  PHE104     -0.2864
    166  CB         6.6160   -5.3100   -8.7120 C.3   104  PHE104      0.0560
    167  CG         5.3400   -4.5210   -8.7140 C.ar  104  PHE104     -0.0200
    168  CD1        5.0210   -3.6680   -9.7800 C.ar  104  PHE104     -0.0042
    169  CD2        4.4810   -4.5880   -7.6360 C.ar  104  PHE104     -0.0042
    170  CE1        3.8760   -2.9220   -9.7770 C.ar  104  PHE104     -0.0003
    171  CE2        3.2910   -3.8550   -7.6410 C.ar  104  PHE104     -0.0003
    172  CZ         2.9900   -3.0210   -8.7080 C.ar  104  PHE104     -0.0000
    173  N          8.7050   -8.8750  -13.1100 N.3   107  THR107     -0.1218
    174  CA         8.5850   -7.8810  -14.1640 C.3   107  THR107      0.1862
    175  C          9.8310   -7.0000  -14.3550 C.2   107  THR107      0.2287
    176  O         10.2870   -6.7770  -15.4950 O.2   107  THR107     -0.2866
    177  CB         7.3010   -7.1010  -13.9810 C.3   107  THR107      0.1770
    178  OG1        6.2210   -8.0230  -14.1200 O.3   107  THR107     -0.2211
    179  CG2        7.1450   -6.0090  -15.0220 C.3   107  THR107      0.0375
    180  N         12.2170    2.5220  -12.8430 N.3   135  TYR135     -0.1241
    181  CA        11.1590    1.5340  -12.6340 C.3   135  TYR135      0.1605
    182  C         10.7210    1.4880  -11.1580 C.2   135  TYR135      0.2264
    183  O          9.5250    1.5990  -10.8300 O.2   135  TYR135     -0.2867
    184  CB        11.6450    0.1640  -13.0980 C.3   135  TYR135      0.0534
    185  CG        10.6590   -0.9650  -12.8740 C.ar  135  TYR135     -0.0201
    186  CD1        9.6490   -1.2250  -13.8090 C.ar  135  TYR135     -0.0009
    187  CD2       10.7420   -1.8010  -11.7430 C.ar  135  TYR135     -0.0009
    188  CE1        8.7460   -2.2610  -13.6280 C.ar  135  TYR135      0.0417
    189  CE2        9.8230   -2.8590  -11.5560 C.ar  135  TYR135      0.0417
    190  CZ         8.8290   -3.0780  -12.5140 C.ar  135  TYR135      0.1957
    191  OH         7.9020   -4.1020  -12.3900 O.3   135  TYR135     -0.2866
    192  N          8.6860    4.4620  -10.0930 N.3   138  LEU138     -0.1231
    193  CA         7.3000    4.3820  -10.5810 C.3   138  LEU138      0.1693
    194  C          6.5030    3.3290   -9.8430 C.2   138  LEU138      0.2591
    195  O          5.3380    3.5370   -9.5500 O.2   138  LEU138     -0.2718
    196  CB         7.2670    4.0020  -12.0470 C.3   138  LEU138      0.0284
    197  CG         6.1410    4.4330  -12.9830 C.3   138  LEU138      0.0019
    198  CD1        6.0160    3.3670  -14.0110 C.3   138  LEU138      0.0001
    199  CD2        4.8090    4.7610  -12.3780 C.3   138  LEU138      0.0001
    200  N          7.1310    2.1810   -9.5950 N.am  139  VAL139     -0.1980
    201  CA         6.5000    1.0850   -8.8860 C.3   139  VAL139      0.1595
    202  C          6.1010    1.6070   -7.5010 C.2   139  VAL139      0.2287
    203  O          5.0010    1.3390   -7.0320 O.2   139  VAL139     -0.2864
    204  CB         7.4550   -0.1400   -8.8010 C.3   139  VAL139      0.0276
    205  CG1        7.1120   -1.0600   -7.6010 C.3   139  VAL139      0.0022
    206  CG2        7.4490   -0.9340  -10.1150 C.3   139  VAL139      0.0022
    207  N          3.0570    3.7960   -7.8500 N.3   142  ILE142     -0.1245
    208  CA         1.8730    2.9460   -8.0650 C.3   142  ILE142      0.1561
    209  C          1.4760    2.2100   -6.7800 C.2   142  ILE142      0.2260
    210  O          0.2940    2.1990   -6.4310 O.2   142  ILE142     -0.2867
    211  CB         2.0400    1.9540   -9.2350 C.3   142  ILE142      0.0252
    212  CG1        2.2220    2.7100  -10.5560 C.3   142  ILE142      0.0019
    213  CG2        0.8180    1.0310   -9.3100 C.3   142  ILE142      0.0019
    214  CD1        2.6310    1.8280  -11.7030 C.3   142  ILE142      0.0001
@<TRIPOS>BOND
     1    53    52    2
     2     1     2    1
     3     5     2    1
     4     5     6    1
     5    62    63    1
     6    72    73    1
     7    56    58   ar
     8    56    55   ar
     9     3     2    1
    10     3     4    2
    11     8     6   ar
    12     8    10   ar
    13    54    55    1
    14    54    51    1
    15    77    76    1
    16    58    60   ar
    17    52    51    1
    18     6     7   ar
    19    55    57   ar
    20    73    76    1
    21    73    74    1
    22    51    50    1
    23    63    64    1
    24    63    66    1
    25    64    65    2
    26    10    11   ar
    27    60    61    1
    28    60    59   ar
    29    76    78    1
    30    57    59   ar
    31    74    75    2
    32    74    79   am
    33     7     9   ar
    34    66    67    1
    35    79    80    1
    36    86    87    1
    37    50    46   am
    38    11     9   ar
    39    81    80    1
    40    81    82    2
    41    47    46    2
    42    12    13    1
    43    80    83    1
    44    46    45    1
    45    67    68   ar
    46    67    69   ar
    47    83    85    1
    48    83    84    1
    49    87    88    1
    50    87    90    1
    51    68    70   ar
    52    91    90    1
    53    91    92    1
    54    19    17    1
    55    37    38    1
    56    37    34    1
    57    13    16    1
    58    13    14    1
    59    96    95    1
    60    96    97    2
    61    36    35    2
    62    16    17    1
    63    16    18    1
    64    94    88   am
    65    94    95    1
    66    88    89    2
    67    14    15    2
    68    69    71   ar
    69    40    38   ar
    70    40    42   ar
    71    38    39   ar
    72    49    48    1
    73    45    44    1
    74    45    48    1
    75    98    95    1
    76    98    99    1
    77    98   100    1
    78    35    44   am
    79    35    34    1
    80    42    43   ar
    81    92    93    1
    82    39    41   ar
    83    70    71   ar
    84   111   109    1
    85    34    33    1
    86    43    41   ar
    87   109   110    1
    88   109   108    2
    89   176   175    2
    90    33    27   am
    91   108   107    1
    92   179   177    1
    93    22    23    2
    94    22    21    1
    95   107   106    1
    96   175   174    1
    97   174   177    1
    98   174   173    1
    99   178   177    1
   100    27    28    2
   101    27    26    1
   102   198   197    1
   103   119   117    1
   104   127   125    1
   105   186   188   ar
   106   186   185   ar
   107   188   190   ar
   108    24    21    1
   109   117   116    1
   110    21    20    1
   111    25    26    1
   112   106   105    1
   113   184   185    1
   114   184   181    1
   115    26    29    1
   116   197   199    1
   117   197   196    1
   118   185   187   ar
   119   180   181    1
   120    29    30    1
   121   136   137   ar
   122   136   134   ar
   123   126   124    1
   124   181   182    1
   125   125   124    1
   126   105   102    1
   127   190   191    1
   128   190   189   ar
   129   118   116    1
   130   116   113    1
   131   137   135   ar
   132   196   193    1
   133   124   121    1
   134   113   112    1
   135   113   114    1
   136   187   189   ar
   137   134   133   ar
   138   214   212    1
   139   144   142    1
   140   112   103   am
   141    30    31    1
   142    30    32    1
   143   104   103    2
   144   103   102    1
   145   155   154    2
   146   102   101    1
   147   182   183    2
   148   165   164    2
   149   142   143    1
   150   142   139    1
   151   135   133   ar
   152   193   192    1
   153   193   194    1
   154   212   211    1
   155   115   114    2
   156   133   132    1
   157   121   122    1
   158   121   120    1
   159   154   153    1
   160   154   162   am
   161   151   149    1
   162   206   204    1
   163   122   123    2
   164   122   128   am
   165   159   157   ar
   166   159   161   ar
   167   164   163    1
   168   156   153    1
   169   156   157    1
   170   194   200   am
   171   194   195    2
   172   163   162    1
   173   163   166    1
   174   128   129    1
   175   168   170   ar
   176   168   167   ar
   177   170   172   ar
   178   153   152    1
   179   200   201    1
   180   157   158   ar
   181   161   160   ar
   182   139   138    1
   183   139   140    1
   184   129   132    1
   185   129   130    1
   186   213   211    1
   187   211   208    1
   188   150   149    1
   189   141   140    2
   190   201   204    1
   191   201   202    1
   192   149   146    1
   193   204   205    1
   194   158   160   ar
   195   167   166    1
   196   167   169   ar
   197   172   171   ar
   198   130   131    2
   199   208   207    1
   200   208   209    1
   201   146   145    1
   202   146   147    1
   203   171   169   ar
   204   202   203    2
   205   209   210    2
   206   147   148    2
