@<TRIPOS>MOLECULE
tmp/3qquD00.pdb
 162 150 0 0 0
SMALL
GASTEIGER

@<TRIPOS>ATOM
      1  N         62.5140   98.4910   42.3350 N.3    17  LEU17      -0.1231
      2  CA        61.8720   97.2060   42.5430 C.3    17  LEU17       0.1693
      3  C         62.9040   96.1730   42.1630 C.2    17  LEU17       0.2593
      4  O         62.7740   94.9950   42.4930 O.2    17  LEU17      -0.2718
      5  CB        60.6560   97.0020   41.6280 C.3    17  LEU17       0.0284
      6  CG        59.3430   97.7660   41.7700 C.3    17  LEU17       0.0019
      7  CD1       58.3520   97.1670   40.7990 C.3    17  LEU17       0.0001
      8  CD2       58.8120   97.6750   43.1830 C.3    17  LEU17       0.0001
      9  N         63.9240   96.6140   41.4390 N.am   18  GLY18      -0.1942
     10  CA        64.9570   95.6900   41.0070 C.3    18  GLY18       0.2014
     11  C         65.5130   96.0340   39.6350 C.2    18  GLY18       0.2639
     12  O         65.0340   96.9560   38.9650 O.2    18  GLY18      -0.2714
     13  N         66.5320   95.2900   39.2180 N.am   19  GLN19      -0.1963
     14  CA        67.1670   95.5190   37.9360 C.3    19  GLN19       0.1733
     15  C         66.4370   94.7270   36.8690 C.2    19  GLN19       0.2616
     16  O         66.1210   93.5500   37.0620 O.2    19  GLN19      -0.2715
     17  CB        68.6260   95.0800   38.0080 C.3    19  GLN19       0.0408
     18  CG        69.5170   95.5370   36.8550 C.3    19  GLN19       0.0908
     19  CD        69.6760   97.0470   36.8040 C.2    19  GLN19       0.2608
     20  OE1       69.7100   97.7250   37.8480 O.2    19  GLN19      -0.2717
     21  NE2       69.7930   97.5860   35.5870 N.am   19  GLN19      -0.0878
     22  N         66.1700   95.3900   35.7480 N.am   20  GLY20      -0.1955
     23  CA        65.4790   94.7540   34.6410 C.3    20  GLY20       0.1869
     24  C         66.4510   94.5220   33.5060 C.2    20  GLY20       0.2309
     25  O         67.5040   95.1570   33.4570 O.2    20  GLY20      -0.2863
     26  N         64.0370   98.9330   37.2520 N.3    25  VAL25      -0.1245
     27  CA        62.5990   99.1280   37.2240 C.3    25  VAL25       0.1561
     28  C         62.2860   99.8570   38.5090 C.2    25  VAL25       0.2260
     29  O         63.0710   99.8230   39.4510 O.2    25  VAL25      -0.2867
     30  CB        61.8400   97.8070   37.2310 C.3    25  VAL25       0.0252
     31  CG1       60.3580   98.0690   37.1770 C.3    25  VAL25       0.0019
     32  CG2       62.2720   96.9590   36.0660 C.3    25  VAL25       0.0019
     33  N         54.4060  100.2110   37.2950 N.3    43  ALA43      -0.1245
     34  CA        55.7040   99.5910   37.2650 C.3    43  ALA43       0.1562
     35  C         56.4070  100.3940   36.1700 C.2    43  ALA43       0.2260
     36  O         55.9340  100.4420   35.0320 O.2    43  ALA43      -0.2867
     37  CB        55.5690   98.1230   36.8650 C.3    43  ALA43       0.0290
     38  N         59.6000  100.7110   33.8980 N.3    45  LYS45      -0.1245
     39  CA        60.7970  100.0420   33.4120 C.3    45  LYS45       0.1561
     40  C         61.6270  101.0530   32.6370 C.2    45  LYS45       0.2260
     41  O         61.0900  101.8920   31.9300 O.2    45  LYS45      -0.2867
     42  CB        60.4290   98.8620   32.5200 C.3    45  LYS45       0.0271
     43  CG        59.5880   97.8240   33.2190 C.3    45  LYS45       0.0035
     44  CD        59.7200   96.4700   32.5690 C.3    45  LYS45       0.0206
     45  CE        59.1810   96.4620   31.1640 C.3    45  LYS45       0.1093
     46  NZ        59.4560   95.1540   30.5030 N.3    45  LYS45      -0.1314
     47  N         49.3240   91.3270   32.7140 N.3    75  VAL75      -0.1245
     48  CA        49.6890   92.6760   33.1220 C.3    75  VAL75       0.1561
     49  C         49.6590   93.5830   31.9060 C.2    75  VAL75       0.2260
     50  O         50.2260   93.2590   30.8580 O.2    75  VAL75      -0.2867
     51  CB        51.0660   92.7160   33.7810 C.3    75  VAL75       0.0252
     52  CG1       51.2960   94.0820   34.3730 C.3    75  VAL75       0.0019
     53  CG2       51.1370   91.6760   34.8660 C.3    75  VAL75       0.0019
     54  N         53.9250  100.2480   33.0200 N.3    91  MET91      -0.1230
     55  CA        52.9910   99.1470   33.0960 C.3    91  MET91       0.1702
     56  C         52.1900   99.1730   34.3720 C.2    91  MET91       0.2592
     57  O         52.5070   99.9090   35.3050 O.2    91  MET91      -0.2718
     58  CB        53.7090   97.8130   32.9150 C.3    91  MET91       0.0401
     59  CG        53.9560   97.5560   31.4500 C.3    91  MET91       0.0596
     60  SD        54.9130   96.1330   31.0890 S.3    91  MET91      -0.1393
     61  CE        53.6620   94.9720   30.6660 C.3    91  MET91       0.0692
     62  N         51.1210   98.3920   34.3660 N.am   92  GLU92      -0.1966
     63  CA        50.2030   98.2730   35.4780 C.3    92  GLU92       0.1733
     64  C         50.8930   97.5970   36.6450 C.2    92  GLU92       0.2616
     65  O         51.2380   96.4230   36.5660 O.2    92  GLU92      -0.2715
     66  CB        49.0190   97.4440   35.0150 C.3    92  GLU92       0.0429
     67  CG        48.0820   96.9830   36.0740 C.3    92  GLU92       0.1163
     68  CD        47.3050   95.7640   35.6140 C.2    92  GLU92       0.3649
     69  OE1       46.4580   95.2590   36.3830 O.co2  92  GLU92      -0.2457
     70  OE2       47.5540   95.2990   34.4780 O.co2  92  GLU92      -0.2457
     71  N         51.0840   98.3400   37.7320 N.am   93  LEU93      -0.1963
     72  CA        51.7440   97.8130   38.9220 C.3    93  LEU93       0.1728
     73  C         50.9550   96.7630   39.6840 C.2    93  LEU93       0.2616
     74  O         49.7780   96.9540   39.9670 O.2    93  LEU93      -0.2715
     75  CB        52.0810   98.9450   39.8900 C.3    93  LEU93       0.0311
     76  CG        52.8100   98.4820   41.1600 C.3    93  LEU93       0.0022
     77  CD1       54.1290   97.8210   40.7960 C.3    93  LEU93       0.0001
     78  CD2       53.0610   99.6690   42.0760 C.3    93  LEU93       0.0001
     79  N         51.6310   95.6560   39.9960 N.am   94  MET94      -0.1963
     80  CA        51.0970   94.5330   40.7850 C.3    94  MET94       0.1736
     81  C         51.8730   94.6260   42.1080 C.2    94  MET94       0.2617
     82  O         53.0140   94.1620   42.1860 O.2    94  MET94      -0.2715
     83  CB        51.4490   93.1930   40.1460 C.3    94  MET94       0.0427
     84  CG        50.9050   92.9560   38.7710 C.3    94  MET94       0.0599
     85  SD        49.1800   92.4400   38.7110 S.3    94  MET94      -0.1393
     86  CE        48.5320   93.7030   37.6750 C.3    94  MET94       0.0692
     87  N         51.2720   95.2150   43.1390 N.am   95  THR95      -0.1951
     88  CA        51.9570   95.3830   44.4170 C.3    95  THR95       0.1897
     89  C         52.4170   94.1260   45.1590 C.2    95  THR95       0.2313
     90  O         53.1940   94.2260   46.1020 O.2    95  THR95      -0.2863
     91  CB        51.1070   96.2030   45.3980 C.3    95  THR95       0.1794
     92  OG1       49.8430   95.5540   45.5920 O.3    95  THR95      -0.2208
     93  CG2       50.9120   97.6190   44.8780 C.3    95  THR95       0.0378
     94  N         54.1120   91.5410   43.7930 N.3    97  GLY97      -0.1210
     95  CA        55.1100   90.8330   43.0070 C.3    97  GLY97       0.1956
     96  C         54.6910   89.5600   42.3070 C.2    97  GLY97       0.2611
     97  O         53.5200   89.3810   42.0100 O.2    97  GLY97      -0.2717
     98  N         55.6420   88.6670   42.0420 N.am   98  ASP98      -0.1973
     99  CA        55.3210   87.4160   41.3570 C.3    98  ASP98       0.1709
    100  C         54.5780   86.4150   42.2200 C.2    98  ASP98       0.2293
    101  O         54.6430   86.4550   43.4390 O.2    98  ASP98      -0.2864
    102  CB        56.5740   86.7490   40.7830 C.3    98  ASP98       0.1436
    103  CG        57.5420   86.2740   41.8560 C.2    98  ASP98       0.3671
    104  OD1       58.2160   87.1320   42.4800 O.co2  98  ASP98      -0.2456
    105  OD2       57.6280   85.0370   42.0650 O.co2  98  ASP98      -0.2456
    106  N         56.8920   84.1630   44.6000 N.3   101  SER101     -0.1217
    107  CA        57.2890   84.8240   45.8190 C.3   101  SER101      0.1889
    108  C         56.1170   85.0210   46.7650 C.2   101  SER101      0.2288
    109  O         56.2780   84.9550   47.9840 O.2   101  SER101     -0.2866
    110  CB        57.9340   86.1680   45.5000 C.3   101  SER101      0.2089
    111  OG        59.2480   85.9880   44.9900 O.3   101  SER101     -0.2183
    112  N         52.0360   87.4470   38.1900 N.3   149  MET149     -0.1245
    113  CA        52.1970   88.4960   39.1830 C.3   149  MET149      0.1570
    114  C         50.8800   88.6160   39.9410 C.2   149  MET149      0.2261
    115  O         49.8550   88.1320   39.4810 O.2   149  MET149     -0.2867
    116  CB        52.5820   89.8190   38.5160 C.3   149  MET149      0.0387
    117  CG        53.5640   89.6710   37.3640 C.3   149  MET149      0.0595
    118  SD        54.6370   91.1020   37.1990 S.3   149  MET149     -0.1393
    119  CE        56.2090   90.3190   37.1810 C.3   149  MET149      0.0692
    120  N         54.3730   90.3210   33.4530 N.3   160  ASP160     -0.1239
    121  CA        55.3180   90.9670   32.5710 C.3   160  ASP160      0.1674
    122  C         56.2990   90.0320   31.8820 C.2   160  ASP160      0.2266
    123  O         57.1770   89.4540   32.5230 O.2   160  ASP160     -0.2867
    124  CB        56.1010   91.9880   33.3740 C.3   160  ASP160      0.1410
    125  CG        56.7360   93.0210   32.5120 C.2   160  ASP160      0.3668
    126  OD1       57.0150   92.7190   31.3370 O.co2 160  ASP160     -0.2456
    127  OD2       56.9670   94.1350   33.0190 O.co2 160  ASP160     -0.2456
    128  N         58.7100   90.7680   30.3710 N.3   162  GLY162     -0.1210
    129  CA        60.0400   91.3530   30.3030 C.3   162  GLY162      0.1956
    130  C         60.7930   91.3130   31.6210 C.2   162  GLY162      0.2612
    131  O         61.8160   91.9700   31.8030 O.2   162  GLY162     -0.2717
    132  N         60.2960   90.5180   32.5520 N.am  163  MET163     -0.1965
    133  CA        60.9120   90.4300   33.8670 C.3   163  MET163      0.1736
    134  C         62.1040   89.4790   33.9050 C.2   163  MET163      0.2617
    135  O         62.1550   88.5070   33.1550 O.2   163  MET163     -0.2715
    136  CB        59.8400   90.0040   34.8550 C.3   163  MET163      0.0427
    137  CG        60.2470   89.9470   36.2940 C.3   163  MET163      0.0599
    138  SD        58.9350   88.9390   37.0480 S.3   163  MET163     -0.1393
    139  CE        59.2170   87.2410   36.2120 C.3   163  MET163      0.0692
    140  N         63.0540   89.7630   34.7890 N.am  164  THR164     -0.1951
    141  CA        64.2540   88.9490   34.9130 C.3   164  THR164      0.1897
    142  C         64.0120   87.5450   35.4350 C.2   164  THR164      0.2313
    143  O         62.8870   87.0390   35.4270 O.2   164  THR164     -0.2863
    144  CB        65.2710   89.6070   35.8550 C.3   164  THR164      0.1794
    145  OG1       64.9280   90.9880   36.0570 O.3   164  THR164     -0.2208
    146  CG2       66.6660   89.5080   35.2490 C.3   164  THR164      0.0378
    147  N         64.9100   86.6810   38.5630 N.3   166  ASP166     -0.1225
    148  CA        65.3850   87.1670   39.8190 C.3   166  ASP166      0.1805
    149  C         66.2360   86.2070   40.6130 C.2   166  ASP166      0.2597
    150  O         67.4370   86.0450   40.3910 O.2   166  ASP166     -0.2718
    151  CB        64.2160   87.5820   40.6790 C.3   166  ASP166      0.1424
    152  CG        64.3030   89.0170   41.1070 C.2   166  ASP166      0.3668
    153  OD1       65.4250   89.5800   41.1630 O.co2 166  ASP166     -0.2456
    154  OD2       63.2290   89.5810   41.4000 O.co2 166  ASP166     -0.2456
    155  N         65.5520   85.5670   41.5470 N.am  167  ILE167     -0.1980
    156  CA        66.1150   84.6520   42.5080 C.3   167  ILE167      0.1595
    157  C         65.8540   83.2190   42.1060 C.2   167  ILE167      0.2287
    158  O         66.2410   82.2870   42.8080 O.2   167  ILE167     -0.2864
    159  CB        65.4350   84.9260   43.8390 C.3   167  ILE167      0.0276
    160  CG1       64.2800   83.9490   44.0550 C.3   167  ILE167      0.0022
    161  CG2       64.7640   86.2940   43.7880 C.3   167  ILE167      0.0022
    162  CD1       63.4770   84.2670   45.2910 C.3   167  ILE167      0.0001
@<TRIPOS>BOND
     1   129   128    1
     2   129   130    1
     3    46    45    1
     4    61    60    1
     5    50    49    2
     6    60    59    1
     7    45    44    1
     8   126   125   ar
     9    59    58    1
    10   130   131    2
    11   130   132   am
    12   122   123    2
    13   122   121    1
    14    49    48    1
    15    41    40    2
    16   125   127   ar
    17   125   124    1
    18    42    43    1
    19    42    39    1
    20   132   133    1
    21    44    43    1
    22   121   124    1
    23   121   120    1
    24    40    39    1
    25    47    48    1
    26    58    55    1
    27    54    55    1
    28    55    56    1
    29    48    51    1
    30   135   134    2
    31    39    38    1
    32    25    24    2
    33    24    23    1
    34    51    52    1
    35    51    53    1
    36   133   134    1
    37   133   136    1
    38   134   140   am
    39    62    56   am
    40    62    63    1
    41    56    57    2
    42    70    68   ar
    43    23    22    1
    44   140   141    1
    45   136   137    1
    46   141   142    1
    47   141   144    1
    48    66    63    1
    49    66    67    1
    50    36    35    2
    51   146   144    1
    52   143   142    2
    53    63    64    1
    54    21    19   am
    55    68    67    1
    56    68    69   ar
    57    22    15   am
    58   144   145    1
    59    32    30    1
    60    35    34    1
    61   139   138    1
    62   137   138    1
    63    65    64    2
    64    64    71   am
    65    19    18    1
    66    19    20    2
    67    18    17    1
    68    37    34    1
    69    15    16    2
    70    15    14    1
    71    31    30    1
    72   119   118    1
    73   118   117    1
    74    27    30    1
    75    27    26    1
    76    27    28    1
    77    34    33    1
    78   117   116    1
    79    86    85    1
    80    71    72    1
    81    14    17    1
    82    14    13    1
    83   112   113    1
    84    28    29    2
    85   116   113    1
    86   147   148    1
    87    85    84    1
    88    84    83    1
    89    72    73    1
    90    72    75    1
    91    12    11    2
    92   113   114    1
    93    13    11   am
    94   115   114    2
    95    11    10    1
    96    73    74    2
    97    73    79   am
    98   148   149    1
    99   148   151    1
   100    75    76    1
   101    79    80    1
   102    83    80    1
   103   150   149    2
   104   149   155   am
   105   151   152    1
   106   102    99    1
   107   102   103    1
   108    80    81    1
   109    77    76    1
   110     7     6    1
   111    10     9    1
   112   152   153   ar
   113   152   154   ar
   114    76    78    1
   115    99    98    1
   116    99   100    1
   117     9     3   am
   118   155   156    1
   119     5     6    1
   120     5     2    1
   121     6     8    1
   122   103   105   ar
   123   103   104   ar
   124    97    96    2
   125    98    96   am
   126   157   156    1
   127   157   158    2
   128    81    82    2
   129    81    87   am
   130     3     4    2
   131     3     2    1
   132   100   101    2
   133    96    95    1
   134     1     2    1
   135   156   159    1
   136    95    94    1
   137    87    88    1
   138   161   159    1
   139   159   160    1
   140   160   162    1
   141    88    89    1
   142    88    91    1
   143   106   107    1
   144    93    91    1
   145   111   110    1
   146    89    90    2
   147    91    92    1
   148   110   107    1
   149   107   108    1
   150   108   109    2
