@<TRIPOS>MOLECULE
tmp/3qqvA00.pdb
 163 155 0 0 0
SMALL
GASTEIGER

@<TRIPOS>ATOM
      1  N        -58.2900    8.1880    9.4230 N.3    47  GLY47      -0.1210
      2  CA       -58.1250    9.5960    9.7490 C.3    47  GLY47       0.1956
      3  C        -59.3170   10.1890   10.4740 C.2    47  GLY47       0.2612
      4  O        -59.8200    9.6210   11.4480 O.2    47  GLY47      -0.2717
      5  N        -59.7720   11.3400    9.9830 N.am   48  LYS48      -0.1965
      6  CA       -60.8260   12.1200   10.6370 C.3    48  LYS48       0.1728
      7  C        -62.2210   11.7090   10.1600 C.2    48  LYS48       0.2616
      8  O        -63.2370   12.1380   10.7280 O.2    48  LYS48      -0.2715
      9  CB       -60.6030   13.6230   10.4040 C.3    48  LYS48       0.0311
     10  CG       -59.2760   14.1820   10.9530 C.3    48  LYS48       0.0038
     11  CD       -58.1820   14.2970    9.8800 C.3    48  LYS48       0.0206
     12  CE       -58.3110   15.5840    9.0640 C.3    48  LYS48       0.1093
     13  NZ       -57.2880   15.6800    7.9820 N.3    48  LYS48      -0.1314
     14  N        -62.2470   10.8520    9.1350 N.am   49  ARG49      -0.1963
     15  CA       -63.4680   10.4290    8.4350 C.3    49  ARG49       0.1729
     16  C        -64.2430   11.6280    7.8690 C.2    49  ARG49       0.2616
     17  O        -65.4710   11.6930    7.9820 O.2    49  ARG49      -0.2715
     18  CB       -64.3720    9.5490    9.3160 C.3    49  ARG49       0.0348
     19  CG       -63.6510    8.4930   10.1570 C.3    49  ARG49       0.0492
     20  CD       -63.0450    7.3880    9.3180 C.3    49  ARG49       0.2205
     21  NE       -62.6740    6.2520   10.1540 N.pl3  49  ARG49      -0.0865
     22  CZ       -61.9490    5.2190    9.7420 C.cat  49  ARG49       0.5346
     23  NH1      -61.5070    5.1730    8.4940 N.pl3  49  ARG49       0.1354
     24  NH2      -61.6630    4.2300   10.5830 N.pl3  49  ARG49       0.1354
     25  N        -63.5020   12.5580    7.2630 N.am   50  ILE50      -0.1963
     26  CA       -64.0520   13.8120    6.7550 C.3    50  ILE50       0.1727
     27  C        -65.0860   13.6020    5.6400 C.2    50  ILE50       0.2616
     28  O        -66.1300   14.2600    5.6230 O.2    50  ILE50      -0.2715
     29  CB       -62.9270   14.8480    6.3700 C.3    50  ILE50       0.0290
     30  CG1      -63.4910   16.2670    6.2410 C.3    50  ILE50       0.0022
     31  CG2      -62.1680   14.4610    5.1080 C.3    50  ILE50       0.0023
     32  CD1      -63.6400   17.0010    7.5710 C.3    50  ILE50       0.0001
     33  N        -64.8190   12.6490    4.7480 N.am   51  ARG51      -0.1977
     34  CA       -65.7150   12.3950    3.6250 C.3    51  ARG51       0.1597
     35  C        -67.0760   11.7920    4.0280 C.2    51  ARG51       0.2287
     36  O        -68.0910   12.3070    3.5870 O.2    51  ARG51      -0.2864
     37  CB       -65.0000   11.6250    2.5030 C.3    51  ARG51       0.0334
     38  CG       -63.8650   12.4240    1.9130 C.3    51  ARG51       0.0492
     39  CD       -62.8370   11.5520    1.2110 C.3    51  ARG51       0.2205
     40  NE       -61.6660   12.3360    0.8300 N.pl3  51  ARG51      -0.0865
     41  CZ       -60.6520   12.6170    1.6420 C.cat  51  ARG51       0.5346
     42  NH1      -60.6530   12.1700    2.8910 N.pl3  51  ARG51       0.1354
     43  NH2      -59.6340   13.3490    1.2030 N.pl3  51  ARG51       0.1354
     44  N        -64.7180    5.7810    2.7150 N.3    83  GLU83      -0.1245
     45  CA       -63.4490    5.3880    3.3320 C.3    83  GLU83       0.1567
     46  C        -62.6930    4.3170    2.5390 C.2    83  GLU83       0.2260
     47  O        -61.4620    4.2550    2.5910 O.2    83  GLU83      -0.2867
     48  CB       -63.6590    4.9450    4.7850 C.3    83  GLU83       0.0388
     49  CG       -63.9570    6.1050    5.7470 C.3    83  GLU83       0.1160
     50  CD       -62.9250    7.2220    5.6620 C.2    83  GLU83       0.3649
     51  OE1      -61.7990    7.0630    6.1870 O.co2  83  GLU83      -0.2457
     52  OE2      -63.2380    8.2750    5.0720 O.co2  83  GLU83      -0.2457
     53  N        -61.0870    6.2980   -0.2690 N.3    86  GLN86      -0.1245
     54  CA       -59.9430    6.9230    0.3840 C.3    86  GLN86       0.1566
     55  C        -58.7860    5.9540    0.5610 C.2    86  GLN86       0.2260
     56  O        -57.6600    6.2890    0.2310 O.2    86  GLN86      -0.2867
     57  CB       -60.3520    7.5600    1.7280 C.3    86  GLN86       0.0367
     58  CG       -59.2100    8.2130    2.5220 C.3    86  GLN86       0.0905
     59  CD       -58.7080    9.5360    1.9430 C.2    86  GLN86       0.2608
     60  OE1      -58.8270    9.8090    0.7490 O.2    86  GLN86      -0.2717
     61  NE2      -58.1300   10.3660    2.8050 N.am   86  GLN86      -0.0878
     62  N        -55.2160    6.5490   -1.1150 N.3    90  LEU90      -0.1245
     63  CA       -54.0370    6.7450   -0.2580 C.3    90  LEU90       0.1561
     64  C        -52.9730    5.6620   -0.4540 C.2    90  LEU90       0.2260
     65  O        -51.7940    5.9830   -0.5910 O.2    90  LEU90      -0.2867
     66  CB       -54.4190    6.8710    1.2280 C.3    90  LEU90       0.0270
     67  CG       -55.2850    8.0730    1.6370 C.3    90  LEU90       0.0019
     68  CD1      -55.4190    8.1470    3.1430 C.3    90  LEU90       0.0001
     69  CD2      -54.7430    9.3830    1.0850 C.3    90  LEU90       0.0001
     70  N        -47.4700    7.2890    6.6320 N.3   102  ARG102     -0.1231
     71  CA       -48.8410    7.7590    6.4450 C.3   102  ARG102      0.1694
     72  C        -49.5850    7.6080    7.7660 C.2   102  ARG102      0.2591
     73  O        -49.5970    6.5210    8.3520 O.2   102  ARG102     -0.2718
     74  CB       -49.5360    6.9650    5.3290 C.3   102  ARG102      0.0321
     75  CG       -51.0730    6.9960    5.3120 C.3   102  ARG102      0.0489
     76  CD       -51.6410    8.2770    4.7120 C.3   102  ARG102      0.2205
     77  NE       -51.1750    8.5110    3.3460 N.pl3 102  ARG102     -0.0865
     78  CZ       -51.4510    9.6000    2.6340 C.cat 102  ARG102      0.5346
     79  NH1      -50.9790    9.7180    1.4040 N.pl3 102  ARG102      0.1354
     80  NH2      -52.2090   10.5700    3.1410 N.pl3 102  ARG102      0.1354
     81  N        -50.1860    8.7070    8.2280 N.am  103  ARG103     -0.1980
     82  CA       -50.9390    8.7730    9.4990 C.3   103  ARG103      0.1597
     83  C        -50.0990    8.3950   10.7340 C.2   103  ARG103      0.2287
     84  O        -50.6010    7.7810   11.6770 O.2   103  ARG103     -0.2864
     85  CB       -52.2440    7.9550    9.4240 C.3   103  ARG103      0.0334
     86  CG       -53.2490    8.4480    8.3780 C.3   103  ARG103      0.0492
     87  CD       -54.1130    7.3020    7.8600 C.3   103  ARG103      0.2205
     88  NE       -55.2920    7.7660    7.1260 N.pl3 103  ARG103     -0.0865
     89  CZ       -56.3110    6.9880    6.7570 C.cat 103  ARG103      0.5346
     90  NH1      -57.3370    7.5040    6.1010 N.pl3 103  ARG103      0.1354
     91  NH2      -56.3100    5.6930    7.0470 N.pl3 103  ARG103      0.1354
     92  N        -58.7630   16.5830   -7.5640 N.3   197  LYS197     -0.1231
     93  CA       -58.1530   15.5870   -6.6720 C.3   197  LYS197      0.1693
     94  C        -58.5930   15.7720   -5.2120 C.2   197  LYS197      0.2592
     95  O        -58.6670   14.8020   -4.4560 O.2   197  LYS197     -0.2718
     96  CB       -56.6200   15.6350   -6.7880 C.3   197  LYS197      0.0285
     97  CG       -55.8390   14.5840   -5.9840 C.3   197  LYS197      0.0035
     98  CD       -54.3980   15.0290   -5.7440 C.3   197  LYS197      0.0206
     99  CE       -54.3270   16.2670   -4.8460 C.3   197  LYS197      0.1093
    100  NZ       -52.9420   16.8190   -4.7480 N.3   197  LYS197     -0.1314
    101  N        -58.9010   17.0080   -4.8210 N.am  198  THR198     -0.1953
    102  CA       -59.2800   17.2680   -3.4330 C.3   198  THR198      0.1897
    103  C        -60.7000   17.8030   -3.2440 C.2   198  THR198      0.2313
    104  O        -61.5060   17.1300   -2.6240 O.2   198  THR198     -0.2863
    105  CB       -58.2410   18.1510   -2.6940 C.3   198  THR198      0.1794
    106  OG1      -56.9750   17.4840   -2.7080 O.3   198  THR198     -0.2208
    107  CG2      -58.6560   18.3740   -1.2380 C.3   198  THR198      0.0378
    108  N        -63.6820   15.5580   -4.5200 N.3   201  TYR201     -0.1227
    109  CA       -63.5840   14.2920   -3.8480 C.3   201  TYR201      0.1736
    110  C        -63.7700   14.3570   -2.3290 C.2   201  TYR201      0.2596
    111  O        -64.3690   13.4680   -1.7350 O.2   201  TYR201     -0.2718
    112  CB       -62.2100   13.7380   -4.1870 C.3   201  TYR201      0.0548
    113  CG       -61.7720   12.5760   -3.3580 C.ar  201  TYR201     -0.0200
    114  CD1      -62.5090   11.3950   -3.3430 C.ar  201  TYR201     -0.0009
    115  CD2      -60.5900   12.6380   -2.6260 C.ar  201  TYR201     -0.0009
    116  CE1      -62.1000   10.3210   -2.6000 C.ar  201  TYR201      0.0417
    117  CE2      -60.1620   11.5600   -1.8910 C.ar  201  TYR201      0.0417
    118  CZ       -60.9330   10.4100   -1.8810 C.ar  201  TYR201      0.1957
    119  OH       -60.5420    9.3360   -1.1470 O.3   201  TYR201     -0.2866
    120  N        -63.2520   15.4060   -1.7030 N.am  202  THR202     -0.1953
    121  CA       -63.1950   15.4550   -0.2430 C.3   202  THR202      0.1897
    122  C        -64.4460   16.0850    0.3480 C.2   202  THR202      0.2313
    123  O        -64.9440   15.6230    1.3830 O.2   202  THR202     -0.2863
    124  CB       -61.9070   16.1810    0.2410 C.3   202  THR202      0.1794
    125  OG1      -60.7670   15.5770   -0.3870 O.3   202  THR202     -0.2208
    126  CG2      -61.7450   16.1320    1.7530 C.3   202  THR202      0.0378
    127  N        -59.1590   23.7700    1.9140 N.3   235  PHE235     -0.1227
    128  CA       -58.7010   22.5820    2.6350 C.3   235  PHE235      0.1736
    129  C        -57.3740   22.0540    2.0820 C.2   235  PHE235      0.2595
    130  O        -56.4640   21.7370    2.8520 O.2   235  PHE235     -0.2718
    131  CB       -59.7860   21.4920    2.5880 C.3   235  PHE235      0.0547
    132  CG       -59.3680   20.1630    3.1680 C.ar  235  PHE235     -0.0202
    133  CD1      -59.4490   19.9260    4.5330 C.ar  235  PHE235     -0.0042
    134  CD2      -58.9350   19.1270    2.3380 C.ar  235  PHE235     -0.0042
    135  CE1      -59.0860   18.6820    5.0710 C.ar  235  PHE235     -0.0003
    136  CE2      -58.5610   17.8880    2.8670 C.ar  235  PHE235     -0.0003
    137  CZ       -58.6400   17.6680    4.2400 C.ar  235  PHE235     -0.0000
    138  N        -57.2700   21.9600    0.7590 N.am  236  GLN236     -0.1979
    139  CA       -56.0370   21.5240    0.1190 C.3   236  GLN236      0.1601
    140  C        -54.9020   22.5220    0.3170 C.2   236  GLN236      0.2287
    141  O        -53.7780   22.1230    0.6060 O.2   236  GLN236     -0.2864
    142  CB       -56.2430   21.2680   -1.3800 C.3   236  GLN236      0.0394
    143  CG       -55.0180   20.6670   -2.0860 C.3   236  GLN236      0.0908
    144  CD       -54.4840   19.4340   -1.3890 C.2   236  GLN236      0.2608
    145  OE1      -55.2380   18.5250   -1.0640 O.2   236  GLN236     -0.2717
    146  NE2      -53.1790   19.4020   -1.1460 N.am  236  GLN236     -0.0878
    147  N        -53.5600   22.0940    3.6590 N.3   239  ASP239     -0.1239
    148  CA       -52.7480   20.8900    3.7510 C.3   239  ASP239      0.1674
    149  C        -51.3970   21.0160    3.0630 C.2   239  ASP239      0.2266
    150  O        -50.4350   20.3980    3.5050 O.2   239  ASP239     -0.2867
    151  CB       -53.5200   19.6500    3.3010 C.3   239  ASP239      0.1410
    152  CG       -54.4290   19.1210    4.3990 C.2   239  ASP239      0.3668
    153  OD1      -55.2660   19.8990    4.9050 O.co2 239  ASP239     -0.2456
    154  OD2      -54.2950   17.9390    4.7770 O.co2 239  ASP239     -0.2456
    155  N        -43.7760   17.8530   -4.4130 N.3   263  LYS263     -0.1245
    156  CA       -45.1550   18.0680   -4.8430 C.3   263  LYS263      0.1561
    157  C        -45.3380   19.4620   -5.4330 C.2   263  LYS263      0.2260
    158  O        -44.8370   20.4450   -4.8850 O.2   263  LYS263     -0.2867
    159  CB       -46.0990   17.8570   -3.6620 C.3   263  LYS263      0.0271
    160  CG       -47.5260   17.5630   -4.0570 C.3   263  LYS263      0.0035
    161  CD       -48.3800   17.3540   -2.8250 C.3   263  LYS263      0.0206
    162  CE       -49.8370   17.2350   -3.2000 C.3   263  LYS263      0.1093
    163  NZ       -50.7130   17.3800   -2.0080 N.3   263  LYS263     -0.1314
@<TRIPOS>BOND
     1    92    93    1
     2    96    93    1
     3    96    97    1
     4    93    94    1
     5    97    98    1
     6    98    99    1
     7   157   158    2
     8   157   156    1
     9    94   101   am
    10    94    95    2
    11    99   100    1
    12   156   155    1
    13   156   159    1
    14   101   102    1
    15   108   109    1
    16   112   109    1
    17   112   113    1
    18   160   159    1
    19   160   161    1
    20   109   110    1
    21   102   103    1
    22   102   105    1
    23   113   114   ar
    24   113   115   ar
    25   114   116   ar
    26   103   104    2
    27   162   161    1
    28   162   163    1
    29   106   105    1
    30   105   107    1
    31   115   117   ar
    32   116   118   ar
    33   110   111    2
    34   110   120   am
    35   143   144    1
    36   143   142    1
    37   117   118   ar
    38   118   119    1
    39   120   121    1
    40   144   146   am
    41   144   145    2
    42   142   139    1
    43    62    63    1
    44    65    64    2
    45    64    63    1
    46   125   124    1
    47    53    54    1
    48    63    66    1
    49   121   124    1
    50   121   122    1
    51   139   140    1
    52   139   138    1
    53    56    55    2
    54   124   126    1
    55   140   141    2
    56   122   123    2
    57    54    55    1
    58    54    57    1
    59    60    59    2
    60   138   129   am
    61    40    39    1
    62    40    41    2
    63    69    67    1
    64    43    41    1
    65    39    38    1
    66    66    67    1
    67    79    78    1
    68    67    68    1
    69    41    42    1
    70    57    58    1
    71    38    37    1
    72   127   128    1
    73    59    58    1
    74    59    61   am
    75   129   128    1
    76   129   130    2
    77   134   136   ar
    78   134   132   ar
    79    37    34    1
    80    46    47    2
    81    46    45    1
    82   131   128    1
    83   131   132    1
    84    78    80    1
    85    78    77    2
    86    44    45    1
    87   136   137   ar
    88   149   150    2
    89   149   148    1
    90   132   133   ar
    91   151   148    1
    92   151   152    1
    93    45    48    1
    94    77    76    1
    95    36    35    2
    96    34    35    1
    97    34    33    1
    98   147   148    1
    99   137   135   ar
   100   152   154   ar
   101   152   153   ar
   102   133   135   ar
   103    76    75    1
   104    33    27   am
   105    48    49    1
   106    52    50   ar
   107    31    29    1
   108    75    74    1
   109    74    71    1
   110    28    27    2
   111    27    26    1
   112    50    49    1
   113    50    51   ar
   114    90    89    1
   115    30    29    1
   116    30    32    1
   117    29    26    1
   118    71    70    1
   119    71    72    1
   120    26    25    1
   121    89    91    1
   122    89    88    2
   123    88    87    1
   124    25    16   am
   125    72    81   am
   126    72    73    2
   127    87    86    1
   128    16    17    2
   129    16    15    1
   130    13    12    1
   131    81    82    1
   132    86    85    1
   133    15    14    1
   134    15    18    1
   135    23    22    1
   136    12    11    1
   137    14     7   am
   138    18    19    1
   139    20    21    1
   140    20    19    1
   141     1     2    1
   142    85    82    1
   143    82    83    1
   144    22    21    2
   145    22    24    1
   146     2     3    1
   147    11    10    1
   148     5     3   am
   149     5     6    1
   150     7     6    1
   151     7     8    2
   152     9     6    1
   153     9    10    1
   154     3     4    2
   155    83    84    2
