@<TRIPOS>MOLECULE
tmp/3qqvA01.pdb
 164 149 0 0 0
SMALL
GASTEIGER

@<TRIPOS>ATOM
      1  N        -64.8190   12.6490    4.7480 N.3    51  ARG51      -0.1245
      2  CA       -65.7150   12.3950    3.6250 C.3    51  ARG51       0.1563
      3  C        -67.0760   11.7920    4.0280 C.2    51  ARG51       0.2260
      4  O        -68.0910   12.3070    3.5870 O.2    51  ARG51      -0.2867
      5  CB       -65.0000   11.6250    2.5030 C.3    51  ARG51       0.0307
      6  CG       -63.8650   12.4240    1.9130 C.3    51  ARG51       0.0489
      7  CD       -62.8370   11.5520    1.2110 C.3    51  ARG51       0.2205
      8  NE       -61.6660   12.3360    0.8300 N.pl3  51  ARG51      -0.0865
      9  CZ       -60.6520   12.6170    1.6420 C.cat  51  ARG51       0.5346
     10  NH1      -60.6530   12.1700    2.8910 N.pl3  51  ARG51       0.1354
     11  NH2      -59.6340   13.3490    1.2030 N.pl3  51  ARG51       0.1354
     12  N        -61.0870    6.2980   -0.2690 N.3    86  GLN86      -0.1245
     13  CA       -59.9430    6.9230    0.3840 C.3    86  GLN86       0.1566
     14  C        -58.7860    5.9540    0.5610 C.2    86  GLN86       0.2260
     15  O        -57.6600    6.2890    0.2310 O.2    86  GLN86      -0.2867
     16  CB       -60.3520    7.5600    1.7280 C.3    86  GLN86       0.0367
     17  CG       -59.2100    8.2130    2.5220 C.3    86  GLN86       0.0905
     18  CD       -58.7080    9.5360    1.9430 C.2    86  GLN86       0.2608
     19  OE1      -58.8270    9.8090    0.7490 O.2    86  GLN86      -0.2717
     20  NE2      -58.1300   10.3660    2.8050 N.am   86  GLN86      -0.0878
     21  N        -57.1860    5.3640   -2.8950 N.3    89  ALA89      -0.1231
     22  CA       -56.4660    6.5890   -3.2160 C.3    89  ALA89       0.1694
     23  C        -55.1700    6.7600   -2.4330 C.2    89  ALA89       0.2591
     24  O        -54.1530    7.0840   -3.0260 O.2    89  ALA89      -0.2718
     25  CB       -57.3670    7.7990   -2.9870 C.3    89  ALA89       0.0304
     26  N        -55.2160    6.5490   -1.1150 N.am   90  LEU90      -0.1980
     27  CA       -54.0370    6.7450   -0.2580 C.3    90  LEU90       0.1596
     28  C        -52.9730    5.6620   -0.4540 C.2    90  LEU90       0.2287
     29  O        -51.7940    5.9830   -0.5910 O.2    90  LEU90      -0.2864
     30  CB       -54.4190    6.8710    1.2280 C.3    90  LEU90       0.0297
     31  CG       -55.2850    8.0730    1.6370 C.3    90  LEU90       0.0022
     32  CD1      -55.4190    8.1470    3.1430 C.3    90  LEU90       0.0001
     33  CD2      -54.7430    9.3830    1.0850 C.3    90  LEU90       0.0001
     34  N        -51.5350    6.3060   -3.9200 N.3    93  ASP93      -0.1225
     35  CA       -50.8130    7.5790   -3.8410 C.3    93  ASP93       0.1805
     36  C        -49.4520    7.4230   -3.1730 C.2    93  ASP93       0.2597
     37  O        -48.4780    8.0370   -3.6060 O.2    93  ASP93      -0.2718
     38  CB       -51.6350    8.6060   -3.0660 C.3    93  ASP93       0.1424
     39  CG       -51.0650    9.9930   -3.1510 C.2    93  ASP93       0.3668
     40  OD1      -50.5100   10.4560   -2.1330 O.co2  93  ASP93      -0.2456
     41  OD2      -51.1690   10.6210   -4.2290 O.co2  93  ASP93      -0.2456
     42  N        -49.4000    6.5990   -2.1260 N.am   94  ASP94      -0.1974
     43  CA       -48.1800    6.3800   -1.3630 C.3    94  ASP94       0.1709
     44  C        -47.1410    5.5710   -2.1230 C.2    94  ASP94       0.2293
     45  O        -45.9460    5.7630   -1.9020 O.2    94  ASP94      -0.2864
     46  CB       -48.4770    5.7410    0.0000 C.3    94  ASP94       0.1436
     47  CG       -49.1040    6.7270    0.9900 C.2    94  ASP94       0.3671
     48  OD1      -49.7980    6.2610    1.9120 O.co2  94  ASP94      -0.2456
     49  OD2      -48.9130    7.9630    0.8500 O.co2  94  ASP94      -0.2456
     50  N        -45.9620    8.3780   -4.8650 N.3    97  ASP97      -0.1239
     51  CA       -45.1320    9.4100   -4.2380 C.3    97  ASP97       0.1674
     52  C        -43.9600    8.8260   -3.4370 C.2    97  ASP97       0.2266
     53  O        -43.1290    9.5790   -2.9070 O.2    97  ASP97      -0.2867
     54  CB       -45.9930   10.3290   -3.3630 C.3    97  ASP97       0.1410
     55  CG       -46.9790   11.1580   -4.1760 C.2    97  ASP97       0.3668
     56  OD1      -46.6090   11.6400   -5.2700 O.co2  97  ASP97      -0.2456
     57  OD2      -48.1310   11.3350   -3.7220 O.co2  97  ASP97      -0.2456
     58  N        -47.4700    7.2890    6.6320 N.3   102  ARG102     -0.1245
     59  CA       -48.8410    7.7590    6.4450 C.3   102  ARG102      0.1563
     60  C        -49.5850    7.6080    7.7660 C.2   102  ARG102      0.2260
     61  O        -49.5970    6.5210    8.3520 O.2   102  ARG102     -0.2867
     62  CB       -49.5360    6.9650    5.3290 C.3   102  ARG102      0.0307
     63  CG       -51.0730    6.9960    5.3120 C.3   102  ARG102      0.0489
     64  CD       -51.6410    8.2770    4.7120 C.3   102  ARG102      0.2205
     65  NE       -51.1750    8.5110    3.3460 N.pl3 102  ARG102     -0.0865
     66  CZ       -51.4510    9.6000    2.6340 C.cat 102  ARG102      0.5346
     67  NH1      -50.9790    9.7180    1.4040 N.pl3 102  ARG102      0.1354
     68  NH2      -52.2090   10.5700    3.1410 N.pl3 102  ARG102      0.1354
     69  N        -61.4370   12.2830   -8.8750 N.3   169  VAL169     -0.1245
     70  CA       -60.2990   11.9670   -8.0060 C.3   169  VAL169      0.1561
     71  C        -59.1140   11.2970   -8.7340 C.2   169  VAL169      0.2260
     72  O        -57.9610   11.7050   -8.5470 O.2   169  VAL169     -0.2867
     73  CB       -60.7030   11.1830   -6.7180 C.3   169  VAL169      0.0252
     74  CG1      -61.1070    9.7370   -7.0090 C.3   169  VAL169      0.0019
     75  CG2      -59.5640   11.2000   -5.7390 C.3   169  VAL169      0.0019
     76  N        -55.4980   12.9550   -9.6350 N.3   173  GLN173     -0.1245
     77  CA       -54.2420   12.2540   -9.3450 C.3   173  GLN173      0.1566
     78  C        -53.3340   12.0580  -10.5610 C.2   173  GLN173      0.2260
     79  O        -52.1070   12.0260  -10.4220 O.2   173  GLN173     -0.2867
     80  CB       -54.5160   10.9000   -8.7160 C.3   173  GLN173      0.0367
     81  CG       -54.8690   10.9790   -7.2720 C.3   173  GLN173      0.0905
     82  CD       -54.4180    9.7660   -6.5140 C.2   173  GLN173      0.2608
     83  OE1      -55.2110    8.8640   -6.2440 O.2   173  GLN173     -0.2717
     84  NE2      -53.1330    9.7230   -6.1670 N.am  173  GLN173     -0.0878
     85  N        -51.8370   15.4900  -11.3230 N.3   176  ASP176     -0.1239
     86  CA       -50.8380   15.7710  -10.2970 C.3   176  ASP176      0.1674
     87  C        -49.4510   15.2570  -10.6820 C.2   176  ASP176      0.2266
     88  O        -48.4630   15.9950  -10.5890 O.2   176  ASP176     -0.2867
     89  CB       -51.2620   15.1670   -8.9510 C.3   176  ASP176      0.1410
     90  CG       -50.6510   15.8940   -7.7600 C.2   176  ASP176      0.3668
     91  OD1      -50.4380   17.1230   -7.8460 O.co2 176  ASP176     -0.2456
     92  OD2      -50.3900   15.2390   -6.7280 O.co2 176  ASP176     -0.2456
     93  N        -58.7630   16.5830   -7.5640 N.3   197  LYS197     -0.1231
     94  CA       -58.1530   15.5870   -6.6720 C.3   197  LYS197      0.1693
     95  C        -58.5930   15.7720   -5.2120 C.2   197  LYS197      0.2592
     96  O        -58.6670   14.8020   -4.4560 O.2   197  LYS197     -0.2718
     97  CB       -56.6200   15.6350   -6.7880 C.3   197  LYS197      0.0285
     98  CG       -55.8390   14.5840   -5.9840 C.3   197  LYS197      0.0035
     99  CD       -54.3980   15.0290   -5.7440 C.3   197  LYS197      0.0206
    100  CE       -54.3270   16.2670   -4.8460 C.3   197  LYS197      0.1093
    101  NZ       -52.9420   16.8190   -4.7480 N.3   197  LYS197     -0.1314
    102  N        -58.9010   17.0080   -4.8210 N.am  198  THR198     -0.1953
    103  CA       -59.2800   17.2680   -3.4330 C.3   198  THR198      0.1897
    104  C        -60.7000   17.8030   -3.2440 C.2   198  THR198      0.2313
    105  O        -61.5060   17.1300   -2.6240 O.2   198  THR198     -0.2863
    106  CB       -58.2410   18.1510   -2.6940 C.3   198  THR198      0.1794
    107  OG1      -56.9750   17.4840   -2.7080 O.3   198  THR198     -0.2208
    108  CG2      -58.6560   18.3740   -1.2380 C.3   198  THR198      0.0378
    109  N        -63.6820   15.5580   -4.5200 N.3   201  TYR201     -0.1241
    110  CA       -63.5840   14.2920   -3.8480 C.3   201  TYR201      0.1605
    111  C        -63.7700   14.3570   -2.3290 C.2   201  TYR201      0.2264
    112  O        -64.3690   13.4680   -1.7350 O.2   201  TYR201     -0.2867
    113  CB       -62.2100   13.7380   -4.1870 C.3   201  TYR201      0.0534
    114  CG       -61.7720   12.5760   -3.3580 C.ar  201  TYR201     -0.0201
    115  CD1      -62.5090   11.3950   -3.3430 C.ar  201  TYR201     -0.0009
    116  CD2      -60.5900   12.6380   -2.6260 C.ar  201  TYR201     -0.0009
    117  CE1      -62.1000   10.3210   -2.6000 C.ar  201  TYR201      0.0417
    118  CE2      -60.1620   11.5600   -1.8910 C.ar  201  TYR201      0.0417
    119  CZ       -60.9330   10.4100   -1.8810 C.ar  201  TYR201      0.1957
    120  OH       -60.5420    9.3360   -1.1470 O.3   201  TYR201     -0.2866
    121  N        -57.2700   21.9600    0.7590 N.3   236  GLN236     -0.1245
    122  CA       -56.0370   21.5240    0.1190 C.3   236  GLN236      0.1566
    123  C        -54.9020   22.5220    0.3170 C.2   236  GLN236      0.2260
    124  O        -53.7780   22.1230    0.6060 O.2   236  GLN236     -0.2867
    125  CB       -56.2430   21.2680   -1.3800 C.3   236  GLN236      0.0367
    126  CG       -55.0180   20.6670   -2.0860 C.3   236  GLN236      0.0905
    127  CD       -54.4840   19.4340   -1.3890 C.2   236  GLN236      0.2608
    128  OE1      -55.2380   18.5250   -1.0640 O.2   236  GLN236     -0.2717
    129  NE2      -53.1790   19.4020   -1.1460 N.am  236  GLN236     -0.0878
    130  N        -47.0100   12.6310    8.5510 N.3   253  LYS253     -0.1245
    131  CA       -45.7760   12.5080    7.7830 C.3   253  LYS253      0.1561
    132  C        -44.6140   13.2020    8.5040 C.2   253  LYS253      0.2260
    133  O        -44.8520   13.9650    9.4350 O.2   253  LYS253     -0.2867
    134  CB       -45.9890   13.1330    6.3990 C.3   253  LYS253      0.0271
    135  CG       -47.1580   12.5500    5.6170 C.3   253  LYS253      0.0035
    136  CD       -47.2460   13.1970    4.2570 C.3   253  LYS253      0.0206
    137  CE       -48.4350   12.6930    3.4850 C.3   253  LYS253      0.1093
    138  NZ       -48.0870   12.5820    2.0420 N.3   253  LYS253     -0.1314
    139  N        -43.5470   17.1000    1.7280 N.3   258  ASP258     -0.1239
    140  CA       -43.9130   17.6380    0.4120 C.3   258  ASP258      0.1674
    141  C        -42.7080   18.1350   -0.3890 C.2   258  ASP258      0.2266
    142  O        -42.7280   18.0880   -1.6210 O.2   258  ASP258     -0.2867
    143  CB       -44.9410   18.7660    0.5400 C.3   258  ASP258      0.1410
    144  CG       -46.3350   18.2660    0.8980 C.2   258  ASP258      0.3668
    145  OD1      -46.4950   17.0800    1.2750 O.co2 258  ASP258     -0.2456
    146  OD2      -47.2790   19.0810    0.8020 O.co2 258  ASP258     -0.2456
    147  N        -40.9430   14.7550   -1.4670 N.3   261  GLU261     -0.1245
    148  CA       -41.7320   14.2350   -2.5880 C.3   261  GLU261      0.1567
    149  C        -41.6850   15.1490   -3.8130 C.2   261  GLU261      0.2260
    150  O        -41.8370   14.6840   -4.9430 O.2   261  GLU261     -0.2867
    151  CB       -43.1890   14.0180   -2.1650 C.3   261  GLU261      0.0388
    152  CG       -43.3930   12.9410   -1.0970 C.3   261  GLU261      0.1160
    153  CD       -44.6390   13.1720   -0.2450 C.2   261  GLU261      0.3649
    154  OE1      -45.2360   12.1780    0.2190 O.co2 261  GLU261     -0.2457
    155  OE2      -45.0250   14.3440   -0.0330 O.co2 261  GLU261     -0.2457
    156  N        -43.7760   17.8530   -4.4130 N.3   263  LYS263     -0.1245
    157  CA       -45.1550   18.0680   -4.8430 C.3   263  LYS263      0.1561
    158  C        -45.3380   19.4620   -5.4330 C.2   263  LYS263      0.2260
    159  O        -44.8370   20.4450   -4.8850 O.2   263  LYS263     -0.2867
    160  CB       -46.0990   17.8570   -3.6620 C.3   263  LYS263      0.0271
    161  CG       -47.5260   17.5630   -4.0570 C.3   263  LYS263      0.0035
    162  CD       -48.3800   17.3540   -2.8250 C.3   263  LYS263      0.0206
    163  CE       -49.8370   17.2350   -3.2000 C.3   263  LYS263      0.1093
    164  NZ       -50.7130   17.3800   -2.0080 N.3   263  LYS263     -0.1314
@<TRIPOS>BOND
     1    85    86    1
     2    87    88    2
     3    87    86    1
     4    78    79    2
     5    78    77    1
     6    86    89    1
     7    76    77    1
     8    77    80    1
     9    89    90    1
    10    69    70    1
    11    71    72    2
    12    71    70    1
    13    80    81    1
    14    70    73    1
    15    91    90   ar
    16    90    92   ar
    17    93    94    1
    18    81    82    1
    19    74    73    1
    20    97    94    1
    21    97    98    1
    22    73    75    1
    23    94    95    1
    24    82    83    2
    25    82    84   am
    26    98    99    1
    27    99   100    1
    28   158   159    2
    29   158   157    1
    30    56    55   ar
    31    95   102   am
    32    95    96    2
    33   150   149    2
    34    50    51    1
    35   100   101    1
    36   157   156    1
    37   157   160    1
    38   102   103    1
    39   109   110    1
    40    51    52    1
    41    51    54    1
    42    41    39   ar
    43   113   110    1
    44   113   114    1
    45    55    57   ar
    46    55    54    1
    47   161   160    1
    48   161   162    1
    49    34    35    1
    50   110   111    1
    51    35    36    1
    52    35    38    1
    53   149   148    1
    54    37    36    2
    55    52    53    2
    56   103   104    1
    57   103   106    1
    58   114   115   ar
    59   114   116   ar
    60   115   117   ar
    61   104   105    2
    62    22    25    1
    63    22    21    1
    64    22    23    1
    65   163   162    1
    66   163   164    1
    67    36    42   am
    68    39    38    1
    69    39    40   ar
    70    24    23    2
    71   107   106    1
    72   106   108    1
    73   116   118   ar
    74   117   119   ar
    75   148   151    1
    76   148   147    1
    77    23    26   am
    78   111   112    2
    79   151   152    1
    80    42    43    1
    81    44    45    2
    82    44    43    1
    83   126   127    1
    84   126   125    1
    85   118   119   ar
    86   119   120    1
    87   142   141    2
    88   127   129   am
    89   127   128    2
    90   125   122    1
    91    43    46    1
    92    26    27    1
    93   152   153    1
    94    29    28    2
    95    28    27    1
    96   141   140    1
    97    12    13    1
    98    27    30    1
    99   153   155   ar
   100   153   154   ar
   101    46    47    1
   102   122   123    1
   103   122   121    1
   104    15    14    2
   105   123   124    2
   106    13    14    1
   107    13    16    1
   108   140   143    1
   109   140   139    1
   110   143   144    1
   111    19    18    2
   112   146   144   ar
   113     8     7    1
   114     8     9    2
   115    49    47   ar
   116   144   145   ar
   117    47    48   ar
   118    33    31    1
   119    11     9    1
   120     7     6    1
   121    30    31    1
   122    67    66    1
   123    31    32    1
   124     9    10    1
   125    16    17    1
   126     6     5    1
   127    18    17    1
   128    18    20   am
   129   138   137    1
   130     5     2    1
   131    66    68    1
   132    66    65    2
   133    65    64    1
   134   137   136    1
   135     4     3    2
   136     2     3    1
   137     2     1    1
   138   136   135    1
   139    64    63    1
   140    63    62    1
   141    62    59    1
   142   135   134    1
   143   134   131    1
   144    59    58    1
   145    59    60    1
   146    60    61    2
   147   131   132    1
   148   131   130    1
   149   132   133    2
