@<TRIPOS>MOLECULE
tmp/3qraA00.pdb
 87 85 0 0 0
SMALL
GASTEIGER

@<TRIPOS>ATOM
      1  N         12.6530    5.6120   21.9990 N.3     7  ILE7       -0.1231
      2  CA        13.3610    6.6440   22.7300 C.3     7  ILE7        0.1692
      3  C         13.8360    7.6610   21.7070 C.2     7  ILE7        0.2593
      4  O         14.3850    7.2920   20.6550 O.2     7  ILE7       -0.2718
      5  CB        14.5550    6.0450   23.5330 C.3     7  ILE7        0.0266
      6  CG1       15.3310    7.1350   24.2790 C.3     7  ILE7        0.0019
      7  CG2       15.4870    5.2430   22.6210 C.3     7  ILE7        0.0020
      8  CD1       14.5200    7.8260   25.3520 C.3     7  ILE7        0.0001
      9  N         13.6030    8.9340   22.0080 N.am    8  SER8       -0.1938
     10  CA        14.0300   10.0000   21.1120 C.3     8  SER8        0.2055
     11  C         14.6120   11.1990   21.8460 C.2     8  SER8        0.2643
     12  O         14.2390   11.4910   22.9920 O.2     8  SER8       -0.2714
     13  CB        12.8820   10.4570   20.2050 C.3     8  SER8        0.2130
     14  OG        11.7450   10.8980   20.9450 O.3     8  SER8       -0.2179
     15  N         15.5290   11.8830   21.1620 N.am    9  ILE9       -0.1963
     16  CA        16.0290   13.1650   21.6340 C.3     9  ILE9        0.1727
     17  C         15.7740   14.1910   20.5440 C.2     9  ILE9        0.2617
     18  O         15.8030   13.8680   19.3550 O.2     9  ILE9       -0.2715
     19  CB        17.5450   13.1230   22.0130 C.3     9  ILE9        0.0290
     20  CG1       17.9290   14.3770   22.8020 C.3     9  ILE9        0.0022
     21  CG2       18.4330   12.9540   20.7730 C.3     9  ILE9        0.0023
     22  CD1       19.3260   14.3080   23.4240 C.3     9  ILE9        0.0001
     23  N         15.5130   15.4280   20.9420 N.am   10  GLY10      -0.1940
     24  CA        15.1490   16.4310   19.9630 C.3    10  GLY10       0.2014
     25  C         15.3790   17.8580   20.3980 C.2    10  GLY10       0.2638
     26  O         15.6190   18.1420   21.5750 O.2    10  GLY10      -0.2714
     27  N         15.2930   18.7480   19.4180 N.am   11  TYR11      -0.1973
     28  CA        15.3400   20.1800   19.6390 C.3    11  TYR11       0.1639
     29  C         14.0550   20.6080   20.3180 C.2    11  TYR11       0.2290
     30  O         12.9760   20.0560   20.0390 O.2    11  TYR11      -0.2864
     31  CB        15.4300   20.9050   18.3020 C.3    11  TYR11       0.0560
     32  CG        16.6420   20.5690   17.4710 C.ar   11  TYR11      -0.0198
     33  CD1       17.8450   21.2410   17.6660 C.ar   11  TYR11      -0.0009
     34  CD2       16.5770   19.5980   16.4710 C.ar   11  TYR11      -0.0009
     35  CE1       18.9540   20.9500   16.8980 C.ar   11  TYR11       0.0417
     36  CE2       17.6830   19.2950   15.7020 C.ar   11  TYR11       0.0417
     37  CZ        18.8660   19.9740   15.9220 C.ar   11  TYR11       0.1957
     38  OH        19.9640   19.6840   15.1620 O.3    11  TYR11      -0.2866
     39  N         13.5460   14.9920   25.6470 N.3    32  LEU32      -0.1245
     40  CA        13.6640   13.5330   25.6190 C.3    32  LEU32       0.1561
     41  C         12.2530   12.9590   25.7100 C.2    32  LEU32       0.2260
     42  O         11.4650   13.3900   26.5580 O.2    32  LEU32      -0.2867
     43  CB        14.4830   13.0410   26.8070 C.3    32  LEU32       0.0270
     44  CG        15.9470   13.4950   26.8240 C.3    32  LEU32       0.0019
     45  CD1       16.5610   13.3430   28.2150 C.3    32  LEU32       0.0001
     46  CD2       16.7520   12.7100   25.7910 C.3    32  LEU32       0.0001
     47  N         10.6640    9.4400   14.3490 N.3   127  ILE127     -0.1245
     48  CA        10.7210   10.8790   14.2210 C.3   127  ILE127      0.1561
     49  C          9.5700   11.3990   15.0570 C.2   127  ILE127      0.2260
     50  O          8.4440   10.9330   14.9220 O.2   127  ILE127     -0.2867
     51  CB        10.5660   11.3200   12.7600 C.3   127  ILE127      0.0252
     52  CG1       11.6950   10.7110   11.9160 C.3   127  ILE127      0.0019
     53  CG2       10.5580   12.8550   12.6640 C.3   127  ILE127      0.0019
     54  CD1       11.6430   11.0920   10.4640 C.3   127  ILE127      0.0001
     55  N         11.0730   18.7800   18.1400 N.3   146  LEU146     -0.1231
     56  CA        11.2990   17.9350   16.9680 C.3   146  LEU146      0.1693
     57  C         12.5130   17.0560   17.2270 C.2   146  LEU146      0.2593
     58  O         13.6190   17.5610   17.4020 O.2   146  LEU146     -0.2718
     59  CB        11.5440   18.7880   15.7290 C.3   146  LEU146      0.0284
     60  CG        11.9530   18.0350   14.4550 C.3   146  LEU146      0.0019
     61  CD1       10.8340   17.1130   13.9790 C.3   146  LEU146      0.0001
     62  CD2       12.3400   19.0170   13.3510 C.3   146  LEU146      0.0001
     63  N         12.3050   15.7440   17.2410 N.am  147  GLY147     -0.1942
     64  CA        13.3430   14.8190   17.6450 C.3   147  GLY147      0.2014
     65  C         13.3510   13.5310   16.8500 C.2   147  GLY147      0.2639
     66  O         12.5650   13.3400   15.9290 O.2   147  GLY147     -0.2714
     67  N         14.2720   12.6510   17.2050 N.am  148  ALA148     -0.1963
     68  CA        14.4310   11.3920   16.4960 C.3   148  ALA148      0.1728
     69  C         15.0940   10.3850   17.4120 C.2   148  ALA148      0.2617
     70  O         15.7220   10.7430   18.4190 O.2   148  ALA148     -0.2715
     71  CB        15.2590   11.5790   15.2120 C.3   148  ALA148      0.0334
     72  N         14.9470    9.1140   17.0600 N.am  149  GLY149     -0.1940
     73  CA        15.5270    8.0600   17.8570 C.3   149  GLY149      0.2014
     74  C         15.1170    6.6980   17.3380 C.2   149  GLY149      0.2638
     75  O         14.8670    6.5240   16.1460 O.2   149  GLY149     -0.2714
     76  N         15.0210    5.7350   18.2430 N.am  150  TYR150     -0.1973
     77  CA        14.8670    4.3520   17.8300 C.3   150  TYR150      0.1639
     78  C         13.7240    3.6780   18.5370 C.2   150  TYR150      0.2290
     79  O         13.3220    4.1040   19.6120 O.2   150  TYR150     -0.2864
     80  CB        16.1430    3.5870   18.1150 C.3   150  TYR150      0.0560
     81  CG        17.3290    4.2120   17.4430 C.ar  150  TYR150     -0.0198
     82  CD1       17.5890    3.9770   16.0960 C.ar  150  TYR150     -0.0009
     83  CD2       18.1770    5.0570   18.1430 C.ar  150  TYR150     -0.0009
     84  CE1       18.6790    4.5520   15.4690 C.ar  150  TYR150      0.0417
     85  CE2       19.2670    5.6420   17.5240 C.ar  150  TYR150      0.0417
     86  CZ        19.5130    5.3870   16.1900 C.ar  150  TYR150      0.1957
     87  OH        20.5990    5.9700   15.5750 O.3   150  TYR150     -0.2866
@<TRIPOS>BOND
     1    54    52    1
     2    52    51    1
     3    53    51    1
     4    51    48    1
     5    62    60    1
     6    61    60    1
     7    48    47    1
     8    48    49    1
     9    60    59    1
    10    50    49    2
    11    38    37    1
    12    71    68    1
    13    84    82   ar
    14    84    86   ar
    15    87    86    1
    16    36    37   ar
    17    36    34   ar
    18    59    56    1
    19    37    35   ar
    20    66    65    2
    21    82    81   ar
    22    75    74    2
    23    86    85   ar
    24    34    32   ar
    25    68    67    1
    26    68    69    1
    27    65    67   am
    28    65    64    1
    29    35    33   ar
    30    56    57    1
    31    56    55    1
    32    72    69   am
    33    72    73    1
    34    57    63   am
    35    57    58    2
    36    63    64    1
    37    74    73    1
    38    74    76   am
    39    69    70    2
    40    81    80    1
    41    81    83   ar
    42    32    33   ar
    43    32    31    1
    44    85    83   ar
    45    77    80    1
    46    77    76    1
    47    77    78    1
    48    31    28    1
    49    78    79    2
    50    18    17    2
    51    27    28    1
    52    27    25   am
    53    28    29    1
    54    24    25    1
    55    24    23    1
    56    30    29    2
    57    13    14    1
    58    13    10    1
    59    25    26    2
    60    17    23   am
    61    17    16    1
    62     4     3    2
    63    21    19    1
    64    10    11    1
    65    10     9    1
    66    15    16    1
    67    15    11   am
    68    16    19    1
    69     3     9   am
    70     3     2    1
    71    11    12    2
    72     1     2    1
    73    19    20    1
    74     7     5    1
    75     2     5    1
    76    20    22    1
    77     5     6    1
    78     6     8    1
    79    40    39    1
    80    40    41    1
    81    40    43    1
    82    41    42    2
    83    46    44    1
    84    43    44    1
    85    44    45    1
