@<TRIPOS>MOLECULE
tmp/3qraA02.pdb
 78 74 0 0 0
SMALL
GASTEIGER

@<TRIPOS>ATOM
      1  N         16.2920   33.1940   31.5840 N.3    65  PHE65      -0.1241
      2  CA        15.0240   32.4780   31.5620 C.3    65  PHE65       0.1605
      3  C         15.2810   30.9930   31.4530 C.2    65  PHE65       0.2264
      4  O         16.1760   30.5610   30.7160 O.2    65  PHE65      -0.2867
      5  CB        14.1560   32.9290   30.3830 C.3    65  PHE65       0.0534
      6  CG        12.9060   32.1050   30.2010 C.ar   65  PHE65      -0.0203
      7  CD1       11.7520   32.3970   30.9220 C.ar   65  PHE65      -0.0042
      8  CD2       12.8840   31.0290   29.3160 C.ar   65  PHE65      -0.0042
      9  CE1       10.6000   31.6270   30.7660 C.ar   65  PHE65      -0.0003
     10  CE2       11.7340   30.2660   29.1490 C.ar   65  PHE65      -0.0003
     11  CZ        10.5940   30.5700   29.8740 C.ar   65  PHE65      -0.0000
     12  N          8.6780   27.5530   35.1450 N.3    93  GLY93      -0.1210
     13  CA         9.4440   28.6490   34.5780 C.3    93  GLY93       0.1956
     14  C         10.1170   29.4890   35.6380 C.2    93  GLY93       0.2612
     15  O          9.6040   29.6670   36.7460 O.2    93  GLY93      -0.2717
     16  N         11.2880   30.0070   35.2930 N.am   94  LYS94      -0.1965
     17  CA        12.0060   30.9230   36.1600 C.3    94  LYS94       0.1728
     18  C         12.6180   32.0390   35.3260 C.2    94  LYS94       0.2616
     19  O         13.2190   31.7900   34.2810 O.2    94  LYS94      -0.2715
     20  CB        13.0940   30.1920   36.9490 C.3    94  LYS94       0.0311
     21  CG        13.9490   31.1380   37.8220 C.3    94  LYS94       0.0038
     22  CD        14.7120   30.3400   38.8770 C.3    94  LYS94       0.0206
     23  CE        15.2950   31.2340   39.9610 C.3    94  LYS94       0.1093
     24  NZ        16.4030   32.0830   39.4520 N.3    94  LYS94      -0.1314
     25  N         12.4380   33.2690   35.7870 N.am   95  ALA95      -0.1977
     26  CA        13.0080   34.4340   35.1210 C.3    95  ALA95       0.1597
     27  C         13.7380   35.2900   36.1420 C.2    95  ALA95       0.2287
     28  O         13.2050   35.5810   37.2120 O.2    95  ALA95      -0.2864
     29  CB        11.9120   35.2450   34.4340 C.3    95  ALA95       0.0319
     30  N         11.5950   35.4960   39.6200 N.3   106  ARG106     -0.1231
     31  CA        10.2810   34.9290   39.8760 C.3   106  ARG106      0.1694
     32  C         10.2450   33.5410   39.2750 C.2   106  ARG106      0.2593
     33  O         10.8340   33.2950   38.2160 O.2   106  ARG106     -0.2718
     34  CB         9.1900   35.7890   39.2370 C.3   106  ARG106      0.0321
     35  CG         9.0130   37.1560   39.8710 C.3   106  ARG106      0.0489
     36  CD         8.4830   37.0040   41.2790 C.3   106  ARG106      0.2205
     37  NE         8.4630   38.2850   41.9620 N.pl3 106  ARG106     -0.0865
     38  CZ         9.4670   38.9400   42.5350 C.cat 106  ARG106      0.5346
     39  NH1       10.7020   38.4560   42.6740 N.pl3 106  ARG106      0.1354
     40  NH2        9.2140   40.1830   42.9900 N.pl3 106  ARG106      0.1354
     41  N          9.5480   32.6230   39.9360 N.am  107  SER107     -0.1938
     42  CA         9.3930   31.2990   39.3630 C.3   107  SER107      0.2055
     43  C          7.9860   30.7760   39.6400 C.2   107  SER107      0.2642
     44  O          7.3300   31.1860   40.6010 O.2   107  SER107     -0.2714
     45  CB        10.4820   30.3420   39.8730 C.3   107  SER107      0.2130
     46  OG        10.1180   29.7350   41.0960 O.3   107  SER107     -0.2179
     47  N          7.5230   29.8970   38.7690 N.am  108  LYS108     -0.1977
     48  CA         6.1510   29.4170   38.8470 C.3   108  LYS108      0.1596
     49  C          6.0380   28.0270   38.2530 C.2   108  LYS108      0.2287
     50  O          6.6730   27.7160   37.2450 O.2   108  LYS108     -0.2864
     51  CB         5.2120   30.3850   38.1090 C.3   108  LYS108      0.0298
     52  CG         3.7670   29.9030   37.9780 C.3   108  LYS108      0.0038
     53  CD         3.0320   29.9690   39.3160 C.3   108  LYS108      0.0206
     54  CE         1.5770   29.5220   39.1680 C.3   108  LYS108      0.1093
     55  NZ         0.8390   29.6000   40.4590 N.3   108  LYS108     -0.1314
     56  N          1.9160   30.3380   33.0740 N.3   136  LEU136     -0.1231
     57  CA         2.5130   30.5590   34.3800 C.3   136  LEU136      0.1693
     58  C          2.1100   31.9440   34.8560 C.2   136  LEU136      0.2592
     59  O          2.7890   32.9360   34.5710 O.2   136  LEU136     -0.2718
     60  CB         4.0400   30.4430   34.2850 C.3   136  LEU136      0.0284
     61  CG         4.5910   29.1720   33.6230 C.3   136  LEU136      0.0019
     62  CD1        6.1010   29.2940   33.4110 C.3   136  LEU136      0.0001
     63  CD2        4.2540   27.9250   34.4440 C.3   136  LEU136      0.0001
     64  N          0.9930   32.0010   35.5760 N.am  137  ASP137     -0.1974
     65  CA         0.3410   33.2640   35.8990 C.3   137  ASP137      0.1709
     66  C          0.0860   34.0500   34.6160 C.2   137  ASP137      0.2293
     67  O         -0.6860   33.6130   33.7730 O.2   137  ASP137     -0.2864
     68  CB         1.1550   34.0760   36.9080 C.3   137  ASP137      0.1436
     69  CG         1.1930   33.4270   38.2820 C.2   137  ASP137      0.3671
     70  OD1        0.2210   32.7310   38.6460 O.co2 137  ASP137     -0.2456
     71  OD2        2.1980   33.6120   38.9980 O.co2 137  ASP137     -0.2456
     72  N          2.3500   34.7070   32.2820 N.3   139  VAL139     -0.1245
     73  CA         3.3480   34.3980   31.2620 C.3   139  VAL139      0.1561
     74  C          2.9930   33.1250   30.5040 C.2   139  VAL139      0.2260
     75  O          2.9110   32.0630   31.0850 O.2   139  VAL139     -0.2867
     76  CB         4.7470   34.2220   31.8920 C.3   139  VAL139      0.0252
     77  CG1        5.7770   33.8440   30.8190 C.3   139  VAL139      0.0019
     78  CG2        5.1660   35.4940   32.6430 C.3   139  VAL139      0.0019
@<TRIPOS>BOND
     1    10     8   ar
     2    10    11   ar
     3     8     6   ar
     4    11     9   ar
     5     6     5    1
     6     6     7   ar
     7     5     2    1
     8    74    75    2
     9    74    73    1
    10     4     3    2
    11     9     7   ar
    12    77    76    1
    13    73    76    1
    14    73    72    1
    15     3     2    1
    16     2     1    1
    17    76    78    1
    18    56    57    1
    19    62    61    1
    20    61    60    1
    21    61    63    1
    22    67    66    2
    23    19    18    2
    24    60    57    1
    25    57    58    1
    26    29    26    1
    27    59    58    2
    28    13    12    1
    29    13    14    1
    30    66    65    1
    31    58    64   am
    32    26    25    1
    33    26    27    1
    34    16    14   am
    35    16    17    1
    36    18    25   am
    37    18    17    1
    38    64    65    1
    39    14    15    2
    40    65    68    1
    41    27    28    2
    42    17    20    1
    43    68    69    1
    44    20    21    1
    45    50    49    2
    46    21    22    1
    47    52    51    1
    48    52    53    1
    49    51    48    1
    50    33    32    2
    51    49    48    1
    52    69    70   ar
    53    69    71   ar
    54    47    48    1
    55    47    43   am
    56    22    23    1
    57    54    53    1
    58    54    55    1
    59    34    35    1
    60    34    31    1
    61    32    31    1
    62    32    41   am
    63    42    43    1
    64    42    45    1
    65    42    41    1
    66    24    23    1
    67    30    31    1
    68    43    44    2
    69    35    36    1
    70    45    46    1
    71    36    37    1
    72    37    38    2
    73    38    39    1
    74    38    40    1
