@<TRIPOS>MOLECULE
tmp/3qraA03.pdb
 77 75 0 0 0
SMALL
GASTEIGER

@<TRIPOS>ATOM
      1  N         12.6530    5.6120   21.9990 N.3     7  ILE7       -0.1245
      2  CA        13.3610    6.6440   22.7300 C.3     7  ILE7        0.1561
      3  C         13.8360    7.6610   21.7070 C.2     7  ILE7        0.2260
      4  O         14.3850    7.2920   20.6550 O.2     7  ILE7       -0.2867
      5  CB        14.5550    6.0450   23.5330 C.3     7  ILE7        0.0252
      6  CG1       15.3310    7.1350   24.2790 C.3     7  ILE7        0.0019
      7  CG2       15.4870    5.2430   22.6210 C.3     7  ILE7        0.0019
      8  CD1       14.5200    7.8260   25.3520 C.3     7  ILE7        0.0001
      9  N         13.5460   14.9920   25.6470 N.3    32  LEU32      -0.1231
     10  CA        13.6640   13.5330   25.6190 C.3    32  LEU32       0.1693
     11  C         12.2530   12.9590   25.7100 C.2    32  LEU32       0.2592
     12  O         11.4650   13.3900   26.5580 O.2    32  LEU32      -0.2718
     13  CB        14.4830   13.0410   26.8070 C.3    32  LEU32       0.0284
     14  CG        15.9470   13.4950   26.8240 C.3    32  LEU32       0.0019
     15  CD1       16.5610   13.3430   28.2150 C.3    32  LEU32       0.0001
     16  CD2       16.7520   12.7100   25.7910 C.3    32  LEU32       0.0001
     17  N         11.9230   12.0120   24.8330 N.am   33  LYS33      -0.1966
     18  CA        10.6340   11.3210   24.9540 C.3    33  LYS33       0.1728
     19  C         10.8510    9.8230   24.9970 C.2    33  LYS33       0.2616
     20  O         11.7510    9.3010   24.3260 O.2    33  LYS33      -0.2715
     21  CB         9.6680   11.6950   23.8190 C.3    33  LYS33       0.0311
     22  CG         9.1720   13.1450   23.8730 C.3    33  LYS33       0.0038
     23  CD         7.7200   13.2210   23.3260 C.3    33  LYS33       0.0206
     24  CE         7.2010   14.6620   23.3000 C.3    33  LYS33       0.1093
     25  NZ         7.8350   15.4650   22.2080 N.3    33  LYS33      -0.1314
     26  N         10.0300    9.1440   25.7960 N.am   34  TYR34      -0.1974
     27  CA        10.0960    7.6940   25.9230 C.3    34  TYR34       0.1639
     28  C          8.6850    7.1420   25.7830 C.2    34  TYR34       0.2290
     29  O          7.7800    7.5730   26.4870 O.2    34  TYR34      -0.2864
     30  CB        10.6800    7.2720   27.2690 C.3    34  TYR34       0.0560
     31  CG        10.5040    5.7830   27.5190 C.ar   34  TYR34      -0.0198
     32  CD1       11.3330    4.8560   26.9160 C.ar   34  TYR34      -0.0009
     33  CD2        9.4710    5.3150   28.3180 C.ar   34  TYR34      -0.0009
     34  CE1       11.1580    3.4890   27.1300 C.ar   34  TYR34       0.0417
     35  CE2        9.2880    3.9580   28.5370 C.ar   34  TYR34       0.0417
     36  CZ        10.1290    3.0540   27.9420 C.ar   34  TYR34       0.1957
     37  OH         9.9260    1.7070   28.1640 O.3    34  TYR34      -0.2866
     38  N          6.1000    9.5380   27.7250 N.3    46  GLY46      -0.1210
     39  CA         6.5580   10.4810   28.7240 C.3    46  GLY46       0.1956
     40  C          7.5190   11.4340   28.0400 C.2    46  GLY46       0.2613
     41  O          8.2270   11.0470   27.1060 O.2    46  GLY46      -0.2717
     42  N          7.5480   12.6730   28.5180 N.am   47  SER47      -0.1938
     43  CA         8.3380   13.7290   27.9000 C.3    47  SER47       0.2055
     44  C          8.9900   14.6070   28.9670 C.2    47  SER47       0.2643
     45  O          8.3440   15.0000   29.9490 O.2    47  SER47      -0.2714
     46  CB         7.4360   14.6000   27.0110 C.3    47  SER47       0.2130
     47  OG         8.1370   15.7310   26.5130 O.3    47  SER47      -0.2179
     48  N         10.2690   14.8990   28.7630 N.am   48  PHE48      -0.1973
     49  CA        10.9620   15.9270   29.5330 C.3    48  PHE48       0.1639
     50  C         11.4600   16.9580   28.5490 C.2    48  PHE48       0.2290
     51  O         12.0860   16.6060   27.5420 O.2    48  PHE48      -0.2864
     52  CB        12.1770   15.3800   30.3070 C.3    48  PHE48       0.0560
     53  CG        13.0700   16.4780   30.8420 C.ar   48  PHE48      -0.0200
     54  CD1       12.7530   17.1320   32.0240 C.ar   48  PHE48      -0.0042
     55  CD2       14.1810   16.8970   30.1250 C.ar   48  PHE48      -0.0042
     56  CE1       13.5550   18.1740   32.4990 C.ar   48  PHE48      -0.0003
     57  CE2       14.9860   17.9350   30.5960 C.ar   48  PHE48      -0.0003
     58  CZ        14.6660   18.5680   31.7840 C.ar   48  PHE48      -0.0000
     59  N          7.6380   18.2150   32.6210 N.3    70  VAL70      -0.1231
     60  CA         7.5340   16.7640   32.6130 C.3    70  VAL70       0.1692
     61  C          6.0710   16.4850   32.3170 C.2    70  VAL70       0.2593
     62  O          5.1780   16.9600   33.0360 O.2    70  VAL70      -0.2718
     63  CB         7.9460   16.1310   33.9520 C.3    70  VAL70       0.0266
     64  CG1        7.6660   14.6170   33.9450 C.3    70  VAL70       0.0020
     65  CG2        9.4220   16.3660   34.2120 C.3    70  VAL70       0.0020
     66  N          5.8190   15.7710   31.2240 N.am   71  THR71      -0.1939
     67  CA         4.4370   15.4960   30.8100 C.3    71  THR71       0.2028
     68  C          4.2830   14.0380   30.3840 C.2    71  THR71       0.2642
     69  O          5.2580   13.3640   30.0800 O.2    71  THR71      -0.2714
     70  CB         3.9730   16.4100   29.6400 C.3    71  THR71       0.1808
     71  OG1        4.8390   16.2220   28.5200 O.3    71  THR71      -0.2208
     72  CG2        3.9700   17.9050   30.0390 C.3    71  THR71       0.0379
     73  N          3.0550   13.5420   30.3630 N.am   72  ALA72      -0.1977
     74  CA         2.8330   12.1500   29.9840 C.3    72  ALA72       0.1597
     75  C          1.4260   11.9790   29.4750 C.2    72  ALA72       0.2287
     76  O          0.5540   12.8080   29.7410 O.2    72  ALA72      -0.2864
     77  CB         3.0770   11.2200   31.1720 C.3    72  ALA72       0.0319
@<TRIPOS>BOND
     1     4     3    2
     2     3     2    1
     3     1     2    1
     4    25    24    1
     5     7     5    1
     6     2     5    1
     7    24    23    1
     8    23    22    1
     9     5     6    1
    10    21    22    1
    11    21    18    1
    12     6     8    1
    13    20    19    2
    14    17    18    1
    15    17    11   am
    16    18    19    1
    17    19    26   am
    18    10     9    1
    19    10    11    1
    20    10    13    1
    21    11    12    2
    22    28    27    1
    23    28    29    2
    24    16    14    1
    25    26    27    1
    26    27    30    1
    27    47    46    1
    28    13    14    1
    29    14    15    1
    30    32    34   ar
    31    32    31   ar
    32    46    43    1
    33    41    40    2
    34    34    36   ar
    35    30    31    1
    36    31    33   ar
    37    51    50    2
    38    38    39    1
    39    43    42    1
    40    43    44    1
    41    36    37    1
    42    36    35   ar
    43    40    42   am
    44    40    39    1
    45    33    35   ar
    46    71    70    1
    47    50    49    1
    48    48    44   am
    49    48    49    1
    50    44    45    2
    51    75    76    2
    52    75    74    1
    53    49    52    1
    54    70    72    1
    55    70    67    1
    56    74    73    1
    57    74    77    1
    58    69    68    2
    59    55    57   ar
    60    55    53   ar
    61    52    53    1
    62    73    68   am
    63    68    67    1
    64    57    58   ar
    65    67    66    1
    66    53    54   ar
    67    66    61   am
    68    58    56   ar
    69    54    56   ar
    70    61    60    1
    71    61    62    2
    72    60    59    1
    73    60    63    1
    74    64    63    1
    75    63    65    1
