@<TRIPOS>MOLECULE
tmp/3qrcB01.pdb
 81 80 0 0 0
SMALL
GASTEIGER

@<TRIPOS>ATOM
      1  N         14.1580  -12.3620  -12.6090 N.3    73  ALA73      -0.1231
      2  CA        14.8320  -11.0790  -12.4730 C.3    73  ALA73       0.1694
      3  C         15.2620  -10.8540  -11.0340 C.2    73  ALA73       0.2593
      4  O         14.7830  -11.5340  -10.1110 O.2    73  ALA73      -0.2718
      5  CB        13.9160   -9.9450  -12.9590 C.3    73  ALA73       0.0304
      6  N         16.1710   -9.9020  -10.8230 N.am   74  GLY74      -0.1943
      7  CA        16.6200   -9.6470   -9.4730 C.3    74  GLY74       0.1998
      8  C         17.6460   -8.5380   -9.3980 C.2    74  GLY74       0.2480
      9  O         18.0500   -7.9950  -10.4290 O.2    74  GLY74      -0.2729
     10  N         18.0860   -8.2140   -8.1810 N.am   75  PRO75      -0.2726
     11  CA        19.1360   -7.2140   -7.9890 C.3    75  PRO75       0.1402
     12  C         20.4920   -7.8310   -8.2610 C.2    75  PRO75       0.2269
     13  O         20.7010   -9.0310   -8.0310 O.2    75  PRO75      -0.2865
     14  CB        19.0170   -6.8830   -6.5020 C.3    75  PRO75       0.0296
     15  CG        18.5850   -8.1830   -5.8920 C.3    75  PRO75       0.0237
     16  CD        17.6980   -8.8570   -6.9110 C.3    75  PRO75       0.0939
     17  N         27.6090  -10.1450   -8.1930 N.3    85  LEU85      -0.1231
     18  CA        26.7850  -11.3080   -7.8240 C.3    85  LEU85       0.1693
     19  C         25.3100  -10.9420   -7.8860 C.2    85  LEU85       0.2592
     20  O         24.9380   -9.7930   -7.6390 O.2    85  LEU85      -0.2718
     21  CB        27.1000  -11.7750   -6.3900 C.3    85  LEU85       0.0284
     22  CG        28.5680  -12.0460   -6.0240 C.3    85  LEU85       0.0019
     23  CD1       28.6880  -12.2480   -4.5210 C.3    85  LEU85       0.0001
     24  CD2       29.1220  -13.2550   -6.7770 C.3    85  LEU85       0.0001
     25  N         24.4590  -11.9140   -8.1870 N.am   86  TYR86      -0.1962
     26  CA        23.0380  -11.6130   -8.2480 C.3    86  TYR86       0.1771
     27  C         22.1610  -12.7670   -7.7850 C.2    86  TYR86       0.2620
     28  O         22.6050  -13.9170   -7.7610 O.2    86  TYR86      -0.2715
     29  CB        22.6320  -11.1920   -9.6640 C.3    86  TYR86       0.0574
     30  CG        22.9700  -12.1680  -10.7640 C.ar   86  TYR86      -0.0198
     31  CD1       22.1340  -13.2370  -11.0560 C.ar   86  TYR86      -0.0009
     32  CD2       24.1140  -11.9920  -11.5510 C.ar   86  TYR86      -0.0009
     33  CE1       22.4260  -14.1270  -12.0870 C.ar   86  TYR86       0.0417
     34  CE2       24.4200  -12.8720  -12.5760 C.ar   86  TYR86       0.0417
     35  CZ        23.5740  -13.9340  -12.8450 C.ar   86  TYR86       0.1957
     36  OH        23.8780  -14.8040  -13.8690 O.3    86  TYR86      -0.2866
     37  N         20.9200  -12.4370   -7.4220 N.am   87  GLY87      -0.1940
     38  CA        19.9020  -13.4460   -7.1370 C.3    87  GLY87       0.2014
     39  C         18.7060  -13.1800   -8.0330 C.2    87  GLY87       0.2639
     40  O         18.4860  -12.0450   -8.4480 O.2    87  GLY87      -0.2714
     41  N         17.9430  -14.2230   -8.3480 N.am   88  LEU88      -0.1963
     42  CA        16.8680  -14.1150   -9.3060 C.3    88  LEU88       0.1728
     43  C         15.6250  -14.8030   -8.7700 C.2    88  LEU88       0.2616
     44  O         15.7080  -15.8310   -8.0960 O.2    88  LEU88      -0.2715
     45  CB        17.2700  -14.8050  -10.6170 C.3    88  LEU88       0.0311
     46  CG        18.4380  -14.1760  -11.3930 C.3    88  LEU88       0.0022
     47  CD1       18.8290  -15.0530  -12.5710 C.3    88  LEU88       0.0001
     48  CD2       18.0580  -12.8010  -11.8720 C.3    88  LEU88       0.0001
     49  N         14.4740  -14.2530   -9.1260 N.am   89  LEU89      -0.1963
     50  CA        13.2050  -14.8540   -8.7790 C.3    89  LEU89       0.1728
     51  C         12.3010  -14.6430   -9.9660 C.2    89  LEU89       0.2616
     52  O         12.3650  -13.5940  -10.6310 O.2    89  LEU89      -0.2715
     53  CB        12.6090  -14.1860   -7.5370 C.3    89  LEU89       0.0311
     54  CG        11.2140  -14.6710   -7.1020 C.3    89  LEU89       0.0022
     55  CD1       11.2700  -16.1060   -6.6290 C.3    89  LEU89       0.0001
     56  CD2       10.6260  -13.7740   -6.0010 C.3    89  LEU89       0.0001
     57  N         11.4660  -15.6440  -10.2580 N.am   90  GLY90      -0.1955
     58  CA        10.5600  -15.5230  -11.3740 C.3    90  GLY90       0.1869
     59  C          9.6690  -16.7360  -11.5110 C.2    90  GLY90       0.2309
     60  O          9.2700  -17.3360  -10.5130 O.2    90  GLY90      -0.2863
     61  N         16.9240  -18.4050   -8.6430 N.3   116  GLY116     -0.1210
     62  CA        18.2520  -18.4860   -9.2140 C.3   116  GLY116      0.1956
     63  C         19.2990  -17.6690   -8.5050 C.2   116  GLY116      0.2612
     64  O         18.9930  -16.7970   -7.6770 O.2   116  GLY116     -0.2717
     65  N         20.5530  -17.9450   -8.8420 N.am  117  ALA117     -0.1965
     66  CA        21.6610  -17.1730   -8.2770 C.3   117  ALA117      0.1728
     67  C         22.8270  -17.2580   -9.2580 C.2   117  ALA117      0.2617
     68  O         23.0110  -18.2820   -9.9150 O.2   117  ALA117     -0.2715
     69  CB        22.0610  -17.7280   -6.9150 C.3   117  ALA117      0.0334
     70  N         23.6050  -16.1910   -9.3720 N.am  118  GLY118     -0.1940
     71  CA        24.6900  -16.2350  -10.3370 C.3   118  GLY118      0.2014
     72  C         25.7460  -15.1700  -10.1220 C.2   118  GLY118      0.2638
     73  O         25.7310  -14.4030   -9.1520 O.2   118  GLY118     -0.2714
     74  N         26.6420  -15.0920  -11.0860 N.am  119  LEU119     -0.1977
     75  CA        27.6750  -14.0730  -11.0500 C.3   119  LEU119      0.1596
     76  C         28.0840  -13.6850  -12.4510 C.2   119  LEU119      0.2287
     77  O         27.9000  -14.4460  -13.4260 O.2   119  LEU119     -0.2864
     78  CB        28.8590  -14.5420  -10.2170 C.3   119  LEU119      0.0297
     79  CG        29.6600  -15.7590  -10.6360 C.3   119  LEU119      0.0022
     80  CD1       30.7050  -15.3640  -11.6630 C.3   119  LEU119      0.0001
     81  CD2       30.3380  -16.3400   -9.4130 C.3   119  LEU119      0.0001
@<TRIPOS>BOND
     1    36    35    1
     2    77    76    2
     3     5     2    1
     4    35    34   ar
     5    35    33   ar
     6     1     2    1
     7    34    32   ar
     8    47    46    1
     9     2     3    1
    10    76    75    1
    11    33    31   ar
    12    48    46    1
    13    80    79    1
    14    32    30   ar
    15    59    58    1
    16    59    60    2
    17    46    45    1
    18    58    57    1
    19    74    75    1
    20    74    72   am
    21    31    30   ar
    22    75    78    1
    23     3     6   am
    24     3     4    2
    25     6     7    1
    26    30    29    1
    27    79    78    1
    28    79    81    1
    29    52    51    2
    30    45    42    1
    31     9     8    2
    32    71    72    1
    33    71    70    1
    34    57    51   am
    35    72    73    2
    36    51    50    1
    37    68    67    2
    38    29    26    1
    39     7     8    1
    40     8    10   am
    41    70    67   am
    42    42    43    1
    43    42    41    1
    44    67    66    1
    45    62    61    1
    46    62    63    1
    47    49    50    1
    48    49    43   am
    49    65    63   am
    50    65    66    1
    51    50    53    1
    52    43    44    2
    53    63    64    2
    54    40    39    2
    55    41    39   am
    56    66    69    1
    57    12    13    2
    58    12    11    1
    59    26    25    1
    60    26    27    1
    61    17    18    1
    62    25    19   am
    63    10    11    1
    64    10    16    1
    65    39    38    1
    66    11    14    1
    67    19    18    1
    68    19    20    2
    69    18    21    1
    70    27    28    2
    71    27    37   am
    72    53    54    1
    73    37    38    1
    74    54    55    1
    75    54    56    1
    76    16    15    1
    77    24    22    1
    78    14    15    1
    79    21    22    1
    80    22    23    1
