@<TRIPOS>MOLECULE
tmp/3qrcA02.pdb
 184 178 0 0 0
SMALL
GASTEIGER

@<TRIPOS>ATOM
      1  N         29.2260    6.5860    8.8150 N.3    16  VAL16      -0.1245
      2  CA        30.6490    6.6760    9.1130 C.3    16  VAL16       0.1561
      3  C         30.9100    7.9880    9.8450 C.2    16  VAL16       0.2260
      4  O         30.6450    9.0650    9.3150 O.2    16  VAL16      -0.2867
      5  CB        31.4890    6.5960    7.8190 C.3    16  VAL16       0.0252
      6  CG1       32.9790    6.6870    8.1210 C.3    16  VAL16       0.0019
      7  CG2       31.1740    5.2830    7.0750 C.3    16  VAL16       0.0019
      8  N         33.5680   10.3890   12.4830 N.3    18  GLU18      -0.1245
      9  CA        34.8640   10.6100   13.0950 C.3    18  GLU18       0.1567
     10  C         34.8010   11.9380   13.8350 C.2    18  GLU18       0.2260
     11  O         34.5080   12.9640   13.2280 O.2    18  GLU18      -0.2867
     12  CB        35.9430   10.6640   12.0220 C.3    18  GLU18       0.0388
     13  CG        37.3640   10.8840   12.5870 C.3    18  GLU18       0.1160
     14  CD        38.4420   10.8060   11.5230 C.2    18  GLU18       0.3649
     15  OE1       38.1490   11.1140   10.3520 O.co2  18  GLU18      -0.2457
     16  OE2       39.5820   10.4220   11.8540 O.co2  18  GLU18      -0.2457
     17  N         31.7210   14.1940   13.4120 N.3    21  TYR21      -0.1227
     18  CA        31.2530   14.4480   12.0600 C.3    21  TYR21       0.1736
     19  C         30.9110   13.1660   11.3040 C.2    21  TYR21       0.2595
     20  O         31.5870   12.1480   11.4410 O.2    21  TYR21      -0.2718
     21  CB        32.2930   15.2340   11.2860 C.3    21  TYR21       0.0548
     22  CG        32.4040   16.6340   11.8360 C.ar   21  TYR21      -0.0200
     23  CD1       31.6780   17.6720   11.2780 C.ar   21  TYR21      -0.0009
     24  CD2       33.1800   16.9030   12.9550 C.ar   21  TYR21      -0.0009
     25  CE1       31.7510   18.9550   11.7910 C.ar   21  TYR21       0.0417
     26  CE2       33.2580   18.1850   13.4780 C.ar   21  TYR21       0.0417
     27  CZ        32.5350   19.2010   12.8930 C.ar   21  TYR21       0.1957
     28  OH        32.5970   20.4790   13.3960 O.3    21  TYR21      -0.2866
     29  N         29.8810   13.2450   10.4780 N.am   22  LYS22      -0.1966
     30  CA        29.4690   12.1090    9.6580 C.3    22  LYS22       0.1728
     31  C         29.9190   12.3480    8.2180 C.2    22  LYS22       0.2616
     32  O         29.8240   13.4540    7.7210 O.2    22  LYS22      -0.2715
     33  CB        27.9520   11.9830    9.6920 C.3    22  LYS22       0.0311
     34  CG        27.4300   10.6970    9.0750 C.3    22  LYS22       0.0038
     35  CD        25.9010   10.6520    9.1190 C.3    22  LYS22       0.0206
     36  CE        25.2900   11.5490    8.0530 C.3    22  LYS22       0.1093
     37  NZ        25.5830   11.0400    6.6740 N.3    22  LYS22      -0.1314
     38  N         30.4010   11.3090    7.5490 N.am   23  LEU23      -0.1977
     39  CA        30.6630   11.3710    6.1190 C.3    23  LEU23       0.1596
     40  C         29.3390   11.4450    5.3510 C.2    23  LEU23       0.2287
     41  O         28.4100   10.6840    5.6290 O.2    23  LEU23      -0.2864
     42  CB        31.4420   10.1190    5.6950 C.3    23  LEU23       0.0297
     43  CG        31.7290    9.9150    4.2070 C.3    23  LEU23       0.0022
     44  CD1       32.6450   11.0280    3.6740 C.3    23  LEU23       0.0001
     45  CD2       32.3580    8.5180    3.9960 C.3    23  LEU23       0.0001
     46  N         27.8680    5.7430    2.7410 N.3    27  PRO27      -0.2116
     47  CA        28.2750    4.6360    1.8780 C.3    27  PRO27       0.1372
     48  C         27.1750    3.5850    1.7890 C.2    27  PRO27       0.2244
     49  O         26.4710    3.3230    2.7730 O.2    27  PRO27      -0.2868
     50  CB        29.4860    4.0590    2.6030 C.3    27  PRO27       0.0268
     51  CG        30.0560    5.2200    3.3450 C.3    27  PRO27       0.0207
     52  CD        28.8780    6.0260    3.7810 C.3    27  PRO27       0.0892
     53  N         30.3640   -1.5320    1.5850 N.3    51  THR51      -0.1218
     54  CA        29.6630   -0.2950    1.2610 C.3    51  THR51       0.1862
     55  C         30.6920    0.6780    0.7150 C.2    51  THR51       0.2287
     56  O         31.8740    0.6030    1.0660 O.2    51  THR51      -0.2866
     57  CB        28.9600    0.3080    2.4980 C.3    51  THR51       0.1770
     58  OG1       29.9330    0.5890    3.5180 O.3    51  THR51      -0.2211
     59  CG2       27.8850   -0.6680    3.0480 C.3    51  THR51       0.0375
     60  N         35.4360    6.1110   -0.5730 N.3    65  PHE65      -0.1227
     61  CA        35.5110    5.5270    0.7330 C.3    65  PHE65       0.1736
     62  C         34.9230    4.1490    0.5420 C.2    65  PHE65       0.2595
     63  O         33.9290    3.9970   -0.1700 O.2    65  PHE65      -0.2718
     64  CB        34.6730    6.3880    1.6690 C.3    65  PHE65       0.0547
     65  CG        35.1500    7.8120    1.7330 C.ar   65  PHE65      -0.0202
     66  CD1       36.1150    8.1900    2.6550 C.ar   65  PHE65      -0.0042
     67  CD2       34.6670    8.7630    0.8410 C.ar   65  PHE65      -0.0042
     68  CE1       36.5810    9.4950    2.7020 C.ar   65  PHE65      -0.0003
     69  CE2       35.1250   10.0820    0.8860 C.ar   65  PHE65      -0.0003
     70  CZ        36.0800   10.4480    1.8180 C.ar   65  PHE65      -0.0000
     71  N         35.5810    3.1450    1.1090 N.am   66  LYS66      -0.1966
     72  CA        35.0960    1.7730    1.0340 C.3    66  LYS66       0.1728
     73  C         35.2530    1.0860    2.3770 C.2    66  LYS66       0.2616
     74  O         36.2920    1.2180    3.0270 O.2    66  LYS66      -0.2715
     75  CB        35.9020    0.9840    0.0020 C.3    66  LYS66       0.0311
     76  CG        35.4780   -0.4920   -0.0820 C.3    66  LYS66       0.0038
     77  CD        36.2190   -1.2540   -1.1890 C.3    66  LYS66       0.0206
     78  CE        37.6610   -1.5680   -0.7900 C.3    66  LYS66       0.1093
     79  NZ        38.3110   -2.5090   -1.7490 N.3    66  LYS66      -0.1314
     80  N         34.2320    0.3390    2.7800 N.am   67  TYR67      -0.1974
     81  CA        34.3240   -0.4960    3.9720 C.3    67  TYR67       0.1639
     82  C         33.9130   -1.8930    3.5530 C.2    67  TYR67       0.2290
     83  O         32.9320   -2.0580    2.8390 O.2    67  TYR67      -0.2864
     84  CB        33.3340    0.0120    5.0150 C.3    67  TYR67       0.0560
     85  CG        33.1430   -0.9040    6.1930 C.ar   67  TYR67      -0.0198
     86  CD1       34.0610   -0.9290    7.2470 C.ar   67  TYR67      -0.0009
     87  CD2       32.0300   -1.7420    6.2690 C.ar   67  TYR67      -0.0009
     88  CE1       33.8690   -1.7770    8.3400 C.ar   67  TYR67       0.0417
     89  CE2       31.8410   -2.5870    7.3470 C.ar   67  TYR67       0.0417
     90  CZ        32.7490   -2.5930    8.3820 C.ar   67  TYR67       0.1957
     91  OH        32.5240   -3.4380    9.4550 O.3    67  TYR67      -0.2866
     92  N         38.5060   -0.5080    6.5120 N.3    93  GLY93      -0.1210
     93  CA        38.0630    0.7700    5.9690 C.3    93  GLY93       0.1956
     94  C         39.1990    1.4370    5.2000 C.2    93  GLY93       0.2612
     95  O         40.3800    1.3130    5.5640 O.2    93  GLY93      -0.2717
     96  N         38.8300    2.1280    4.1280 N.am   94  LYS94      -0.1965
     97  CA        39.7860    2.7010    3.1910 C.3    94  LYS94       0.1728
     98  C         39.2290    3.9930    2.6450 C.2    94  LYS94       0.2616
     99  O         38.0490    4.0740    2.2690 O.2    94  LYS94      -0.2715
    100  CB        40.0200    1.7050    2.0440 C.3    94  LYS94       0.0311
    101  CG        40.8590    2.2170    0.8650 C.3    94  LYS94       0.0038
    102  CD        42.3360    1.9590    1.0820 C.3    94  LYS94       0.0206
    103  CE        43.1270    1.9630   -0.2310 C.3    94  LYS94       0.1093
    104  NZ        43.0580    0.6410   -0.9140 N.3    94  LYS94      -0.1314
    105  N         40.0650    5.0250    2.6030 N.am   95  ALA95      -0.1977
    106  CA        39.7030    6.2650    1.9510 C.3    95  ALA95       0.1597
    107  C         40.8170    6.5590    0.9630 C.2    95  ALA95       0.2287
    108  O         41.9870    6.6140    1.3530 O.2    95  ALA95      -0.2864
    109  CB        39.5910    7.3900    2.9610 C.3    95  ALA95       0.0319
    110  N         42.2900    8.8380   -2.4420 N.3    97  PHE97      -0.1241
    111  CA        42.2230   10.1880   -2.9800 C.3    97  PHE97       0.1605
    112  C         43.1360   10.2770   -4.1890 C.2    97  PHE97       0.2264
    113  O         44.2300    9.6940   -4.2090 O.2    97  PHE97      -0.2867
    114  CB        42.6740   11.2030   -1.9180 C.3    97  PHE97       0.0534
    115  CG        41.8860   11.1300   -0.6330 C.ar   97  PHE97      -0.0203
    116  CD1       40.7200   11.8740   -0.4740 C.ar   97  PHE97      -0.0042
    117  CD2       42.3060   10.3190    0.4090 C.ar   97  PHE97      -0.0042
    118  CE1       39.9890   11.8070    0.6990 C.ar   97  PHE97      -0.0003
    119  CE2       41.5770   10.2470    1.5890 C.ar   97  PHE97      -0.0003
    120  CZ        40.4160   10.9950    1.7330 C.ar   97  PHE97      -0.0000
    121  N         44.2620    6.2170    3.0440 N.3   107  ARG107     -0.1231
    122  CA        44.3960    5.8170    4.4360 C.3   107  ARG107      0.1694
    123  C         43.4870    4.6180    4.7020 C.2   107  ARG107      0.2593
    124  O         42.3730    4.5750    4.2080 O.2   107  ARG107     -0.2718
    125  CB        44.0320    6.9580    5.3690 C.3   107  ARG107      0.0321
    126  CG        44.3310    6.6180    6.8070 C.3   107  ARG107      0.0489
    127  CD        44.6360    7.8360    7.6560 C.3   107  ARG107      0.2205
    128  NE        44.5670    7.4850    9.0690 N.pl3 107  ARG107     -0.0865
    129  CZ        45.5810    6.9950    9.7670 C.cat 107  ARG107      0.5346
    130  NH1       46.7620    6.8070    9.1860 N.pl3 107  ARG107      0.1354
    131  NH2       45.4150    6.7010   11.0480 N.pl3 107  ARG107      0.1354
    132  N         43.9580    3.6540    5.4780 N.am  108  SER108     -0.1938
    133  CA        43.1840    2.4250    5.6810 C.3   108  SER108      0.2055
    134  C         43.4440    1.8480    7.0510 C.2   108  SER108      0.2642
    135  O         44.4480    2.1700    7.6850 O.2   108  SER108     -0.2714
    136  CB        43.5720    1.3770    4.6330 C.3   108  SER108      0.2130
    137  OG        44.8990    0.9360    4.8410 O.3   108  SER108     -0.2179
    138  N         42.5530    0.9680    7.5010 N.am  109  LYS109     -0.1977
    139  CA        42.7120    0.3540    8.8000 C.3   109  LYS109      0.1596
    140  C         41.8870   -0.9140    8.8080 C.2   109  LYS109      0.2287
    141  O         40.7880   -0.9460    8.2510 O.2   109  LYS109     -0.2864
    142  CB        42.2160    1.3050    9.8990 C.3   109  LYS109      0.0298
    143  CG        42.1720    0.6960   11.3010 C.3   109  LYS109      0.0038
    144  CD        43.5850    0.5030   11.8770 C.3   109  LYS109      0.0206
    145  CE        43.5120   -0.0970   13.2810 C.3   109  LYS109      0.1093
    146  NZ        44.8790   -0.2130   13.8770 N.3   109  LYS109     -0.1314
    147  N         37.6560    1.8510   13.6150 N.3   137  LEU137     -0.1231
    148  CA        38.8870    1.8280   12.8580 C.3   137  LEU137      0.1693
    149  C         39.6700    3.0710   13.2670 C.2   137  LEU137      0.2592
    150  O         39.4360    4.1570   12.7430 O.2   137  LEU137     -0.2718
    151  CB        38.5570    1.8730   11.3550 C.3   137  LEU137      0.0284
    152  CG        37.5880    0.7900   10.8310 C.3   137  LEU137      0.0019
    153  CD1       37.1540    1.1430    9.4240 C.3   137  LEU137      0.0001
    154  CD2       38.2550   -0.5990   10.8330 C.3   137  LEU137      0.0001
    155  N         40.5850    2.9120   14.2180 N.am  138  ASP138     -0.1960
    156  CA        41.1860    4.0560   14.8970 C.3   138  ASP138      0.1840
    157  C         40.0780    4.9430   15.4660 C.2   138  ASP138      0.2622
    158  O         39.2720    4.4890   16.2610 O.2   138  ASP138     -0.2715
    159  CB        42.1230    4.8330   13.9630 C.3   138  ASP138      0.1450
    160  CG        43.4170    4.0780   13.6690 C.2   138  ASP138      0.3671
    161  OD1       43.7410    3.1460   14.4290 O.co2 138  ASP138     -0.2456
    162  OD2       44.1020    4.4090   12.6780 O.co2 138  ASP138     -0.2456
    163  N         40.0190    6.2000   15.0450 N.am  139  ASP139     -0.1957
    164  CA        38.9660    7.0730   15.5530 C.3   139  ASP139      0.1840
    165  C         37.7420    7.1540   14.6250 C.2   139  ASP139      0.2621
    166  O         36.8340    7.9550   14.8590 O.2   139  ASP139     -0.2715
    167  CB        39.5030    8.4730   15.8770 C.3   139  ASP139      0.1450
    168  CG        39.9400    9.2380   14.6400 C.2   139  ASP139      0.3671
    169  OD1       40.3130    8.6050   13.6260 O.co2 139  ASP139     -0.2456
    170  OD2       39.9170   10.4860   14.6860 O.co2 139  ASP139     -0.2456
    171  N         37.6990    6.3170   13.5870 N.am  140  VAL140     -0.1977
    172  CA        36.5430    6.3060   12.6860 C.3   140  VAL140      0.1596
    173  C         35.5850    5.1930   13.0900 C.2   140  VAL140      0.2287
    174  O         35.9910    4.0650   13.2640 O.2   140  VAL140     -0.2864
    175  CB        36.9780    6.1300   11.2100 C.3   140  VAL140      0.0276
    176  CG1       35.7460    5.9430   10.2870 C.3   140  VAL140      0.0022
    177  CG2       37.8760    7.2910   10.7600 C.3   140  VAL140      0.0022
    178  N         32.2220    2.9310   12.1750 N.3   142  VAL142     -0.1245
    179  CA        31.4190    2.5410   11.0400 C.3   142  VAL142      0.1561
    180  C         30.2960    1.6570   11.5360 C.2   142  VAL142      0.2260
    181  O         30.5520    0.5830   12.0730 O.2   142  VAL142     -0.2867
    182  CB        32.2400    1.7450   10.0100 C.3   142  VAL142      0.0252
    183  CG1       31.3880    1.4120    8.7830 C.3   142  VAL142      0.0019
    184  CG2       33.4860    2.5100    9.6080 C.3   142  VAL142      0.0019
@<TRIPOS>BOND
     1   113   112    2
     2   112   111    1
     3   111   110    1
     4   111   114    1
     5   114   115    1
     6    79    78    1
     7    77    78    1
     8    77    76    1
     9   104   103    1
    10   115   116   ar
    11   115   117   ar
    12    60    61    1
    13   116   118   ar
    14   103   102    1
    15    63    62    2
    16    76    75    1
    17    75    72    1
    18   117   119   ar
    19    62    61    1
    20    62    71   am
    21   118   120   ar
    22    55    56    2
    23    55    54    1
    24    61    64    1
    25    67    69   ar
    26    67    65   ar
    27   101   102    1
    28   101   100    1
    29    69    70   ar
    30   107   108    2
    31   107   106    1
    32    72    71    1
    33    72    73    1
    34    54    53    1
    35    54    57    1
    36   119   120   ar
    37    64    65    1
    38    65    66   ar
    39    48    47    1
    40    48    49    2
    41    70    68   ar
    42    47    50    1
    43    47    46    1
    44   106   105    1
    45   106   109    1
    46   100    97    1
    47    99    98    2
    48    73    80   am
    49    73    74    2
    50    57    59    1
    51    57    58    1
    52   105    98   am
    53    50    51    1
    54    98    97    1
    55    66    68   ar
    56    46    52    1
    57    80    81    1
    58    83    82    2
    59   121   122    1
    60    97    96    1
    61    51    52    1
    62    82    81    1
    63    44    43    1
    64    81    84    1
    65    45    43    1
    66    96    94   am
    67    43    42    1
    68   124   123    2
    69   122   123    1
    70   122   125    1
    71   136   137    1
    72   136   133    1
    73   123   132   am
    74    84    85    1
    75    94    95    2
    76    94    93    1
    77    40    41    2
    78    40    39    1
    79   125   126    1
    80   132   133    1
    81   133   134    1
    82    42    39    1
    83    93    92    1
    84    39    38    1
    85    85    87   ar
    86    85    86   ar
    87    87    89   ar
    88    37    36    1
    89   126   127    1
    90   134   138   am
    91   134   135    2
    92     7     5    1
    93    86    88   ar
    94    89    90   ar
    95   138   139    1
    96    38    31   am
    97   127   128    1
    98    32    31    2
    99     5     6    1
   100     5     2    1
   101    36    35    1
   102    31    30    1
   103   141   140    2
   104    88    90   ar
   105    90    91    1
   106   183   182    1
   107   139   140    1
   108   139   142    1
   109     1     2    1
   110   128   129    2
   111    34    35    1
   112    34    33    1
   113     2     3    1
   114   130   129    1
   115     4     3    2
   116   153   152    1
   117   184   182    1
   118    30    33    1
   119    30    29    1
   120   129   131    1
   121   142   143    1
   122   182   179    1
   123   176   175    1
   124    15    14   ar
   125    29    19   am
   126   177   175    1
   127   152   154    1
   128   152   151    1
   129   179   180    1
   130   179   178    1
   131   175   172    1
   132    23    25   ar
   133    23    22   ar
   134    21    22    1
   135    21    18    1
   136   143   144    1
   137    19    20    2
   138    19    18    1
   139   151   148    1
   140    14    16   ar
   141    14    13    1
   142   180   181    2
   143    25    27   ar
   144    22    24   ar
   145   144   145    1
   146    12    13    1
   147    12     9    1
   148    18    17    1
   149     8     9    1
   150   162   160   ar
   151   172   173    1
   152   172   171    1
   153   150   149    2
   154   148   149    1
   155   148   147    1
   156    27    28    1
   157    27    26   ar
   158    24    26   ar
   159   173   174    2
   160     9    10    1
   161    11    10    2
   162   149   155   am
   163   145   146    1
   164   171   165   am
   165   169   168   ar
   166   160   159    1
   167   160   161   ar
   168   159   156    1
   169   155   156    1
   170   165   166    2
   171   165   164    1
   172   168   170   ar
   173   168   167    1
   174   156   157    1
   175   163   157   am
   176   163   164    1
   177   157   158    2
   178   164   167    1
