@<TRIPOS>MOLECULE
tmp/3qrcB03.pdb
 169 161 0 0 0
SMALL
GASTEIGER

@<TRIPOS>ATOM
      1  N         19.6180  -28.5900  -18.2880 N.3    14  SER14      -0.1217
      2  CA        18.7720  -28.9340  -17.1500 C.3    14  SER14       0.1889
      3  C         18.9230  -30.4000  -16.7570 C.2    14  SER14       0.2288
      4  O         19.1570  -31.2610  -17.5890 O.2    14  SER14      -0.2866
      5  CB        17.2840  -28.6820  -17.4750 C.3    14  SER14       0.2089
      6  OG        17.0420  -27.3110  -17.7800 O.3    14  SER14      -0.2183
      7  N         16.4550  -32.9750  -14.9240 N.3    16  VAL16      -0.1245
      8  CA        15.0310  -33.0470  -14.6260 C.3    16  VAL16       0.1561
      9  C         14.7730  -34.3560  -13.9000 C.2    16  VAL16       0.2260
     10  O         15.0510  -35.4300  -14.4360 O.2    16  VAL16      -0.2867
     11  CB        14.2020  -32.9680  -15.9250 C.3    16  VAL16       0.0252
     12  CG1       12.7020  -33.0630  -15.6330 C.3    16  VAL16       0.0019
     13  CG2       14.5320  -31.6650  -16.6820 C.3    16  VAL16       0.0019
     14  N         12.1310  -36.7730  -11.2440 N.3    18  GLU18      -0.1245
     15  CA        10.8320  -36.9930  -10.6430 C.3    18  GLU18       0.1567
     16  C         10.8960  -38.3180   -9.9030 C.2    18  GLU18       0.2260
     17  O         11.2140  -39.3440  -10.5010 O.2    18  GLU18      -0.2867
     18  CB         9.7590  -37.0580  -11.7250 C.3    18  GLU18       0.0388
     19  CG         8.3320  -37.2530  -11.1620 C.3    18  GLU18       0.1160
     20  CD         7.2530  -37.1820  -12.2240 C.2    18  GLU18       0.3649
     21  OE1        7.5430  -37.4970  -13.3940 O.co2  18  GLU18      -0.2457
     22  OE2        6.1120  -36.7980  -11.8910 O.co2  18  GLU18      -0.2457
     23  N         15.2780  -37.6880  -16.2030 N.3    23  LEU23      -0.1245
     24  CA        15.0160  -37.7480  -17.6320 C.3    23  LEU23       0.1561
     25  C         16.3360  -37.8260  -18.4070 C.2    23  LEU23       0.2260
     26  O         17.2630  -37.0630  -18.1370 O.2    23  LEU23      -0.2867
     27  CB        14.2320  -36.4950  -18.0510 C.3    23  LEU23       0.0270
     28  CG        13.9510  -36.2920  -19.5380 C.3    23  LEU23       0.0019
     29  CD1       13.0370  -37.4060  -20.0650 C.3    23  LEU23       0.0001
     30  CD2       13.3200  -34.9000  -19.7390 C.3    23  LEU23       0.0001
     31  N         17.8130  -32.1170  -21.0010 N.3    27  PRO27      -0.2116
     32  CA        17.4030  -31.0100  -21.8680 C.3    27  PRO27       0.1372
     33  C         18.5020  -29.9580  -21.9610 C.2    27  PRO27       0.2244
     34  O         19.2210  -29.6990  -21.0000 O.2    27  PRO27      -0.2868
     35  CB        16.1940  -30.4400  -21.1480 C.3    27  PRO27       0.0268
     36  CG        15.6190  -31.6270  -20.4190 C.3    27  PRO27       0.0207
     37  CD        16.8050  -32.4010  -19.9580 C.3    27  PRO27       0.0892
     38  N         15.3300  -24.8450  -22.1550 N.3    51  THR51      -0.1218
     39  CA        16.0240  -26.0770  -22.4810 C.3    51  THR51       0.1862
     40  C         14.9900  -27.0540  -23.0280 C.2    51  THR51       0.2287
     41  O         13.7950  -26.9510  -22.7070 O.2    51  THR51      -0.2866
     42  CB        16.7340  -26.6870  -21.2470 C.3    51  THR51       0.1770
     43  OG1       15.7680  -26.9710  -20.2180 O.3    51  THR51      -0.2211
     44  CG2       17.8140  -25.7200  -20.7040 C.3    51  THR51       0.0375
     45  N         10.2390  -32.4790  -24.3160 N.3    66  PHE66      -0.1227
     46  CA        10.1650  -31.8980  -23.0040 C.3    66  PHE66       0.1736
     47  C         10.7550  -30.5280  -23.2100 C.2    66  PHE66       0.2595
     48  O         11.7450  -30.3900  -23.9420 O.2    66  PHE66      -0.2718
     49  CB        11.0110  -32.7620  -22.0730 C.3    66  PHE66       0.0547
     50  CG        10.5330  -34.1900  -22.0110 C.ar   66  PHE66      -0.0202
     51  CD1        9.5650  -34.5700  -21.0910 C.ar   66  PHE66      -0.0042
     52  CD2       11.0140  -35.1420  -22.9050 C.ar   66  PHE66      -0.0042
     53  CE1        9.0980  -35.8760  -21.0420 C.ar   66  PHE66      -0.0003
     54  CE2       10.5550  -36.4570  -22.8580 C.ar   66  PHE66      -0.0003
     55  CZ         9.5940  -36.8240  -21.9260 C.ar   66  PHE66      -0.0000
     56  N         10.1140  -29.5170  -22.6300 N.am   67  LYS67      -0.1966
     57  CA        10.5990  -28.1500  -22.7160 C.3    67  LYS67       0.1728
     58  C         10.4400  -27.4680  -21.3660 C.2    67  LYS67       0.2616
     59  O          9.4080  -27.6070  -20.7130 O.2    67  LYS67      -0.2715
     60  CB         9.7840  -27.3610  -23.7430 C.3    67  LYS67       0.0311
     61  CG        10.2050  -25.8880  -23.8260 C.3    67  LYS67       0.0038
     62  CD         9.4640  -25.1280  -24.9300 C.3    67  LYS67       0.0206
     63  CE         8.0190  -24.8350  -24.5400 C.3    67  LYS67       0.1093
     64  NZ         7.3860  -23.8640  -25.4890 N.3    67  LYS67      -0.1314
     65  N         11.4550  -26.7120  -20.9670 N.am   68  TYR68      -0.1974
     66  CA        11.3620  -25.8720  -19.7810 C.3    68  TYR68       0.1639
     67  C         11.7770  -24.4770  -20.2040 C.2    68  TYR68       0.2290
     68  O         12.7640  -24.3150  -20.9200 O.2    68  TYR68      -0.2864
     69  CB        12.3520  -26.3860  -18.7270 C.3    68  TYR68       0.0560
     70  CG        12.5490  -25.4660  -17.5450 C.ar   68  TYR68      -0.0198
     71  CD1       11.6460  -25.4600  -16.4810 C.ar   68  TYR68      -0.0009
     72  CD2       13.6570  -24.6310  -17.4720 C.ar   68  TYR68      -0.0009
     73  CE1       11.8330  -24.6110  -15.3900 C.ar   68  TYR68       0.0417
     74  CE2       13.8460  -23.7740  -16.3940 C.ar   68  TYR68       0.0417
     75  CZ        12.9460  -23.7780  -15.3550 C.ar   68  TYR68       0.1957
     76  OH        13.1580  -22.9370  -14.2750 O.3    68  TYR68      -0.2866
     77  N          7.1880  -25.8680  -17.2270 N.3    94  GLY94      -0.1210
     78  CA         7.6290  -27.1530  -17.7640 C.3    94  GLY94       0.1956
     79  C          6.4990  -27.8080  -18.5460 C.2    94  GLY94       0.2612
     80  O          5.3150  -27.6680  -18.1930 O.2    94  GLY94      -0.2717
     81  N          6.8680  -28.4990  -19.6200 N.am   95  LYS95      -0.1965
     82  CA         5.9080  -29.0740  -20.5530 C.3    95  LYS95       0.1728
     83  C          6.4640  -30.3620  -21.1060 C.2    95  LYS95       0.2616
     84  O          7.6440  -30.4360  -21.4750 O.2    95  LYS95      -0.2715
     85  CB         5.6610  -28.0750  -21.6970 C.3    95  LYS95       0.0311
     86  CG         4.8270  -28.5830  -22.8700 C.3    95  LYS95       0.0038
     87  CD         3.3500  -28.3260  -22.6590 C.3    95  LYS95       0.0206
     88  CE         2.5620  -28.3450  -23.9810 C.3    95  LYS95       0.1093
     89  NZ         2.6180  -27.0340  -24.6800 N.3    95  LYS95      -0.1314
     90  N          5.6290  -31.3920  -21.1490 N.am   96  ALA96      -0.1977
     91  CA         5.9880  -32.6390  -21.7950 C.3    96  ALA96       0.1597
     92  C          4.8740  -32.9300  -22.7820 C.2    96  ALA96       0.2287
     93  O          3.7000  -32.9640  -22.4030 O.2    96  ALA96      -0.2864
     94  CB         6.0990  -33.7640  -20.7740 C.3    96  ALA96       0.0319
     95  N          3.3970  -35.2090  -26.1900 N.3    98  PHE98      -0.1241
     96  CA         3.4550  -36.5590  -26.7250 C.3    98  PHE98       0.1605
     97  C          2.5470  -36.6520  -27.9370 C.2    98  PHE98       0.2264
     98  O          1.4520  -36.0590  -27.9630 O.2    98  PHE98      -0.2867
     99  CB         3.0050  -37.5780  -25.6630 C.3    98  PHE98       0.0534
    100  CG         3.8010  -37.5070  -24.3750 C.ar   98  PHE98      -0.0203
    101  CD1        4.9610  -38.2600  -24.2150 C.ar   98  PHE98      -0.0042
    102  CD2        3.3880  -36.6960  -23.3310 C.ar   98  PHE98      -0.0042
    103  CE1        5.6950  -38.1930  -23.0430 C.ar   98  PHE98      -0.0003
    104  CE2        4.1150  -36.6280  -22.1540 C.ar   98  PHE98      -0.0003
    105  CZ         5.2710  -37.3790  -22.0110 C.ar   98  PHE98      -0.0000
    106  N          1.4210  -32.5640  -20.6940 N.3   108  ARG108     -0.1231
    107  CA         1.2810  -32.1830  -19.2980 C.3   108  ARG108      0.1694
    108  C          2.1870  -30.9860  -19.0350 C.2   108  ARG108      0.2593
    109  O          3.3000  -30.9380  -19.5370 O.2   108  ARG108     -0.2718
    110  CB         1.6580  -33.3300  -18.3740 C.3   108  ARG108      0.0321
    111  CG         1.3610  -32.9990  -16.9340 C.3   108  ARG108      0.0489
    112  CD         1.0520  -34.2170  -16.0920 C.3   108  ARG108      0.2205
    113  NE         1.1180  -33.8680  -14.6790 N.pl3 108  ARG108     -0.0865
    114  CZ         0.1040  -33.3740  -13.9840 C.cat 108  ARG108      0.5346
    115  NH1       -1.0730  -33.1760  -14.5690 N.pl3 108  ARG108      0.1354
    116  NH2        0.2660  -33.0830  -12.7000 N.pl3 108  ARG108      0.1354
    117  N          1.7130  -30.0210  -18.2590 N.am  109  SER109     -0.1938
    118  CA         2.4970  -28.8020  -18.0650 C.3   109  SER109      0.2055
    119  C          2.2500  -28.2350  -16.6920 C.2   109  SER109      0.2642
    120  O          1.2600  -28.5630  -16.0570 O.2   109  SER109     -0.2714
    121  CB         2.0990  -27.7550  -19.1080 C.3   109  SER109      0.2130
    122  OG         0.7790  -27.3190  -18.8850 O.3   109  SER109     -0.2179
    123  N          3.1460  -27.3650  -16.2380 N.am  110  LYS110     -0.1977
    124  CA         2.9870  -26.7400  -14.9430 C.3   110  LYS110      0.1596
    125  C          3.8010  -25.4690  -14.9430 C.2   110  LYS110      0.2287
    126  O          4.9000  -25.4320  -15.4920 O.2   110  LYS110     -0.2864
    127  CB         3.4940  -27.6820  -13.8440 C.3   110  LYS110      0.0298
    128  CG         3.5300  -27.0670  -12.4460 C.3   110  LYS110      0.0038
    129  CD         2.1000  -26.8830  -11.8880 C.3   110  LYS110      0.0206
    130  CE         2.1790  -26.2910  -10.4740 C.3   110  LYS110      0.1093
    131  NZ         0.7980  -26.1680   -9.8980 N.3   110  LYS110     -0.1314
    132  N          8.0420  -28.2200  -10.1200 N.3   138  LEU138     -0.1231
    133  CA         6.8070  -28.2040  -10.8850 C.3   138  LEU138      0.1693
    134  C          6.0220  -29.4470  -10.4760 C.2   138  LEU138      0.2592
    135  O          6.2480  -30.5400  -11.0070 O.2   138  LEU138     -0.2718
    136  CB         7.1380  -28.2570  -12.3900 C.3   138  LEU138      0.0284
    137  CG         8.1000  -27.1740  -12.9220 C.3   138  LEU138      0.0019
    138  CD1        8.5120  -27.5200  -14.3300 C.3   138  LEU138      0.0001
    139  CD2        7.4340  -25.7940  -12.9050 C.3   138  LEU138      0.0001
    140  N          5.1130  -29.2880   -9.5210 N.am  139  ASP139     -0.1960
    141  CA         4.5040  -30.4340   -8.8500 C.3   139  ASP139      0.1840
    142  C          5.6040  -31.3270   -8.2760 C.2   139  ASP139      0.2622
    143  O          6.4060  -30.8760   -7.4750 O.2   139  ASP139     -0.2715
    144  CB         3.5730  -31.2030   -9.7960 C.3   139  ASP139      0.1450
    145  CG         2.2790  -30.4490  -10.0810 C.2   139  ASP139      0.3671
    146  OD1        1.9650  -29.5150   -9.3180 O.co2 139  ASP139     -0.2456
    147  OD2        1.5890  -30.7730  -11.0710 O.co2 139  ASP139     -0.2456
    148  N          5.6550  -32.5870   -8.6900 N.am  140  ASP140     -0.1957
    149  CA         6.7190  -33.4550   -8.1930 C.3   140  ASP140      0.1840
    150  C          7.9470  -33.5300   -9.1210 C.2   140  ASP140      0.2621
    151  O          8.8670  -34.3160   -8.8790 O.2   140  ASP140     -0.2715
    152  CB         6.1920  -34.8580   -7.8680 C.3   140  ASP140      0.1450
    153  CG         5.7390  -35.6160   -9.1040 C.2   140  ASP140      0.3671
    154  OD1        5.3630  -34.9780  -10.1140 O.co2 140  ASP140     -0.2456
    155  OD2        5.7540  -36.8660   -9.0620 O.co2 140  ASP140     -0.2456
    156  N          7.9860  -32.6980  -10.1600 N.am  141  VAL141     -0.1977
    157  CA         9.1430  -32.6870  -11.0570 C.3   141  VAL141      0.1596
    158  C         10.1070  -31.5810  -10.6570 C.2   141  VAL141      0.2287
    159  O          9.7040  -30.4520  -10.4840 O.2   141  VAL141     -0.2864
    160  CB         8.7140  -32.5180  -12.5330 C.3   141  VAL141      0.0276
    161  CG1        9.9500  -32.3550  -13.4430 C.3   141  VAL141      0.0022
    162  CG2        7.8080  -33.6860  -12.9880 C.3   141  VAL141      0.0022
    163  N         13.4660  -29.3170  -11.5680 N.3   143  VAL143     -0.1245
    164  CA        14.2690  -28.9300  -12.7050 C.3   143  VAL143      0.1561
    165  C         15.3920  -28.0430  -12.2070 C.2   143  VAL143      0.2260
    166  O         15.1310  -26.9720  -11.6700 O.2   143  VAL143     -0.2867
    167  CB        13.4470  -28.1370  -13.7310 C.3   143  VAL143      0.0252
    168  CG1       14.3040  -27.8040  -14.9600 C.3   143  VAL143      0.0019
    169  CG2       12.1920  -28.9130  -14.1390 C.3   143  VAL143      0.0019
@<TRIPOS>BOND
     1    98    97    2
     2    97    96    1
     3    96    95    1
     4    96    99    1
     5    99   100    1
     6    64    63    1
     7    62    63    1
     8    62    61    1
     9    89    88    1
    10   100   101   ar
    11   100   102   ar
    12    45    46    1
    13   101   103   ar
    14    88    87    1
    15    48    47    2
    16    61    60    1
    17    60    57    1
    18   102   104   ar
    19    47    46    1
    20    47    56   am
    21   103   105   ar
    22    40    41    2
    23    40    39    1
    24    46    49    1
    25    52    54   ar
    26    52    50   ar
    27    86    87    1
    28    86    85    1
    29    54    55   ar
    30    92    93    2
    31    92    91    1
    32    57    56    1
    33    57    58    1
    34    39    38    1
    35    39    42    1
    36   104   105   ar
    37    49    50    1
    38    50    51   ar
    39    33    32    1
    40    33    34    2
    41    55    53   ar
    42    32    35    1
    43    32    31    1
    44    91    90    1
    45    91    94    1
    46    85    82    1
    47    84    83    2
    48    58    65   am
    49    58    59    2
    50    42    44    1
    51    42    43    1
    52    90    83   am
    53    35    36    1
    54    83    82    1
    55    51    53   ar
    56    31    37    1
    57    65    66    1
    58    68    67    2
    59   106   107    1
    60    82    81    1
    61    36    37    1
    62    67    66    1
    63    29    28    1
    64    66    69    1
    65    30    28    1
    66    81    79   am
    67    28    27    1
    68   109   108    2
    69   107   108    1
    70   107   110    1
    71   121   122    1
    72   121   118    1
    73   108   117   am
    74    69    70    1
    75    79    80    2
    76    79    78    1
    77    25    26    2
    78    25    24    1
    79   110   111    1
    80     1     2    1
    81   117   118    1
    82   118   119    1
    83    27    24    1
    84     6     5    1
    85    78    77    1
    86    24    23    1
    87     4     3    2
    88    70    72   ar
    89    70    71   ar
    90     5     2    1
    91    72    74   ar
    92     2     3    1
    93   111   112    1
    94   119   123   am
    95   119   120    2
    96    13    11    1
    97    71    73   ar
    98    74    75   ar
    99   123   124    1
   100   112   113    1
   101    11    12    1
   102    11     8    1
   103   126   125    2
   104    73    75   ar
   105    75    76    1
   106   168   167    1
   107   125   124    1
   108   124   127    1
   109     7     8    1
   110   113   114    2
   111     8     9    1
   112   115   114    1
   113    10     9    2
   114   138   137    1
   115   169   167    1
   116   114   116    1
   117   127   128    1
   118   167   164    1
   119   161   160    1
   120    21    20   ar
   121   162   160    1
   122   137   139    1
   123   137   136    1
   124   164   165    1
   125   164   163    1
   126   160   157    1
   127   128   129    1
   128   136   133    1
   129    20    22   ar
   130    20    19    1
   131   165   166    2
   132   129   130    1
   133    18    19    1
   134    18    15    1
   135    14    15    1
   136   147   145   ar
   137   157   158    1
   138   157   156    1
   139   135   134    2
   140   133   134    1
   141   133   132    1
   142   158   159    2
   143    15    16    1
   144    17    16    2
   145   134   140   am
   146   130   131    1
   147   156   150   am
   148   154   153   ar
   149   145   144    1
   150   145   146   ar
   151   144   141    1
   152   140   141    1
   153   150   151    2
   154   150   149    1
   155   153   155   ar
   156   153   152    1
   157   141   142    1
   158   148   142   am
   159   148   149    1
   160   142   143    2
   161   149   152    1
