@<TRIPOS>MOLECULE
tmp/3qrhA00.pdb
 122 113 0 0 0
SMALL
GASTEIGER

@<TRIPOS>ATOM
      1  N        -22.2550   24.0200    2.6870 N.3    25  ALA25      -0.1245
      2  CA       -22.2050   22.6310    2.2540 C.3    25  ALA25       0.1562
      3  C        -23.5420   22.2950    1.5850 C.2    25  ALA25       0.2260
      4  O        -24.5890   22.3660    2.2370 O.2    25  ALA25      -0.2867
      5  CB       -21.9160   21.6820    3.4580 C.3    25  ALA25       0.0290
      6  N        -23.8150   19.3350   -0.4990 N.3    27  ASP27      -0.1239
      7  CA       -23.2690   18.1420   -1.1730 C.3    27  ASP27       0.1674
      8  C        -24.0260   16.8460   -0.8670 C.2    27  ASP27       0.2266
      9  O        -23.5840   15.7530   -1.2500 O.2    27  ASP27      -0.2867
     10  CB       -21.7840   17.9810   -0.8300 C.3    27  ASP27       0.1410
     11  CG       -21.5370   17.7330    0.6530 C.2    27  ASP27       0.3668
     12  OD1      -21.7990   18.6490    1.4570 O.co2  27  ASP27      -0.2456
     13  OD2      -21.0220   16.6370    1.0130 O.co2  27  ASP27      -0.2456
     14  N        -34.5720   14.4780    4.0120 N.3    36  ARG36      -0.1245
     15  CA       -34.9120   15.8330    4.4270 C.3    36  ARG36       0.1563
     16  C        -36.1570   16.3750    3.7460 C.2    36  ARG36       0.2260
     17  O        -37.0200   16.9320    4.4110 O.2    36  ARG36      -0.2867
     18  CB       -33.7410   16.7720    4.2090 C.3    36  ARG36       0.0307
     19  CG       -33.1120   17.1560    5.5270 C.3    36  ARG36       0.0489
     20  CD       -31.8870   18.0010    5.3060 C.3    36  ARG36       0.2205
     21  NE       -30.6910   17.2560    5.6450 N.pl3  36  ARG36      -0.0865
     22  CZ       -29.4600   17.5820    5.2510 C.cat  36  ARG36       0.5346
     23  NH1      -29.2590   18.6620    4.4860 N.pl3  36  ARG36       0.1354
     24  NH2      -28.4290   16.8180    5.6310 N.pl3  36  ARG36       0.1354
     25  N        -14.0970   17.5770   -0.6610 N.3   137  LYS137     -0.1245
     26  CA       -14.4940   17.1690    0.6760 C.3   137  LYS137      0.1561
     27  C        -14.6290   15.6510    0.7340 C.2   137  LYS137      0.2260
     28  O        -15.0730   15.0120   -0.2240 O.2   137  LYS137     -0.2867
     29  CB       -15.8140   17.7810    1.0810 C.3   137  LYS137      0.0271
     30  CG       -16.0660   17.7380    2.5670 C.3   137  LYS137      0.0035
     31  CD       -17.5240   17.4650    2.8680 C.3   137  LYS137      0.0206
     32  CE       -17.9130   15.9990    2.8410 C.3   137  LYS137      0.1093
     33  NZ       -19.3410   15.8190    3.3810 N.3   137  LYS137     -0.1314
     34  N        -15.7130   12.7330    3.8330 N.3   139  ARG139     -0.1245
     35  CA       -16.2240   12.5160    5.2050 C.3   139  ARG139      0.1563
     36  C        -15.9830   11.1020    5.7190 C.2   139  ARG139      0.2260
     37  O        -16.3160   10.0940    5.0380 O.2   139  ARG139     -0.2867
     38  CB       -17.7220   12.7330    5.2090 C.3   139  ARG139      0.0307
     39  CG       -18.4090   12.5520    6.5930 C.3   139  ARG139      0.0489
     40  CD       -19.8430   12.9010    6.4090 C.3   139  ARG139      0.2205
     41  NE       -20.6430   12.9340    7.6270 N.pl3 139  ARG139     -0.0865
     42  CZ       -21.6480   12.0990    7.9140 C.cat 139  ARG139      0.5346
     43  NH1      -21.9690   11.0810    7.1080 N.pl3 139  ARG139      0.1354
     44  NH2      -22.3500   12.2930    9.0380 N.pl3 139  ARG139      0.1354
     45  N        -12.7600   15.5890    6.8340 N.3   178  GLU178     -0.1245
     46  CA       -13.8780   15.6970    7.7520 C.3   178  GLU178      0.1567
     47  C        -13.9470   14.4850    8.6390 C.2   178  GLU178      0.2260
     48  O        -14.6630   13.5040    8.3290 O.2   178  GLU178     -0.2867
     49  CB       -15.1870   15.8850    7.0090 C.3   178  GLU178      0.0388
     50  CG       -16.4130   16.0200    7.9460 C.3   178  GLU178      0.1160
     51  CD       -17.7330   16.1620    7.1990 C.2   178  GLU178      0.3649
     52  OE1      -17.7830   16.1330    5.9570 O.co2 178  GLU178     -0.2457
     53  OE2      -18.7390   16.2700    7.8830 O.co2 178  GLU178     -0.2457
     54  N        -15.7010   13.4700   11.2610 N.3   180  GLU180     -0.1245
     55  CA       -16.8430   13.8540   12.0940 C.3   180  GLU180      0.1567
     56  C        -17.0510   12.9390   13.3050 C.2   180  GLU180      0.2260
     57  O        -17.0950   11.7040   13.1540 O.2   180  GLU180     -0.2867
     58  CB       -18.1440   13.8990   11.2620 C.3   180  GLU180      0.0388
     59  CG       -19.3710   14.1890   12.1530 C.3   180  GLU180      0.1160
     60  CD       -20.6890   14.3170   11.4030 C.2   180  GLU180      0.3649
     61  OE1      -20.6870   14.4450   10.1510 O.co2 180  GLU180     -0.2457
     62  OE2      -21.7390   14.2650   12.0880 O.co2 180  GLU180     -0.2457
     63  N        -12.5420   19.9540    8.6900 N.3   220  LYS220     -0.1245
     64  CA       -13.9550   20.1320    9.0180 C.3   220  LYS220      0.1561
     65  C        -14.2570   19.2570   10.2070 C.2   220  LYS220      0.2260
     66  O        -14.2600   18.0190   10.1040 O.2   220  LYS220     -0.2867
     67  CB       -14.8430   19.7740    7.8110 C.3   220  LYS220      0.0271
     68  CG       -16.3480   19.8630    8.0750 C.3   220  LYS220      0.0035
     69  CD       -17.1750   19.6770    6.7670 C.3   220  LYS220      0.0206
     70  CE       -18.6890   19.7380    7.0870 C.3   220  LYS220      0.1093
     71  NZ       -19.4640   19.4870    5.8920 N.3   220  LYS220     -0.1314
     72  N        -18.7130   21.7440   11.3710 N.3   261  LEU261     -0.1231
     73  CA       -19.9250   21.1490   10.8720 C.3   261  LEU261      0.1693
     74  C        -21.0290   21.3200   11.8970 C.2   261  LEU261      0.2593
     75  O        -20.7500   21.3760   13.0990 O.2   261  LEU261     -0.2718
     76  CB       -19.6660   19.6820   10.5210 C.3   261  LEU261      0.0284
     77  CG       -19.2920   18.7110   11.6400 C.3   261  LEU261      0.0019
     78  CD1      -20.5480   17.9430   12.1350 C.3   261  LEU261      0.0001
     79  CD2      -18.1540   17.7220   11.1780 C.3   261  LEU261      0.0001
     80  N        -22.2810   21.4330   11.4460 N.am  262  SER262     -0.1938
     81  CA       -23.3970   21.6510   12.4130 C.3   262  SER262      0.2055
     82  C        -23.8400   20.3430   13.0550 C.2   262  SER262      0.2643
     83  O        -24.2490   20.3350   14.2020 O.2   262  SER262     -0.2714
     84  CB       -24.5950   22.4440   11.8080 C.3   262  SER262      0.2130
     85  OG       -25.1850   21.8580   10.6530 O.3   262  SER262     -0.2179
     86  N        -23.7530   19.2350   12.3090 N.am  263  GLY263     -0.1954
     87  CA       -23.7240   17.8920   12.9270 C.3   263  GLY263      0.1869
     88  C        -24.9830   17.3480   13.5590 C.2   263  GLY263      0.2309
     89  O        -24.9360   16.3180   14.2560 O.2   263  GLY263     -0.2863
     90  N        -18.5240   25.1650    8.0480 N.3   291  SER291     -0.1202
     91  CA       -18.9010   24.4390    6.8380 C.3   291  SER291      0.2020
     92  C        -20.2230   23.7840    7.1560 C.2   291  SER291      0.2619
     93  O        -20.2530   22.6670    7.7180 O.2   291  SER291     -0.2717
     94  CB       -17.8610   23.3630    6.4880 C.3   291  SER291      0.2103
     95  OG       -18.2490   22.6300    5.3150 O.3   291  SER291     -0.2182
     96  N        -21.3140   24.5070    6.9070 N.am  292  PHE292     -0.1961
     97  CA       -22.6270   24.0830    7.3570 C.3   292  PHE292      0.1771
     98  C        -23.4970   23.6470    6.1860 C.2   292  PHE292      0.2619
     99  O        -23.5510   24.3320    5.1610 O.2   292  PHE292     -0.2715
    100  CB       -23.3800   25.2310    8.0380 C.3   292  PHE292      0.0574
    101  CG       -22.8020   25.6930    9.3540 C.ar  292  PHE292     -0.0200
    102  CD1      -22.0490   24.8500   10.1710 C.ar  292  PHE292     -0.0042
    103  CD2      -23.0870   26.9920    9.8120 C.ar  292  PHE292     -0.0042
    104  CE1      -21.5300   25.3110   11.3880 C.ar  292  PHE292     -0.0003
    105  CE2      -22.5870   27.4530   11.0370 C.ar  292  PHE292     -0.0003
    106  CZ       -21.8060   26.5960   11.8330 C.ar  292  PHE292     -0.0000
    107  N        -24.1720   22.5170    6.3420 N.am  293  ALA293     -0.1963
    108  CA       -25.2990   22.1930    5.4710 C.3   293  ALA293      0.1728
    109  C        -26.5600   22.5210    6.2660 C.2   293  ALA293      0.2616
    110  O        -27.1590   23.5670    6.0490 O.2   293  ALA293     -0.2715
    111  CB       -25.2640   20.7410    4.9930 C.3   293  ALA293      0.0334
    112  N        -26.9160   21.6830    7.2220 N.am  294  ARG294     -0.1977
    113  CA       -28.1980   21.8400    7.9490 C.3   294  ARG294      0.1597
    114  C        -28.3790   23.2080    8.5880 C.2   294  ARG294      0.2287
    115  O        -29.4420   23.8250    8.4460 O.2   294  ARG294     -0.2864
    116  CB       -28.4110   20.7300    8.9770 C.3   294  ARG294      0.0334
    117  CG       -28.7920   19.4210    8.3300 C.3   294  ARG294      0.0492
    118  CD       -28.6420   18.2250    9.2430 C.3   294  ARG294      0.2205
    119  NE       -27.2300   17.9020    9.4630 N.pl3 294  ARG294     -0.0865
    120  CZ       -26.7650   16.9010   10.2200 C.cat 294  ARG294      0.5346
    121  NH1      -27.5780   16.0820   10.8630 N.pl3 294  ARG294      0.1354
    122  NH2      -25.4630   16.7370   10.3470 N.pl3 294  ARG294      0.1354
@<TRIPOS>BOND
     1     9     8    2
     2     7     8    1
     3     7    10    1
     4     7     6    1
     5    10    11    1
     6    25    26    1
     7    28    27    2
     8    11    13   ar
     9    11    12   ar
    10    26    27    1
    11    26    29    1
    12    29    30    1
    13     3     4    2
    14     3     2    1
    15     2     1    1
    16     2     5    1
    17    30    31    1
    18    32    31    1
    19    32    33    1
    20    16    17    2
    21    16    15    1
    22    34    35    1
    23    14    15    1
    24    18    15    1
    25    18    19    1
    26    23    22    1
    27   111   108    1
    28    37    36    2
    29    99    98    2
    30    35    38    1
    31    35    36    1
    32    38    39    1
    33    22    24    1
    34    22    21    2
    35    20    19    1
    36    20    21    1
    37    95    94    1
    38   108   109    1
    39   108   107    1
    40    71    70    1
    41    52    51   ar
    42   110   109    2
    43    98   107   am
    44    98    97    1
    45   109   112   am
    46    40    39    1
    47    40    41    1
    48    94    91    1
    49    69    70    1
    50    69    68    1
    51    45    46    1
    52    91    92    1
    53    91    90    1
    54    96    92   am
    55    96    97    1
    56    49    46    1
    57    49    50    1
    58    43    42    1
    59    92    93    2
    60    51    53   ar
    61    51    50    1
    62   112   113    1
    63    97   100    1
    64    41    42    2
    65    46    47    1
    66    67    68    1
    67    67    64    1
    68    42    44    1
    69   113   114    1
    70   113   116    1
    71   100   101    1
    72    48    47    2
    73   117   116    1
    74   117   118    1
    75   115   114    2
    76    63    64    1
    77    64    65    1
    78   118   119    1
    79   101   103   ar
    80   101   102   ar
    81   119   120    2
    82   103   105   ar
    83    66    65    2
    84    61    60   ar
    85   102   104   ar
    86   120   122    1
    87   120   121    1
    88    76    73    1
    89    76    77    1
    90    85    84    1
    91    73    72    1
    92    73    74    1
    93   105   106   ar
    94    79    77    1
    95    54    55    1
    96    58    55    1
    97    58    59    1
    98   104   106   ar
    99    60    62   ar
   100    60    59    1
   101    80    74   am
   102    80    81    1
   103    77    78    1
   104    84    81    1
   105    74    75    2
   106    55    56    1
   107    86    87    1
   108    86    82   am
   109    81    82    1
   110    87    88    1
   111    82    83    2
   112    57    56    2
   113    88    89    2
