@<TRIPOS>MOLECULE
tmp/3qrkA00.pdb
 199 188 0 0 0
SMALL
GASTEIGER

@<TRIPOS>ATOM
      1  N         14.6260   16.3440    3.2420 N.3    30  VAL30      -0.1245
      2  CA        13.8380   16.4480    4.4530 C.3    30  VAL30       0.1561
      3  C         12.4560   15.8650    4.1530 C.2    30  VAL30       0.2260
      4  O         11.7440   16.3390    3.2600 O.2    30  VAL30      -0.2867
      5  CB        13.7260   17.9170    4.9400 C.3    30  VAL30       0.0252
      6  CG1       12.8630   18.0170    6.1950 C.3    30  VAL30       0.0019
      7  CG2       15.1190   18.5030    5.1800 C.3    30  VAL30       0.0019
      8  N          9.5170   15.3970   10.9700 N.3    43  ALA43      -0.1231
      9  CA        10.2670   15.8240    9.8020 C.3    43  ALA43       0.1694
     10  C         11.6150   15.1760    9.9070 C.2    43  ALA43       0.2592
     11  O         12.3140   15.3380   10.9130 O.2    43  ALA43      -0.2718
     12  CB        10.3990   17.3310    9.7510 C.3    43  ALA43       0.0304
     13  N         11.9780   14.4270    8.8710 N.am   44  VAL44      -0.1966
     14  CA        13.1980   13.6270    8.9110 C.3    44  VAL44       0.1727
     15  C         14.1760   14.0400    7.8310 C.2    44  VAL44       0.2616
     16  O         13.8270   14.1190    6.6460 O.2    44  VAL44      -0.2715
     17  CB        12.9170   12.0930    8.8590 C.3    44  VAL44       0.0290
     18  CG1       14.2070   11.3180    9.0480 C.3    44  VAL44       0.0023
     19  CG2       11.8970   11.6920    9.9290 C.3    44  VAL44       0.0023
     20  N         15.3970   14.3280    8.2660 N.am   45  LYS45      -0.1977
     21  CA        16.4600   14.7020    7.3620 C.3    45  LYS45       0.1596
     22  C         17.4290   13.5240    7.2260 C.2    45  LYS45       0.2287
     23  O         18.0440   13.1020    8.2040 O.2    45  LYS45      -0.2864
     24  CB        17.1700   15.9770    7.8530 C.3    45  LYS45       0.0298
     25  CG        18.0410   16.6160    6.8020 C.3    45  LYS45       0.0038
     26  CD        18.9110   17.7420    7.3300 C.3    45  LYS45       0.0206
     27  CE        19.9870   18.0900    6.2890 C.3    45  LYS45       0.1093
     28  NZ        20.7060   19.3630    6.5950 N.3    45  LYS45      -0.1314
     29  N         29.3040   16.9150    8.0930 N.3    56  GLU56      -0.1245
     30  CA        28.3230   17.9960    8.2380 C.3    56  GLU56       0.1567
     31  C         27.0470   17.5520    8.9700 C.2    56  GLU56       0.2260
     32  O         26.5830   18.1990    9.9120 O.2    56  GLU56      -0.2867
     33  CB        27.9780   18.5540    6.8530 C.3    56  GLU56       0.0388
     34  CG        27.3440   19.9320    6.8560 C.3    56  GLU56       0.1160
     35  CD        28.2360   21.0070    7.4600 C.2    56  GLU56       0.3649
     36  OE1       29.3160   20.6900    8.0200 O.co2  56  GLU56      -0.2457
     37  OE2       27.8460   22.1870    7.3840 O.co2  56  GLU56      -0.2457
     38  N         27.7460   17.3390   12.4560 N.3    59  LYS59      -0.1231
     39  CA        27.8470   18.6770   13.0240 C.3    59  LYS59       0.1693
     40  C         26.4520   19.1590   13.3600 C.2    59  LYS59       0.2591
     41  O         26.1750   19.4910   14.5000 O.2    59  LYS59      -0.2718
     42  CB        28.5000   19.6640   12.0430 C.3    59  LYS59       0.0285
     43  CG        29.9540   19.3660   11.7260 C.3    59  LYS59       0.0035
     44  CD        30.6550   20.5670   11.1010 C.3    59  LYS59       0.0206
     45  CE        32.1710   20.3830   11.2070 C.3    59  LYS59       0.1093
     46  NZ        32.9540   21.4220   10.4770 N.3    59  LYS59      -0.1314
     47  N         25.5790   19.1790   12.3570 N.am   60  GLU60      -0.1979
     48  CA        24.1890   19.6080   12.5270 C.3    60  GLU60       0.1602
     49  C         23.5130   18.9710   13.7460 C.2    60  GLU60       0.2287
     50  O         23.0500   19.6880   14.6260 O.2    60  GLU60      -0.2864
     51  CB        23.3820   19.3590   11.2650 C.3    60  GLU60       0.0415
     52  CG        21.9230   19.6490   11.4370 C.3    60  GLU60       0.1163
     53  CD        21.2340   19.9380   10.1410 C.2    60  GLU60       0.3649
     54  OE1       21.6660   19.4060    9.0900 O.co2  60  GLU60      -0.2457
     55  OE2       20.2390   20.6920   10.1760 O.co2  60  GLU60      -0.2457
     56  N         25.0520   20.2400   17.0370 N.3    63  VAL63      -0.1231
     57  CA        24.4850   21.5580   17.3420 C.3    63  VAL63       0.1692
     58  C         23.0780   21.4390   17.9800 C.2    63  VAL63       0.2591
     59  O         22.8010   22.1000   19.0030 O.2    63  VAL63      -0.2718
     60  CB        24.4300   22.4680   16.0790 C.3    63  VAL63       0.0266
     61  CG1       23.7150   23.8210   16.3660 C.3    63  VAL63       0.0020
     62  CG2       25.8420   22.7200   15.5140 C.3    63  VAL63       0.0020
     63  N         22.2140   20.5870   17.4090 N.am   64  MET64      -0.1979
     64  CA        20.7760   20.5770   17.7540 C.3    64  MET64       0.1605
     65  C         20.4920   19.9740   19.1120 C.2    64  MET64       0.2287
     66  O         19.5350   20.3740   19.7780 O.2    64  MET64      -0.2864
     67  CB        19.9260   19.9030   16.6630 C.3    64  MET64       0.0413
     68  CG        20.0640   20.5470   15.2910 C.3    64  MET64       0.0598
     69  SD        19.1910   19.7140   13.9380 S.3    64  MET64      -0.1393
     70  CE        17.4870   20.0440   14.4170 C.3    64  MET64       0.0692
     71  N         20.4280   22.7870   21.6840 N.3    67  ILE67      -0.1245
     72  CA        19.3930   23.8440   21.5650 C.3    67  ILE67       0.1561
     73  C         18.0120   23.4190   22.0780 C.2    67  ILE67       0.2260
     74  O         17.4190   22.4650   21.5690 O.2    67  ILE67      -0.2867
     75  CB        19.2630   24.3560   20.0880 C.3    67  ILE67       0.0252
     76  CG1       20.5770   24.9830   19.5970 C.3    67  ILE67       0.0019
     77  CG2       18.1200   25.3600   19.9400 C.3    67  ILE67       0.0019
     78  CD1       20.9660   26.3150   20.2610 C.3    67  ILE67       0.0001
     79  N         12.6440   27.3430   18.8440 N.3    72  LEU72      -0.1231
     80  CA        13.7400   26.8230   18.0470 C.3    72  LEU72       0.1693
     81  C         13.3970   25.3830   17.7080 C.2    72  LEU72       0.2591
     82  O         12.7550   24.6840   18.5130 O.2    72  LEU72      -0.2718
     83  CB        15.0750   26.9100   18.7920 C.3    72  LEU72       0.0284
     84  CG        15.6930   28.3100   18.7710 C.3    72  LEU72       0.0019
     85  CD1       16.6860   28.5130   19.8980 C.3    72  LEU72       0.0001
     86  CD2       16.3600   28.6360   17.4260 C.3    72  LEU72       0.0001
     87  N         13.7620   24.9750   16.4990 N.am   73  VAL73      -0.1980
     88  CA        13.5660   23.5960   16.0610 C.3    73  VAL73       0.1595
     89  C         14.1870   22.6760   17.1340 C.2    73  VAL73       0.2287
     90  O         15.2670   22.9720   17.6740 O.2    73  VAL73      -0.2864
     91  CB        14.1640   23.3640   14.6300 C.3    73  VAL73       0.0276
     92  CG1       15.5890   23.8680   14.5550 C.3    73  VAL73       0.0022
     93  CG2       14.1230   21.9090   14.2330 C.3    73  VAL73       0.0022
     94  N         18.2790   12.6430   11.0410 N.3    87  ILE87      -0.1245
     95  CA        17.9150   13.6620   12.0330 C.3    87  ILE87       0.1561
     96  C         16.3840   13.7800   12.0790 C.2    87  ILE87       0.2260
     97  O         15.7220   13.9460   11.0380 O.2    87  ILE87      -0.2867
     98  CB        18.6400   15.0230   11.7800 C.3    87  ILE87       0.0252
     99  CG1       20.1540   14.8350   11.9310 C.3    87  ILE87       0.0019
    100  CG2       18.1660   16.0690   12.7540 C.3    87  ILE87       0.0019
    101  CD1       21.0050   15.9310   11.2910 C.3    87  ILE87       0.0001
    102  N         12.9700   15.5950   13.9360 N.3    89  THR89      -0.1218
    103  CA        12.4040   16.7390   14.6630 C.3    89  THR89       0.1862
    104  C         10.8830   16.6770   14.5670 C.2    89  THR89       0.2287
    105  O         10.3500   15.8970   13.7620 O.2    89  THR89      -0.2866
    106  CB        12.8990   18.1090   14.0660 C.3    89  THR89       0.1770
    107  OG1       12.4590   18.2360   12.6990 O.3    89  THR89      -0.2211
    108  CG2       14.4040   18.2020   14.1170 C.3    89  THR89       0.0375
    109  N         19.5080   32.1680   21.4610 N.3   128  LEU128     -0.1245
    110  CA        20.7390   32.0030   20.6720 C.3   128  LEU128      0.1561
    111  C         21.8730   32.9810   21.0450 C.2   128  LEU128      0.2260
    112  O         23.0010   32.5550   21.1900 O.2   128  LEU128     -0.2867
    113  CB        20.4570   32.0770   19.1490 C.3   128  LEU128      0.0270
    114  CG        19.6700   30.9370   18.4820 C.3   128  LEU128      0.0019
    115  CD1       19.5550   31.1480   16.9490 C.3   128  LEU128      0.0001
    116  CD2       20.3460   29.6360   18.7500 C.3   128  LEU128      0.0001
    117  N         25.3650   31.7900   19.8340 N.3   133  PHE133     -0.1227
    118  CA        25.2860   31.0980   18.5540 C.3   133  PHE133      0.1736
    119  C         24.9280   32.1130   17.4780 C.2   133  PHE133      0.2595
    120  O         23.8880   32.7720   17.5740 O.2   133  PHE133     -0.2718
    121  CB        24.1930   30.0300   18.5510 C.3   133  PHE133      0.0547
    122  CG        24.5800   28.7110   19.1680 C.ar  133  PHE133     -0.0202
    123  CD1       25.2070   28.6400   20.4230 C.ar  133  PHE133     -0.0042
    124  CD2       24.2390   27.5150   18.5260 C.ar  133  PHE133     -0.0042
    125  CE1       25.5430   27.3940   21.0140 C.ar  133  PHE133     -0.0003
    126  CE2       24.5580   26.2710   19.1050 C.ar  133  PHE133     -0.0003
    127  CZ        25.2190   26.2150   20.3650 C.ar  133  PHE133     -0.0000
    128  N         25.7460   32.2090   16.4360 N.am  134  ILE134     -0.1966
    129  CA        25.3990   33.0400   15.2870 C.3   134  ILE134      0.1727
    130  C         24.6410   32.2050   14.2500 C.2   134  ILE134      0.2616
    131  O         25.0980   31.1510   13.8380 O.2   134  ILE134     -0.2715
    132  CB        26.6520   33.6840   14.6470 C.3   134  ILE134      0.0290
    133  CG1       27.4200   34.5110   15.7010 C.3   134  ILE134      0.0022
    134  CG2       26.2650   34.4570   13.3810 C.3   134  ILE134      0.0023
    135  CD1       28.7640   34.9860   15.2570 C.3   134  ILE134      0.0001
    136  N         23.4740   32.6860   13.8380 N.am  135  HIS135     -0.1973
    137  CA        22.6170   31.9240   12.9540 C.3   135  HIS135      0.1656
    138  C         23.1580   32.0140   11.5170 C.2   135  HIS135      0.2291
    139  O         23.3590   30.9820   10.8920 O.2   135  HIS135     -0.2864
    140  CB        21.1730   32.4260   13.0420 C.3   135  HIS135      0.0771
    141  CG        20.2070   31.6130   12.2400 C.ar  135  HIS135      0.0820
    142  ND1       20.2510   31.5480   10.8640 N.ar  135  HIS135     -0.2267
    143  CD2       19.1680   30.8300   12.6220 C.ar  135  HIS135      0.1154
    144  CE1       19.2770   30.7670   10.4290 C.ar  135  HIS135      0.1986
    145  NE2       18.6040   30.3180   11.4780 N.ar  135  HIS135     -0.2212
    146  N          9.5290   28.3160   10.7160 N.3   144  LEU144     -0.1245
    147  CA         8.5230   27.2980   10.4990 C.3   144  LEU144      0.1561
    148  C          7.3280   27.6250   11.3380 C.2   144  LEU144      0.2260
    149  O          7.4700   28.1410   12.4470 O.2   144  LEU144     -0.2867
    150  CB         9.0540   25.9310   10.8680 C.3   144  LEU144      0.0270
    151  CG        10.1420   25.3510    9.9510 C.3   144  LEU144      0.0019
    152  CD1       10.8920   24.1800   10.6660 C.3   144  LEU144      0.0001
    153  CD2        9.5450   24.9080    8.5780 C.3   144  LEU144      0.0001
    154  N         12.4510   28.9960   14.7860 N.3   153  VAL153     -0.1231
    155  CA        13.6040   29.3040   13.9660 C.3   153  VAL153      0.1692
    156  C         14.3830   27.9950   13.7060 C.2   153  VAL153      0.2592
    157  O         14.6910   27.2370   14.6320 O.2   153  VAL153     -0.2718
    158  CB        14.5030   30.4310   14.6110 C.3   153  VAL153      0.0266
    159  CG1       15.8010   30.6300   13.8360 C.3   153  VAL153      0.0020
    160  CG2       13.7340   31.7790   14.7180 C.3   153  VAL153      0.0020
    161  N         14.6720   27.7480   12.4320 N.am  154  ALA154     -0.1966
    162  CA        15.4760   26.6260   11.9790 C.3   154  ALA154      0.1728
    163  C         16.5970   27.1380   11.0430 C.2   154  ALA154      0.2616
    164  O         16.7650   28.3320   10.8380 O.2   154  ALA154     -0.2715
    165  CB        14.5680   25.6210   11.2010 C.3   154  ALA154      0.0334
    166  N         17.3440   26.2060   10.4670 N.am  155  ASP155     -0.1957
    167  CA        18.2960   26.4850    9.4330 C.3   155  ASP155      0.1840
    168  C         18.2920   25.2630    8.5370 C.2   155  ASP155      0.2622
    169  O         18.8280   24.2260    8.9020 O.2   155  ASP155     -0.2715
    170  CB        19.6840   26.7260   10.0280 C.3   155  ASP155      0.1450
    171  CG        20.7610   26.9870    8.9500 C.2   155  ASP155      0.3671
    172  OD1       20.4980   26.8280    7.7410 O.co2 155  ASP155     -0.2456
    173  OD2       21.8940   27.3560    9.3090 O.co2 155  ASP155     -0.2456
    174  N         17.6920   25.3950    7.3590 N.am  156  PHE156     -0.1960
    175  CA        17.6600   24.3120    6.3800 C.3   156  PHE156      0.1771
    176  C         18.9010   24.1650    5.4580 C.2   156  PHE156      0.2620
    177  O         18.8440   23.3670    4.5140 O.2   156  PHE156     -0.2715
    178  CB        16.4290   24.4770    5.4910 C.3   156  PHE156      0.0574
    179  CG        15.1300   24.0110    6.1110 C.ar  156  PHE156     -0.0200
    180  CD1       14.2730   24.9260    6.7360 C.ar  156  PHE156     -0.0042
    181  CD2       14.7500   22.6570    6.0410 C.ar  156  PHE156     -0.0042
    182  CE1       13.0440   24.5230    7.3020 C.ar  156  PHE156     -0.0003
    183  CE2       13.5160   22.2160    6.6030 C.ar  156  PHE156     -0.0003
    184  CZ        12.6580   23.1480    7.2300 C.ar  156  PHE156     -0.0000
    185  N         19.9920   24.9120    5.7010 N.am  157  GLY157     -0.1954
    186  CA        21.1560   24.9790    4.7460 C.3   157  GLY157      0.1869
    187  C         20.7170   25.4250    3.3360 C.2   157  GLY157      0.2309
    188  O         21.1010   24.8310    2.3120 O.2   157  GLY157     -0.2863
    189  N         22.6600   26.0780   -0.3920 N.3   160  ARG160     -0.1245
    190  CA        22.9790   25.0110   -1.3360 C.3   160  ARG160      0.1563
    191  C         21.7540   24.3330   -1.9450 C.2   160  ARG160      0.2260
    192  O         21.8940   23.3370   -2.6250 O.2   160  ARG160     -0.2867
    193  CB        23.8970   23.9950   -0.6650 C.3   160  ARG160      0.0307
    194  CG        25.0790   24.6570    0.0160 C.3   160  ARG160      0.0489
    195  CD        26.3160   23.7740    0.1080 C.3   160  ARG160      0.2205
    196  NE        26.1500   22.6290    0.9910 N.pl3 160  ARG160     -0.0865
    197  CZ        26.8810   21.5130    0.9080 C.cat 160  ARG160      0.5346
    198  NH1       26.6680   20.5000    1.7590 N.pl3 160  ARG160      0.1354
    199  NH2       27.8340   21.3990   -0.0270 N.pl3 160  ARG160      0.1354
@<TRIPOS>BOND
     1   192   191    2
     2   191   190    1
     3   190   193    1
     4   190   189    1
     5   193   194    1
     6   199   197    1
     7   194   195    1
     8   195   196    1
     9   197   196    2
    10   197   198    1
    11   188   187    2
    12     1     2    1
    13     4     3    2
    14   187   186    1
    15     3     2    1
    16     2     5    1
    17   177   176    2
    18   186   185    1
    19     5     7    1
    20     5     6    1
    21   176   185   am
    22   176   175    1
    23   178   179    1
    24   178   175    1
    25   181   179   ar
    26   181   183   ar
    27   179   180   ar
    28    27    28    1
    29    27    26    1
    30   175   174    1
    31   183   184   ar
    32    16    15    2
    33   180   182   ar
    34    25    26    1
    35    25    24    1
    36    33    34    1
    37    33    30    1
    38    34    35    1
    39    22    21    1
    40    22    23    2
    41   184   182   ar
    42   174   168   am
    43    21    24    1
    44    21    20    1
    45    37    35   ar
    46    35    36   ar
    47   172   171   ar
    48    15    20   am
    49    15    14    1
    50    29    30    1
    51    30    31    1
    52   168   169    2
    53   168   167    1
    54   153   151    1
    55    17    14    1
    56    17    18    1
    57    17    19    1
    58    13    14    1
    59    13    10   am
    60   171   173   ar
    61   171   170    1
    62    31    32    2
    63    54    53   ar
    64   167   170    1
    65   167   166    1
    66    12     9    1
    67     9    10    1
    68     9     8    1
    69    10    11    2
    70   151   152    1
    71   151   150    1
    72    53    55   ar
    73    53    52    1
    74   144   142   ar
    75   144   145   ar
    76   166   163   am
    77    46    45    1
    78   147   146    1
    79   147   150    1
    80   147   148    1
    81   164   163    2
    82   142   141   ar
    83   139   138    2
    84    97    96    2
    85    94    95    1
    86   163   162    1
    87    44    45    1
    88    44    43    1
    89   165   162    1
    90    51    52    1
    91    51    48    1
    92   101    99    1
    93   148   149    2
    94   145   143   ar
    95   138   137    1
    96    43    42    1
    97    98    99    1
    98    98    95    1
    99    98   100    1
   100   162   161    1
   101    95    96    1
   102    42    39    1
   103   141   143   ar
   104   141   140    1
   105    47    48    1
   106    47    40   am
   107   161   156   am
   108    38    39    1
   109    48    49    1
   110   107   106    1
   111   137   140    1
   112   137   136    1
   113    39    40    1
   114    40    41    2
   115   134   132    1
   116   156   155    1
   117   156   157    2
   118    49    50    2
   119   105   104    2
   120   159   158    1
   121   136   130   am
   122   131   130    2
   123   102   103    1
   124    69    70    1
   125    69    68    1
   126   155   158    1
   127   155   154    1
   128   106   108    1
   129   106   103    1
   130    93    91    1
   131   130   129    1
   132    92    91    1
   133   104   103    1
   134   158   160    1
   135    91    88    1
   136   132   129    1
   137   132   133    1
   138   135   133    1
   139   129   128    1
   140    68    67    1
   141    62    60    1
   142    88    87    1
   143    88    89    1
   144    60    61    1
   145    60    57    1
   146   128   119   am
   147    87    81   am
   148    67    64    1
   149   115   114    1
   150    56    57    1
   151    89    90    2
   152    57    58    1
   153    63    64    1
   154    63    58   am
   155    86    84    1
   156   119   120    2
   157   119   118    1
   158    81    80    1
   159    81    82    2
   160    64    65    1
   161    58    59    2
   162    80    83    1
   163    80    79    1
   164   114   116    1
   165   114   113    1
   166   124   126   ar
   167   124   122   ar
   168   121   118    1
   169   121   122    1
   170   118   117    1
   171    84    83    1
   172    84    85    1
   173   126   127   ar
   174    65    66    2
   175   113   110    1
   176   122   123   ar
   177    76    75    1
   178    76    78    1
   179    77    75    1
   180    75    72    1
   181   127   125   ar
   182   123   125   ar
   183   110   111    1
   184   110   109    1
   185   111   112    2
   186    72    71    1
   187    72    73    1
   188    74    73    2
