@<TRIPOS>MOLECULE
tmp/3qrlA00.pdb
 100 99 0 0 0
SMALL
GASTEIGER

@<TRIPOS>ATOM
      1  N         69.6100   42.8140    4.5370 N.3    21  VAL21      -0.1245
      2  CA        69.0060   42.0010    3.4820 C.3    21  VAL21       0.1561
      3  C         69.8440   42.1570    2.2150 C.2    21  VAL21       0.2260
      4  O         70.1680   43.2760    1.8200 O.2    21  VAL21      -0.2867
      5  CB        67.5620   42.4470    3.1830 C.3    21  VAL21       0.0252
      6  CG1       66.9980   41.5820    2.0680 C.3    21  VAL21       0.0019
      7  CG2       66.6750   42.3980    4.4500 C.3    21  VAL21       0.0019
      8  N         69.2580   42.6640   -4.3710 N.3    24  VAL24      -0.1245
      9  CA        68.8360   41.7750   -5.4560 C.3    24  VAL24       0.1561
     10  C         69.2050   42.4210   -6.7860 C.2    24  VAL24       0.2260
     11  O         68.6240   43.4510   -7.1560 O.2    24  VAL24      -0.2867
     12  CB        67.3130   41.5760   -5.4280 C.3    24  VAL24       0.0252
     13  CG1       66.8680   40.6090   -6.5150 C.3    24  VAL24       0.0019
     14  CG2       66.8570   41.0890   -4.0410 C.3    24  VAL24       0.0019
     15  N         67.1990   45.9720   -0.7330 N.3    29  VAL29      -0.1245
     16  CA        65.8430   45.6900   -0.3020 C.3    29  VAL29       0.1561
     17  C         65.4570   46.7070    0.7550 C.2    29  VAL29       0.2260
     18  O         66.2720   47.0640    1.6100 O.2    29  VAL29      -0.2867
     19  CB        65.7100   44.2450    0.2180 C.3    29  VAL29       0.0252
     20  CG1       64.3480   44.0180    0.8910 C.3    29  VAL29       0.0019
     21  CG2       65.9570   43.2580   -0.9270 C.3    29  VAL29       0.0019
     22  N         59.0350   48.9730    3.5570 N.3    32  TRP32      -0.1241
     23  CA        58.1670   50.0770    3.2360 C.3    32  TRP32       0.1605
     24  C         56.8060   49.8560    3.9060 C.2    32  TRP32       0.2264
     25  O         56.4690   48.7190    4.2610 O.2    32  TRP32      -0.2867
     26  CB        58.0210   50.2980    1.7280 C.3    32  TRP32       0.0550
     27  CG        57.5740   49.1050    0.9140 C.ar   32  TRP32       0.0003
     28  CD1       58.3700   48.2430    0.2060 C.ar   32  TRP32       0.0946
     29  CD2       56.2170   48.6770    0.6820 C.ar   32  TRP32       0.0152
     30  NE1       57.5950   47.3040   -0.4420 N.ar   32  TRP32      -0.2442
     31  CE2       56.2720   47.5580   -0.1770 C.ar   32  TRP32       0.0810
     32  CE3       54.9700   49.1210    1.1400 C.ar   32  TRP32       0.0012
     33  CZ2       55.1270   46.8800   -0.5960 C.ar   32  TRP32       0.0191
     34  CZ3       53.8260   48.4460    0.7020 C.ar   32  TRP32       0.0001
     35  CH2       53.9210   47.3330   -0.1220 C.ar   32  TRP32       0.0015
     36  N         53.9460   38.8020   -7.6210 N.3    61  THR61      -0.1203
     37  CA        55.1180   38.0580   -7.1640 C.3    61  THR61       0.1994
     38  C         55.4130   38.2270   -5.6780 C.2    61  THR61       0.2618
     39  O         56.4410   37.7520   -5.2050 O.2    61  THR61      -0.2717
     40  CB        56.3940   38.4730   -7.9150 C.3    61  THR61       0.1784
     41  OG1       56.6820   39.8540   -7.6430 O.3    61  THR61      -0.2211
     42  CG2       56.2510   38.2250   -9.4200 C.3    61  THR61       0.0376
     43  N         54.6160   39.0270   -4.9720 N.am   62  PHE62      -0.1961
     44  CA        54.7030   39.0230   -3.5210 C.3    62  PHE62       0.1771
     45  C         54.1160   37.7300   -2.9930 C.2    62  PHE62       0.2619
     46  O         53.0590   37.2990   -3.4570 O.2    62  PHE62      -0.2715
     47  CB        53.9410   40.2000   -2.9100 C.3    62  PHE62       0.0574
     48  CG        54.7510   41.4500   -2.8320 C.ar   62  PHE62      -0.0200
     49  CD1       55.5150   41.7320   -1.7030 C.ar   62  PHE62      -0.0042
     50  CD2       54.8450   42.2830   -3.9280 C.ar   62  PHE62      -0.0042
     51  CE1       56.3130   42.8820   -1.6500 C.ar   62  PHE62      -0.0003
     52  CE2       55.6130   43.4450   -3.8680 C.ar   62  PHE62      -0.0003
     53  CZ        56.3550   43.7280   -2.7390 C.ar   62  PHE62      -0.0000
     54  N         54.6570   37.2780   -1.8670 N.am   63  ALA63      -0.1977
     55  CA        54.1950   36.0450   -1.2260 C.3    63  ALA63       0.1597
     56  C         52.7350   36.1340   -0.8010 C.2    63  ALA63       0.2287
     57  O         51.9600   35.1940   -0.9990 O.2    63  ALA63      -0.2864
     58  CB        55.0870   35.6930   -0.0330 C.3    63  ALA63       0.0319
     59  N         58.4180   44.3900    2.3860 N.3    79  GLN79      -0.1231
     60  CA        59.8090   44.5630    1.9730 C.3    79  GLN79       0.1698
     61  C         59.8500   44.3240    0.4860 C.2    79  GLN79       0.2593
     62  O         59.2270   43.3910   -0.0060 O.2    79  GLN79      -0.2718
     63  CB        60.6990   43.5140    2.6400 C.3    79  GLN79       0.0381
     64  CG        60.8290   43.7690    4.1030 C.3    79  GLN79       0.0905
     65  CD        61.6190   42.6790    4.7960 C.2    79  GLN79       0.2608
     66  OE1       62.3330   41.9070    4.1520 O.2    79  GLN79      -0.2717
     67  NE2       61.5630   42.6700    6.1210 N.am   79  GLN79      -0.0878
     68  N         60.7190   45.0440   -0.2080 N.am   80  GLY80      -0.1942
     69  CA        60.9960   44.6830   -1.6030 C.3    80  GLY80       0.2014
     70  C         62.1530   45.5040   -2.1290 C.2    80  GLY80       0.2639
     71  O         62.5420   46.4610   -1.4790 O.2    80  GLY80      -0.2714
     72  N         62.5160   45.2720   -3.3890 N.am   81  TRP81      -0.1959
     73  CA        63.6900   45.9080   -3.9950 C.3    81  TRP81       0.1771
     74  C         63.2930   46.7860   -5.1850 C.2    81  TRP81       0.2620
     75  O         64.0550   47.6630   -5.5860 O.2    81  TRP81      -0.2715
     76  CB        64.7100   44.8500   -4.4500 C.3    81  TRP81       0.0590
     77  CG        64.0830   43.7660   -5.2850 C.ar   81  TRP81       0.0006
     78  CD1       63.4370   42.6480   -4.8260 C.ar   81  TRP81       0.0946
     79  CD2       63.9220   43.7610   -6.7100 C.ar   81  TRP81       0.0152
     80  NE1       62.8910   41.9490   -5.8770 N.ar   81  TRP81      -0.2442
     81  CE2       63.1710   42.6110   -7.0430 C.ar   81  TRP81       0.0810
     82  CE3       64.3470   44.6100   -7.7370 C.ar   81  TRP81       0.0012
     83  CZ2       62.8700   42.2690   -8.3650 C.ar   81  TRP81       0.0191
     84  CZ3       64.0430   44.2710   -9.0510 C.ar   81  TRP81       0.0001
     85  CH2       63.3060   43.1150   -9.3520 C.ar   81  TRP81       0.0015
     86  N         62.1260   46.5270   -5.7660 N.am   82  GLY82      -0.1954
     87  CA        61.6460   47.3430   -6.8730 C.3    82  GLY82       0.1869
     88  C         60.4010   48.1020   -6.4600 C.2    82  GLY82       0.2309
     89  O         59.6320   47.6300   -5.6470 O.2    82  GLY82      -0.2863
     90  N         57.4460   48.4130   -7.3660 N.3    84  PHE84      -0.1241
     91  CA        56.2500   48.0030   -8.1240 C.3    84  PHE84       0.1605
     92  C         54.9770   48.7000   -7.6340 C.2    84  PHE84       0.2264
     93  O         54.7540   48.7820   -6.4240 O.2    84  PHE84      -0.2867
     94  CB        56.1100   46.4770   -8.0870 C.3    84  PHE84       0.0534
     95  CG        57.3200   45.7470   -8.6360 C.ar   84  PHE84      -0.0203
     96  CD1       58.0570   44.8860   -7.8330 C.ar   84  PHE84      -0.0042
     97  CD2       57.7910   46.0250   -9.9140 C.ar   84  PHE84      -0.0042
     98  CE1       59.2060   44.2770   -8.3100 C.ar   84  PHE84      -0.0003
     99  CE2       58.9440   45.4180  -10.4020 C.ar   84  PHE84      -0.0003
    100  CZ        59.6460   44.5410   -9.6010 C.ar   84  PHE84      -0.0000
@<TRIPOS>BOND
     1    99    97   ar
     2    99   100   ar
     3    97    95   ar
     4   100    98   ar
     5    42    40    1
     6    85    84   ar
     7    85    83   ar
     8    84    82   ar
     9    95    94    1
    10    95    96   ar
    11    83    81   ar
    12    98    96   ar
    13    91    94    1
    14    91    92    1
    15    91    90    1
    16    40    41    1
    17    40    37    1
    18    82    79   ar
    19    92    93    2
    20    36    37    1
    21    37    38    1
    22    11    10    2
    23    81    79   ar
    24    81    80   ar
    25    87    88    1
    26    87    86    1
    27    10     9    1
    28    79    77   ar
    29    13    12    1
    30    88    89    2
    31    80    78   ar
    32    86    74   am
    33    38    39    2
    34    38    43   am
    35    75    74    2
    36     9    12    1
    37     9     8    1
    38    12    14    1
    39    77    78   ar
    40    77    76    1
    41    74    73    1
    42    43    44    1
    43    76    73    1
    44    73    72    1
    45    50    52   ar
    46    50    48   ar
    47    52    53   ar
    48    44    45    1
    49    44    47    1
    50    46    45    2
    51    72    70   am
    52    45    54   am
    53    47    48    1
    54    48    49   ar
    55    53    51   ar
    56    70    69    1
    57    70    71    2
    58    54    55    1
    59    49    51   ar
    60    69    68    1
    61    55    56    1
    62    55    58    1
    63    57    56    2
    64    21    19    1
    65    15    16    1
    66    33    31   ar
    67    33    35   ar
    68    30    31   ar
    69    30    28   ar
    70    16    19    1
    71    16    17    1
    72    68    61   am
    73    31    29   ar
    74    35    34   ar
    75    62    61    2
    76    28    27   ar
    77    19    20    1
    78    61    60    1
    79    29    27   ar
    80    29    32   ar
    81    34    32   ar
    82    17    18    2
    83    27    26    1
    84    26    23    1
    85     4     3    2
    86    60    59    1
    87    60    63    1
    88     6     5    1
    89     3     2    1
    90    63    64    1
    91     5     2    1
    92     5     7    1
    93    23    22    1
    94    23    24    1
    95     2     1    1
    96    24    25    2
    97    64    65    1
    98    66    65    2
    99    65    67   am
