@<TRIPOS>MOLECULE
tmp/3qrmA00.pdb
 108 99 0 0 0
SMALL
GASTEIGER

@<TRIPOS>ATOM
      1  N          3.0000   19.4070    5.9450 N.3     8  ARG8       -0.1245
      2  CA         4.1580   18.6520    6.4310 C.3     8  ARG8        0.1563
      3  C          3.7360   17.2590    6.8970 C.2     8  ARG8        0.2260
      4  O          2.7310   17.1110    7.5980 O.2     8  ARG8       -0.2867
      5  CB         4.8490   19.3860    7.5830 C.3     8  ARG8        0.0307
      6  CG         5.4170   20.7470    7.2230 C.3     8  ARG8        0.0489
      7  CD         6.2120   21.3400    8.3870 C.3     8  ARG8        0.2205
      8  NE         6.9910   22.4900    7.9310 N.pl3   8  ARG8       -0.0865
      9  CZ         7.6290   23.3360    8.7340 C.cat   8  ARG8        0.5346
     10  NH1        7.5840   23.1710   10.0530 N.pl3   8  ARG8        0.1354
     11  NH2        8.3090   24.3540    8.2160 N.pl3   8  ARG8        0.1354
     12  N          8.8440   14.7960   11.7030 N.3    23  LEU23      -0.1245
     13  CA         8.6170   14.9910   10.2750 C.3    23  LEU23       0.1561
     14  C          9.2870   13.8780    9.4730 C.2    23  LEU23       0.2260
     15  O         10.4670   13.5940    9.6680 O.2    23  LEU23      -0.2867
     16  CB         9.2040   16.3480    9.8870 C.3    23  LEU23       0.0270
     17  CG         9.1770   16.8280    8.4450 C.3    23  LEU23       0.0019
     18  CD1        7.7680   17.2100    8.0520 C.3    23  LEU23       0.0001
     19  CD2       10.0790   18.0430    8.3260 C.3    23  LEU23       0.0001
     20  N         11.1710   12.8310    6.6120 N.3    25  ASP25      -0.1239
     21  CA        11.9980   13.7440    5.8230 C.3    25  ASP25       0.1674
     22  C         12.9590   13.0160    4.8840 C.2    25  ASP25       0.2266
     23  O         14.0440   12.6120    5.2910 O.2    25  ASP25      -0.2867
     24  CB        12.7830   14.6530    6.7710 C.3    25  ASP25       0.1410
     25  CG        13.4990   15.7620    6.0540 C.2    25  ASP25       0.3668
     26  OD1       13.7250   15.6350    4.8370 O.co2  25  ASP25      -0.2456
     27  OD2       13.8400   16.7700    6.7130 O.co2  25  ASP25      -0.2456
     28  N         14.7610   14.1270    2.6150 N.3    27  GLY27      -0.1210
     29  CA        15.9500   14.9030    2.3000 C.3    27  GLY27       0.1956
     30  C         17.0140   14.7910    3.3810 C.2    27  GLY27       0.2612
     31  O         18.1380   15.2370    3.1990 O.2    27  GLY27      -0.2717
     32  N         16.6520   14.1960    4.5140 N.am   28  ALA28      -0.1965
     33  CA        17.5700   14.0500    5.6470 C.3    28  ALA28       0.1728
     34  C         18.2570   12.6930    5.6200 C.2    28  ALA28       0.2616
     35  O         17.5790   11.6690    5.6470 O.2    28  ALA28      -0.2715
     36  CB        16.7860   14.1760    6.9560 C.3    28  ALA28       0.0334
     37  N         19.5880   12.6660    5.5740 N.am   29  ASP29      -0.1957
     38  CA        20.2920   11.3780    5.6520 C.3    29  ASP29       0.1840
     39  C         20.0590   10.7110    7.0010 C.2    29  ASP29       0.2622
     40  O         19.9730    9.4800    7.0940 O.2    29  ASP29      -0.2715
     41  CB        21.7990   11.5480    5.4740 C.3    29  ASP29       0.1450
     42  CG        22.1750   12.2020    4.1640 C.2    29  ASP29       0.3671
     43  OD1       21.4730   12.0130    3.1500 O.co2  29  ASP29      -0.2456
     44  OD2       23.2050   12.9090    4.1560 O.co2  29  ASP29      -0.2456
     45  N         19.9750   11.5340    8.0460 N.am   30  ASP30      -0.1971
     46  CA        19.9970   11.0560    9.4200 C.3    30  ASP30       0.1709
     47  C         18.7650   11.5340   10.1640 C.2    30  ASP30       0.2293
     48  O         18.1200   12.5030    9.7740 O.2    30  ASP30      -0.2864
     49  CB        21.2270   11.6000   10.1630 C.3    30  ASP30       0.1436
     50  CG        22.5280   11.3590    9.4140 C.2    30  ASP30       0.3671
     51  OD1       22.7080   10.2540    8.8740 O.co2  30  ASP30      -0.2456
     52  OD2       23.3690   12.2850    9.3630 O.co2  30  ASP30      -0.2456
     53  N         17.1580   13.2910   13.4210 N.3    32  VAL32      -0.1245
     54  CA        17.5840   14.3230   14.3590 C.3    32  VAL32       0.1561
     55  C         16.4340   14.7160   15.2860 C.2    32  VAL32       0.2260
     56  O         15.3630   15.1390   14.8290 O.2    32  VAL32      -0.2867
     57  CB        18.0320   15.5960   13.6320 C.3    32  VAL32       0.0252
     58  CG1       18.7980   16.5080   14.5910 C.3    32  VAL32       0.0019
     59  CG2       18.8760   15.2430   12.4040 C.3    32  VAL32       0.0019
     60  N         28.9230   15.3770   16.5830 N.3    45  LYS45      -0.1245
     61  CA        28.8270   15.4280   15.1340 C.3    45  LYS45       0.1561
     62  C         28.3230   16.8090   14.7510 C.2    45  LYS45       0.2260
     63  O         27.6010   17.4430   15.5240 O.2    45  LYS45      -0.2867
     64  CB        27.8390   14.3640   14.6540 C.3    45  LYS45       0.0271
     65  CG        27.7310   14.1790   13.1490 C.3    45  LYS45       0.0035
     66  CD        26.7980   13.0060   12.8650 C.3    45  LYS45       0.0206
     67  CE        26.4010   12.8800   11.4070 C.3    45  LYS45       0.1093
     68  NZ        27.5010   12.3490   10.5740 N.3    45  LYS45      -0.1314
     69  N         26.0720   18.7350   11.7620 N.3    47  ILE47      -0.1231
     70  CA        25.2190   18.5570   10.5940 C.3    47  ILE47       0.1692
     71  C         24.7180   19.9120   10.1430 C.2    47  ILE47       0.2593
     72  O         24.6290   20.8490   10.9310 O.2    47  ILE47      -0.2718
     73  CB        24.0110   17.6490   10.8940 C.3    47  ILE47       0.0266
     74  CG1       23.1580   18.2380   12.0140 C.3    47  ILE47       0.0019
     75  CG2       24.4880   16.2410   11.2390 C.3    47  ILE47       0.0020
     76  CD1       21.9280   17.3820   12.3370 C.3    47  ILE47       0.0001
     77  N         24.4050   20.0360    8.8660 N.am   48  GLY48      -0.1942
     78  CA        24.0290   21.3480    8.3970 C.3    48  GLY48       0.2014
     79  C         23.2140   21.3480    7.1390 C.2    48  GLY48       0.2639
     80  O         22.9060   20.3160    6.5580 O.2    48  GLY48      -0.2714
     81  N         22.8770   22.5510    6.7180 N.am   49  GLY49      -0.1939
     82  CA        22.0550   22.7290    5.5480 C.3    49  GLY49       0.2014
     83  C         21.9180   24.2120    5.3670 C.2    49  GLY49       0.2638
     84  O         22.7930   24.9830    5.7660 O.2    49  GLY49      -0.2714
     85  N         20.8030   24.6040    4.7710 N.am   50  ILE50      -0.1977
     86  CA        20.4870   26.0020    4.6270 C.3    50  ILE50       0.1596
     87  C         20.4670   26.6230    6.0130 C.2    50  ILE50       0.2287
     88  O         19.9210   26.0550    6.9590 O.2    50  ILE50      -0.2864
     89  CB        19.1470   26.1790    3.8940 C.3    50  ILE50       0.0276
     90  CG1       19.3430   25.8500    2.4140 C.3    50  ILE50       0.0022
     91  CG2       18.6170   27.5870    4.0710 C.3    50  ILE50       0.0022
     92  CD1       18.0870   25.9630    1.5770 C.3    50  ILE50       0.0001
     93  N         20.4550   11.3520   16.1390 N.3    76  LEU76      -0.1245
     94  CA        21.2530   12.5160   16.4960 C.3    76  LEU76       0.1561
     95  C         20.3930   13.4000   17.3930 C.2    76  LEU76       0.2260
     96  O         19.2010   13.5720   17.1370 O.2    76  LEU76      -0.2867
     97  CB        21.6530   13.2690   15.2290 C.3    76  LEU76       0.0270
     98  CG        22.3260   12.4260   14.1430 C.3    76  LEU76       0.0019
     99  CD1       22.7080   13.2830   12.9550 C.3    76  LEU76       0.0001
    100  CD2       23.5560   11.7390   14.7170 C.3    76  LEU76       0.0001
    101  N         13.0630   15.2860   13.2210 N.3    84  ILE84      -0.1245
    102  CA        13.1750   14.8070   11.8470 C.3    84  ILE84       0.1561
    103  C         13.4580   13.3100   11.8030 C.2    84  ILE84       0.2260
    104  O         14.3950   12.8380   12.4300 O.2    84  ILE84      -0.2867
    105  CB        14.3180   15.5450   11.1280 C.3    84  ILE84       0.0252
    106  CG1       13.9340   17.0050   10.8960 C.3    84  ILE84       0.0019
    107  CG2       14.6650   14.8570    9.8130 C.3    84  ILE84       0.0019
    108  CD1       15.1210   17.9210   10.7900 C.3    84  ILE84       0.0001
@<TRIPOS>BOND
     1    92    90    1
     2    29    28    1
     3    29    30    1
     4    90    89    1
     5    43    42   ar
     6    31    30    2
     7    30    32   am
     8    89    91    1
     9    89    86    1
    10    44    42   ar
    11    42    41    1
    12    32    33    1
    13    86    85    1
    14    86    87    1
    15    85    83   am
    16    26    25   ar
    17    22    23    2
    18    22    21    1
    19    83    82    1
    20    83    84    2
    21    41    38    1
    22    82    81    1
    23    37    34   am
    24    37    38    1
    25    34    33    1
    26    34    35    2
    27    33    36    1
    28    38    39    1
    29    21    20    1
    30    21    24    1
    31     1     2    1
    32    87    88    2
    33    25    27   ar
    34    25    24    1
    35     2     3    1
    36     2     5    1
    37    80    79    2
    38    81    79   am
    39     3     4    2
    40    39    40    2
    41    39    45   am
    42    79    78    1
    43     6     5    1
    44     6     7    1
    45     8     7    1
    46     8     9    2
    47    45    46    1
    48    18    17    1
    49    11     9    1
    50    19    17    1
    51    78    77    1
    52    17    16    1
    53     9    10    1
    54    77    71   am
    55    51    50   ar
    56    52    50   ar
    57    50    49    1
    58    46    49    1
    59    46    47    1
    60    14    15    2
    61    14    13    1
    62    48    47    2
    63   107   105    1
    64    16    13    1
    65    71    70    1
    66    71    72    2
    67    13    12    1
    68    68    67    1
    69    70    73    1
    70    70    69    1
    71   108   106    1
    72    73    75    1
    73    73    74    1
    74   106   105    1
    75   105   102    1
    76    67    66    1
    77   103   102    1
    78   103   104    2
    79   102   101    1
    80    74    76    1
    81    59    57    1
    82    66    65    1
    83    99    98    1
    84    65    64    1
    85    53    54    1
    86    57    54    1
    87    57    58    1
    88    98   100    1
    89    98    97    1
    90    54    55    1
    91    64    61    1
    92    62    61    1
    93    62    63    2
    94    56    55    2
    95    61    60    1
    96    97    94    1
    97    93    94    1
    98    94    95    1
    99    96    95    2
