@<TRIPOS>MOLECULE
tmp/3qroB00.pdb
 112 105 0 0 0
SMALL
GASTEIGER

@<TRIPOS>ATOM
      1  N        -20.0890    8.4900    1.1340 N.3     8  ARG8       -0.1245
      2  CA       -19.3620    9.7450    1.3290 C.3     8  ARG8        0.1563
      3  C        -18.5060    9.6710    2.5850 C.2     8  ARG8        0.2260
      4  O        -18.9740    9.1930    3.6230 O.2     8  ARG8       -0.2867
      5  CB       -20.3350   10.9100    1.4510 C.3     8  ARG8        0.0307
      6  CG       -21.0740   11.1870    0.1700 C.3     8  ARG8        0.0489
      7  CD       -22.0310   12.3580    0.3440 C.3     8  ARG8        0.2205
      8  NE       -22.7230   12.6600   -0.9110 N.pl3   8  ARG8       -0.0865
      9  CZ       -23.7350   13.5170   -1.0130 C.cat   8  ARG8        0.5346
     10  NH1      -24.1730   14.1660    0.0640 N.pl3   8  ARG8        0.1354
     11  NH2      -24.3170   13.7270   -2.1810 N.pl3   8  ARG8        0.1354
     12  N        -17.0550   16.7110    5.0980 N.3    23  LEU23      -0.1245
     13  CA       -16.6480   15.7450    4.0950 C.3    23  LEU23       0.1561
     14  C        -15.1500   15.8130    3.8400 C.2    23  LEU23       0.2260
     15  O        -14.6150   16.8940    3.6160 O.2    23  LEU23      -0.2867
     16  CB       -17.3720   16.1030    2.7990 C.3    23  LEU23       0.0270
     17  CG       -17.1240   15.2590    1.5620 C.3    23  LEU23       0.0019
     18  CD1      -17.7220   13.8770    1.7690 C.3    23  LEU23       0.0001
     19  CD2      -17.7750   15.9540    0.3710 C.3    23  LEU23       0.0001
     20  N        -12.4760   15.8140    1.4070 N.3    25  ASP25      -0.1239
     21  CA       -12.6500   16.1080   -0.0200 C.3    25  ASP25       0.1674
     22  C        -11.3050   16.3940   -0.6890 C.2    25  ASP25       0.2266
     23  O        -10.8040   17.5270   -0.6240 O.2    25  ASP25      -0.2867
     24  CB       -13.5810   17.3330   -0.1380 C.3    25  ASP25       0.1410
     25  CG       -14.0450   17.6030   -1.5600 C.2    25  ASP25       0.3668
     26  OD1      -13.3680   17.1700   -2.5200 O.co2  25  ASP25      -0.2456
     27  OD2      -15.1040   18.2630   -1.7030 O.co2  25  ASP25      -0.2456
     28  N        -10.6650   16.6730   -3.6690 N.3    27  GLY27      -0.1210
     29  CA       -10.8300   17.5550   -4.8270 C.3    27  GLY27       0.1956
     30  C        -10.9430   19.0220   -4.4610 C.2    27  GLY27       0.2612
     31  O        -10.9510   19.8910   -5.3430 O.2    27  GLY27      -0.2717
     32  N        -11.0080   19.3270   -3.1760 N.am   28  ALA28      -0.1965
     33  CA       -11.0790   20.7190   -2.7520 C.3    28  ALA28       0.1728
     34  C         -9.6950   21.1680   -2.2890 C.2    28  ALA28       0.2616
     35  O         -9.0810   20.5250   -1.4350 O.2    28  ALA28      -0.2715
     36  CB       -12.0960   20.8530   -1.6210 C.3    28  ALA28       0.0334
     37  N         -9.1670   22.2450   -2.8750 N.am   29  ASP29      -0.1957
     38  CA        -7.8840   22.7650   -2.3920 C.3    29  ASP29       0.1840
     39  C         -7.9840   23.2770   -0.9540 C.2    29  ASP29       0.2622
     40  O         -7.0190   23.1820   -0.1850 O.2    29  ASP29      -0.2715
     41  CB        -7.4350   23.9520   -3.2390 C.3    29  ASP29       0.1450
     42  CG        -7.1310   23.5810   -4.6840 C.2    29  ASP29       0.3671
     43  OD1       -6.8530   22.3990   -4.9920 O.co2  29  ASP29      -0.2456
     44  OD2       -7.1400   24.5170   -5.5240 O.co2  29  ASP29      -0.2456
     45  N         -9.1350   23.8570   -0.6190 N.am   30  ASP30      -0.1971
     46  CA        -9.3060   24.5790    0.6350 C.3    30  ASP30       0.1709
     47  C        -10.3840   23.9490    1.5030 C.2    30  ASP30       0.2293
     48  O        -11.1290   23.0880    1.0550 O.2    30  ASP30      -0.2864
     49  CB        -9.7190   26.0260    0.3280 C.3    30  ASP30       0.1436
     50  CG        -8.8180   26.6830   -0.6810 C.2    30  ASP30       0.3671
     51  OD1       -9.3040   27.0010   -1.7870 O.co2  30  ASP30      -0.2456
     52  OD2       -7.6220   26.8450   -0.3710 O.co2  30  ASP30      -0.2456
     53  N        -13.8160   24.6260    3.4670 N.3    32  VAL32      -0.1245
     54  CA       -14.9330   25.5680    3.4080 C.3    32  VAL32       0.1561
     55  C        -16.0270   25.1160    4.3740 C.2    32  VAL32       0.2260
     56  O        -16.5030   23.9800    4.3050 O.2    32  VAL32      -0.2867
     57  CB       -15.5260   25.6630    1.9910 C.3    32  VAL32       0.0252
     58  CG1      -16.5200   26.8190    1.9520 C.3    32  VAL32       0.0019
     59  CG2      -14.4380   25.8990    0.9660 C.3    32  VAL32       0.0019
     60  N        -12.9210   31.5860   -4.6910 N.3    47  ILE47      -0.1231
     61  CA       -12.6350   30.1910   -4.9640 C.3    47  ILE47       0.1692
     62  C        -13.5200   29.6930   -6.0960 C.2    47  ILE47       0.2593
     63  O        -14.6470   30.1580   -6.2660 O.2    47  ILE47      -0.2718
     64  CB       -12.8050   29.3060   -3.7160 C.3    47  ILE47       0.0266
     65  CG1      -14.1720   29.4920   -3.0720 C.3    47  ILE47       0.0019
     66  CG2      -11.7060   29.6120   -2.6980 C.3    47  ILE47       0.0020
     67  CD1      -14.4500   28.4390   -1.9770 C.3    47  ILE47       0.0001
     68  N        -12.9920   28.7530   -6.8640 N.am   48  GLY48      -0.1942
     69  CA       -13.7230   28.1890   -7.9770 C.3    48  GLY48       0.2014
     70  C        -14.2600   26.8250   -7.6120 C.2    48  GLY48       0.2639
     71  O        -13.5210   25.9660   -7.1320 O.2    48  GLY48      -0.2714
     72  N        -15.5520   26.6420   -7.8290 N.am   49  GLY49      -0.1939
     73  CA       -16.1730   25.3510   -7.6150 C.3    49  GLY49       0.2014
     74  C        -16.7460   24.8520   -8.9220 C.2    49  GLY49       0.2638
     75  O        -16.5120   25.4190   -9.9970 O.2    49  GLY49      -0.2714
     76  N        -17.5260   23.7890   -8.8230 N.am   50  ILE50      -0.1977
     77  CA       -18.0860   23.1590  -10.0010 C.3    50  ILE50       0.1596
     78  C        -18.9210   24.1260  -10.8440 C.2    50  ILE50       0.2287
     79  O        -18.9130   24.0440  -12.0630 O.2    50  ILE50      -0.2864
     80  CB       -18.9280   21.9220   -9.6010 C.3    50  ILE50       0.0276
     81  CG1      -19.3460   21.1190  -10.8370 C.3    50  ILE50       0.0022
     82  CG2      -20.1180   22.3490   -8.7410 C.3    50  ILE50       0.0022
     83  CD1      -18.1950   20.3940  -11.5100 C.3    50  ILE50       0.0001
     84  N        -21.9330   26.6550    1.1420 N.3    80  THR80      -0.1204
     85  CA       -21.3870   25.4110    0.6330 C.3    80  THR80       0.1979
     86  C        -22.4130   24.3050    0.8340 C.2    80  THR80       0.2460
     87  O        -23.1740   24.3340    1.7850 O.2    80  THR80      -0.2732
     88  CB       -20.0460   25.0690    1.3170 C.3    80  THR80       0.1783
     89  OG1      -19.6060   23.7820    0.8670 O.3    80  THR80      -0.2211
     90  CG2      -20.1850   25.0580    2.8470 C.3    80  THR80       0.0376
     91  N        -22.4870   23.3440   -0.0980 N.am   81  PRO81      -0.2717
     92  CA       -23.4930   22.2880    0.0600 C.3    81  PRO81       0.1535
     93  C        -23.3030   21.4400    1.3150 C.2    81  PRO81       0.2598
     94  O        -24.2730   20.9540    1.8930 O.2    81  PRO81      -0.2715
     95  CB       -23.2870   21.4250   -1.1900 C.3    81  PRO81       0.0310
     96  CG       -21.9230   21.7910   -1.7010 C.3    81  PRO81       0.0237
     97  CD       -21.7580   23.2270   -1.3720 C.3    81  PRO81       0.0939
     98  N        -22.0460   21.2740    1.7140 N.am   82  VAL82      -0.1978
     99  CA       -21.6880   20.5420    2.9270 C.3    82  VAL82       0.1596
    100  C        -20.3860   21.1400    3.4330 C.2    82  VAL82       0.2287
    101  O        -19.6660   21.7960    2.6780 O.2    82  VAL82      -0.2864
    102  CB       -21.4500   19.0410    2.6750 C.3    82  VAL82       0.0276
    103  CG1      -22.7380   18.3510    2.2440 C.3    82  VAL82       0.0022
    104  CG2      -20.3490   18.8550    1.6460 C.3    82  VAL82       0.0022
    105  N        -16.6740   21.2170    4.0560 N.3    84  ILE84      -0.1245
    106  CA       -15.6440   20.5310    3.2830 C.3    84  ILE84       0.1561
    107  C        -14.2760   20.6590    3.9330 C.2    84  ILE84       0.2260
    108  O        -13.8010   21.7550    4.1880 O.2    84  ILE84      -0.2867
    109  CB       -15.5870   21.1050    1.8580 C.3    84  ILE84       0.0252
    110  CG1      -16.8410   20.6880    1.0800 C.3    84  ILE84       0.0019
    111  CG2      -14.3390   20.6610    1.1340 C.3    84  ILE84       0.0019
    112  CD1      -17.1260   21.5820   -0.0900 C.3    84  ILE84       0.0001
@<TRIPOS>BOND
     1    79    78    2
     2    83    81    1
     3    78    77    1
     4    81    80    1
     5    77    80    1
     6    77    76    1
     7    75    74    2
     8    80    82    1
     9    74    76   am
    10    74    73    1
    11    69    70    1
    12    69    68    1
    13    72    73    1
    14    72    70   am
    15    70    71    2
    16    68    62   am
    17    63    62    2
    18    62    61    1
    19    44    42   ar
    20    31    30    2
    21    43    42   ar
    22    61    60    1
    23    61    64    1
    24    29    30    1
    25    29    28    1
    26    42    41    1
    27    30    32   am
    28    64    65    1
    29    64    66    1
    30    41    38    1
    31    32    33    1
    32    65    67    1
    33    37    38    1
    34    37    34   am
    35    33    34    1
    36    33    36    1
    37    26    25   ar
    38    38    39    1
    39    34    35    2
    40    11     9    1
    41    51    50   ar
    42    27    25   ar
    43    96    97    1
    44    96    95    1
    45    25    24    1
    46    97    91    1
    47    95    92    1
    48     9     8    2
    49     9    10    1
    50    39    45   am
    51    39    40    2
    52     8     7    1
    53    22    23    2
    54    22    21    1
    55    50    52   ar
    56    50    49    1
    57    45    46    1
    58    24    21    1
    59    91    92    1
    60    91    86   am
    61   112   110    1
    62    21    20    1
    63    92    93    1
    64     6     7    1
    65     6     5    1
    66    49    46    1
    67    19    17    1
    68    85    86    1
    69    85    84    1
    70    85    88    1
    71    46    47    1
    72    86    87    2
    73    89    88    1
    74    59    57    1
    75    48    47    2
    76   110   109    1
    77   111   109    1
    78     1     2    1
    79    93    98   am
    80    93    94    2
    81    88    90    1
    82     2     5    1
    83     2     3    1
    84    17    18    1
    85    17    16    1
    86   104   102    1
    87    98    99    1
    88   109   106    1
    89    58    57    1
    90    57    54    1
    91   103   102    1
    92     3     4    2
    93   102    99    1
    94   101   100    2
    95    16    13    1
    96    99   100    1
    97   106   107    1
    98   106   105    1
    99    54    53    1
   100    54    55    1
   101    15    14    2
   102    14    13    1
   103   107   108    2
   104    13    12    1
   105    56    55    2
