@<TRIPOS>MOLECULE
tmp/3qrsA00.pdb
 108 99 0 0 0
SMALL
GASTEIGER

@<TRIPOS>ATOM
      1  N         -3.0930   19.5100   -6.0030 N.3     8  ARG8       -0.1245
      2  CA        -4.2290   18.7530   -6.5130 C.3     8  ARG8        0.1563
      3  C         -3.8130   17.3650   -6.9780 C.2     8  ARG8        0.2260
      4  O         -2.8330   17.2190   -7.7250 O.2     8  ARG8       -0.2867
      5  CB        -4.9070   19.5050   -7.6560 C.3     8  ARG8        0.0307
      6  CG        -5.5640   20.8030   -7.2180 C.3     8  ARG8        0.0489
      7  CD        -6.2470   21.5040   -8.3830 C.3     8  ARG8        0.2205
      8  NE        -7.1090   22.5950   -7.9270 N.pl3   8  ARG8       -0.0865
      9  CZ        -7.6650   23.4930   -8.7380 C.cat   8  ARG8        0.5346
     10  NH1       -7.4530   23.4220  -10.0470 N.pl3   8  ARG8        0.1354
     11  NH2       -8.4330   24.4580   -8.2490 N.pl3   8  ARG8        0.1354
     12  N         -8.8570   14.7970  -11.6980 N.3    23  LEU23      -0.1245
     13  CA        -8.6370   15.0150  -10.2650 C.3    23  LEU23       0.1561
     14  C         -9.2930   13.8990   -9.4670 C.2    23  LEU23       0.2260
     15  O        -10.4770   13.6130   -9.6640 O.2    23  LEU23      -0.2867
     16  CB        -9.2420   16.3650   -9.8800 C.3    23  LEU23       0.0270
     17  CG        -9.1620   16.8760   -8.4460 C.3    23  LEU23       0.0019
     18  CD1       -7.7380   17.2420   -8.1260 C.3    23  LEU23       0.0001
     19  CD2      -10.0620   18.0930   -8.2760 C.3    23  LEU23       0.0001
     20  N        -11.1770   12.8600   -6.6370 N.3    25  ASP25      -0.1239
     21  CA       -12.0260   13.7670   -5.8700 C.3    25  ASP25       0.1674
     22  C        -12.9970   13.0120   -4.9730 C.2    25  ASP25       0.2266
     23  O        -14.0630   12.5550   -5.4240 O.2    25  ASP25      -0.2867
     24  CB       -12.7750   14.6890   -6.8440 C.3    25  ASP25       0.1410
     25  CG       -13.5280   15.8030   -6.1410 C.2    25  ASP25       0.3668
     26  OD1      -13.7900   15.6890   -4.9220 O.co2  25  ASP25      -0.2456
     27  OD2      -13.8760   16.7970   -6.8200 O.co2  25  ASP25      -0.2456
     28  N        -14.8650   14.1100   -2.7850 N.3    27  GLY27      -0.1210
     29  CA       -16.0540   14.9080   -2.5210 C.3    27  GLY27       0.1956
     30  C        -17.0940   14.7570   -3.6200 C.2    27  GLY27       0.2612
     31  O        -18.2250   15.2320   -3.4880 O.2    27  GLY27      -0.2717
     32  N        -16.7020   14.1230   -4.7220 N.am   28  ALA28      -0.1965
     33  CA       -17.6010   13.9530   -5.8700 C.3    28  ALA28       0.1728
     34  C        -18.2760   12.6010   -5.7970 C.2    28  ALA28       0.2616
     35  O        -17.5930   11.5910   -5.7320 O.2    28  ALA28      -0.2715
     36  CB       -16.8160   14.0460   -7.1560 C.3    28  ALA28       0.0334
     37  N        -19.6070   12.5820   -5.8150 N.am   29  ASP29      -0.1957
     38  CA       -20.3310   11.3110   -5.7850 C.3    29  ASP29       0.1840
     39  C        -20.0310   10.5590   -7.0780 C.2    29  ASP29       0.2622
     40  O        -19.7860    9.3540   -7.0640 O.2    29  ASP29      -0.2715
     41  CB       -21.8420   11.5270   -5.6860 C.3    29  ASP29       0.1450
     42  CG       -22.2870   12.1510   -4.3590 C.2    29  ASP29       0.3671
     43  OD1      -21.6330   11.9630   -3.3140 O.co2  29  ASP29      -0.2456
     44  OD2      -23.3260   12.8500   -4.3710 O.co2  29  ASP29      -0.2456
     45  N        -20.0990   11.2800   -8.1980 N.am   30  ASP30      -0.1971
     46  CA       -19.8580   10.7040   -9.5130 C.3    30  ASP30       0.1709
     47  C        -18.7340   11.4140  -10.2360 C.2    30  ASP30       0.2293
     48  O        -18.3320   12.5370   -9.8930 O.2    30  ASP30      -0.2864
     49  CB       -21.1190   10.7490  -10.3800 C.3    30  ASP30       0.1436
     50  CG       -22.1080    9.6560  -10.0300 C.2    30  ASP30       0.3671
     51  OD1      -21.7290    8.4680  -10.0310 O.co2  30  ASP30      -0.2456
     52  OD2      -23.2630    9.9960   -9.7100 O.co2  30  ASP30      -0.2456
     53  N        -17.1150   13.2770  -13.3940 N.3    32  VAL32      -0.1245
     54  CA       -17.5730   14.3200  -14.3040 C.3    32  VAL32       0.1561
     55  C        -16.4480   14.6990  -15.2580 C.2    32  VAL32       0.2260
     56  O        -15.3670   15.1040  -14.8320 O.2    32  VAL32      -0.2867
     57  CB       -18.0090   15.5860  -13.5490 C.3    32  VAL32       0.0252
     58  CG1      -18.8720   16.4460  -14.4570 C.3    32  VAL32       0.0019
     59  CG2      -18.7510   15.2080  -12.2650 C.3    32  VAL32       0.0019
     60  N        -28.9890   15.2500  -16.4600 N.3    45  LYS45      -0.1245
     61  CA       -28.9380   15.3420  -15.0070 C.3    45  LYS45       0.1561
     62  C        -28.3930   16.7230  -14.6420 C.2    45  LYS45       0.2260
     63  O        -27.7060   17.3400  -15.4450 O.2    45  LYS45      -0.2867
     64  CB       -28.0120   14.2440  -14.4710 C.3    45  LYS45       0.0271
     65  CG       -27.8970   14.1110  -12.9710 C.3    45  LYS45       0.0035
     66  CD       -26.9180   12.9830  -12.6380 C.3    45  LYS45       0.0206
     67  CE       -26.5630   12.9060  -11.1570 C.3    45  LYS45       0.1093
     68  NZ       -27.5810   12.1730  -10.3550 N.3    45  LYS45      -0.1314
     69  N        -26.0210   18.6360  -11.6420 N.3    47  ILE47      -0.1231
     70  CA       -25.1460   18.4860  -10.4780 C.3    47  ILE47       0.1692
     71  C        -24.6580   19.8620  -10.0630 C.2    47  ILE47       0.2593
     72  O        -24.6130   20.7760  -10.8810 O.2    47  ILE47      -0.2718
     73  CB       -23.9390   17.5480  -10.7340 C.3    47  ILE47       0.0266
     74  CG1      -23.0820   18.0620  -11.8910 C.3    47  ILE47       0.0019
     75  CG2      -24.3980   16.1040  -10.9770 C.3    47  ILE47       0.0020
     76  CD1      -21.7820   17.2990  -12.0210 C.3    47  ILE47       0.0001
     77  N        -24.3070   20.0370   -8.7920 N.am   48  GLY48      -0.1942
     78  CA       -23.9350   21.3720   -8.3660 C.3    48  GLY48       0.2014
     79  C        -23.2390   21.4230   -7.0280 C.2    48  GLY48       0.2639
     80  O        -23.0010   20.4110   -6.3940 O.2    48  GLY48      -0.2714
     81  N        -22.9390   22.6350   -6.5910 N.am   49  GLY49      -0.1939
     82  CA       -22.1730   22.8250   -5.3760 C.3    49  GLY49       0.2014
     83  C        -22.0010   24.3160   -5.2510 C.2    49  GLY49       0.2638
     84  O        -22.9120   25.0650   -5.5920 O.2    49  GLY49      -0.2714
     85  N        -20.8380   24.7400   -4.7770 N.am   50  ILE50      -0.1977
     86  CA       -20.4570   26.1370   -4.7550 C.3    50  ILE50       0.1596
     87  C        -20.4810   26.6970   -6.1860 C.2    50  ILE50       0.2287
     88  O        -19.9610   26.0850   -7.1280 O.2    50  ILE50      -0.2864
     89  CB       -19.0570   26.2930   -4.1090 C.3    50  ILE50       0.0276
     90  CG1      -19.1630   26.0110   -2.6070 C.3    50  ILE50       0.0022
     91  CG2      -18.4660   27.6710   -4.4110 C.3    50  ILE50       0.0022
     92  CD1      -17.8300   25.9370   -1.8680 C.3    50  ILE50       0.0001
     93  N        -20.4350   11.3670  -16.0470 N.3    76  LEU76      -0.1245
     94  CA       -21.2280   12.5450  -16.3710 C.3    76  LEU76       0.1561
     95  C        -20.3760   13.4420  -17.2560 C.2    76  LEU76       0.2260
     96  O        -19.2150   13.6930  -16.9450 O.2    76  LEU76      -0.2867
     97  CB       -21.6540   13.2860  -15.0900 C.3    76  LEU76       0.0270
     98  CG       -22.3110   12.4190  -14.0020 C.3    76  LEU76       0.0019
     99  CD1      -22.6280   13.2610  -12.7710 C.3    76  LEU76       0.0001
    100  CD2      -23.5710   11.7470  -14.5210 C.3    76  LEU76       0.0001
    101  N        -13.0840   15.2730  -13.3100 N.3    84  ILE84      -0.1245
    102  CA       -13.1830   14.7700  -11.9480 C.3    84  ILE84       0.1561
    103  C        -13.4560   13.2790  -11.9210 C.2    84  ILE84       0.2260
    104  O        -14.3900   12.8130  -12.5510 O.2    84  ILE84      -0.2867
    105  CB       -14.3340   15.4670  -11.2130 C.3    84  ILE84       0.0252
    106  CG1      -13.9690   16.9190  -10.9240 C.3    84  ILE84       0.0019
    107  CG2      -14.6840   14.7240   -9.9270 C.3    84  ILE84       0.0019
    108  CD1      -15.1310   17.7650  -10.5370 C.3    84  ILE84       0.0001
@<TRIPOS>BOND
     1    95    96    2
     2    95    94    1
     3    60    61    1
     4    94    93    1
     5    94    97    1
     6    63    62    2
     7    55    56    2
     8    55    54    1
     9    97    98    1
    10    61    62    1
    11    61    64    1
    12   100    98    1
    13    64    65    1
    14    58    57    1
    15    54    57    1
    16    54    53    1
    17    98    99    1
    18    57    59    1
    19   101   102    1
    20    65    66    1
    21    66    67    1
    22   104   103    2
    23    76    74    1
    24   102   103    1
    25   102   105    1
    26    74    73    1
    27    12    13    1
    28    69    70    1
    29   105   106    1
    30   105   107    1
    31    67    68    1
    32    75    73    1
    33   106   108    1
    34    72    71    2
    35    73    70    1
    36    70    71    1
    37    49    50    1
    38    49    46    1
    39    13    16    1
    40    13    14    1
    41    47    48    2
    42    47    46    1
    43    71    77   am
    44    10     9    1
    45    51    50   ar
    46    50    52   ar
    47    16    17    1
    48    15    14    2
    49    46    45    1
    50    77    78    1
    51     9    11    1
    52     9     8    2
    53    17    19    1
    54    17    18    1
    55     7     8    1
    56     7     6    1
    57    78    79    1
    58    45    39   am
    59     4     3    2
    60     5     6    1
    61     5     2    1
    62    36    33    1
    63    88    87    2
    64    39    40    2
    65    39    38    1
    66    79    81   am
    67    79    80    2
    68     3     2    1
    69    24    25    1
    70    24    21    1
    71    27    25   ar
    72    20    21    1
    73    81    82    1
    74     2     1    1
    75    87    86    1
    76    25    26   ar
    77    21    22    1
    78    33    34    1
    79    33    32    1
    80    37    34   am
    81    37    38    1
    82    34    35    2
    83    38    41    1
    84    41    42    1
    85    84    83    2
    86    23    22    2
    87    82    83    1
    88    83    85   am
    89    85    86    1
    90    86    89    1
    91    32    30   am
    92    91    89    1
    93    44    42   ar
    94    42    43   ar
    95    89    90    1
    96    30    31    2
    97    30    29    1
    98    28    29    1
    99    90    92    1
