@<TRIPOS>MOLECULE
tmp/3qrtA00.pdb
 153 145 0 0 0
SMALL
GASTEIGER

@<TRIPOS>ATOM
      1  N         95.3520   51.0450   -6.0310 N.3    10  ILE10      -0.1245
      2  CA        94.2250   50.1210   -6.0950 C.3    10  ILE10       0.1561
      3  C         94.3240   49.0380   -5.0370 C.2    10  ILE10       0.2260
      4  O         93.3550   48.7640   -4.3290 O.2    10  ILE10      -0.2867
      5  CB        94.1300   49.4290   -7.4710 C.3    10  ILE10       0.0252
      6  CG1       93.8830   50.4690   -8.5620 C.3    10  ILE10       0.0019
      7  CG2       93.0130   48.3890   -7.4530 C.3    10  ILE10       0.0019
      8  CD1       93.9210   49.9000   -9.9620 C.3    10  ILE10       0.0001
      9  N         98.8400   43.5540   -5.3870 N.3    13  GLY13      -0.1225
     10  CA        98.8450   42.3150   -6.1470 C.3    13  GLY13       0.1811
     11  C         99.7130   41.1820   -5.6220 C.2    13  GLY13       0.2280
     12  O        100.2740   41.2500   -4.5200 O.2    13  GLY13      -0.2866
     13  N         99.4660   47.7970   -6.8870 N.3    18  VAL18      -0.1245
     14  CA        98.7640   48.1290   -8.1260 C.3    18  VAL18       0.1561
     15  C         98.1660   49.5180   -7.9880 C.2    18  VAL18       0.2260
     16  O         97.5020   49.8250   -6.9950 O.2    18  VAL18      -0.2867
     17  CB        97.6120   47.1380   -8.4290 C.3    18  VAL18       0.0252
     18  CG1       97.0250   47.4310   -9.8130 C.3    18  VAL18       0.0019
     19  CG2       98.1070   45.7000   -8.3630 C.3    18  VAL18       0.0019
     20  N         96.0950   50.3360  -15.3810 N.3    31  ALA31      -0.1245
     21  CA        96.4120   49.7330  -14.0880 C.3    31  ALA31       0.1562
     22  C         97.9360   49.4990  -14.1820 C.2    31  ALA31       0.2260
     23  O         98.4370   48.8780  -15.1260 O.2    31  ALA31      -0.2867
     24  CB        95.6780   48.4110  -13.8920 C.3    31  ALA31       0.0290
     25  N        101.2360   47.9690  -12.2650 N.3    33  LYS33      -0.1245
     26  CA       101.7060   47.0930  -11.2030 C.3    33  LYS33       0.1561
     27  C        103.2040   47.3180  -11.0400 C.2    33  LYS33       0.2260
     28  O        103.9440   47.2760  -12.0210 O.2    33  LYS33      -0.2867
     29  CB       101.4300   45.6280  -11.5510 C.3    33  LYS33       0.0271
     30  CG       101.7490   44.6560  -10.4240 C.3    33  LYS33       0.0035
     31  CD       101.4640   43.2270  -10.8380 C.3    33  LYS33       0.0206
     32  CE       101.5900   42.2600   -9.6610 C.3    33  LYS33       0.1093
     33  NZ       101.4500   40.8480  -10.1120 N.3    33  LYS33      -0.1314
     34  N         93.1980   40.6070  -20.6720 N.3    60  VAL60      -0.1245
     35  CA        93.5040   42.0050  -20.3650 C.3    60  VAL60       0.1561
     36  C         94.8410   42.3470  -21.0420 C.2    60  VAL60       0.2260
     37  O         95.8460   41.6740  -20.8330 O.2    60  VAL60      -0.2867
     38  CB        93.6060   42.2270  -18.8330 C.3    60  VAL60       0.0252
     39  CG1       94.0390   43.6650  -18.5260 C.3    60  VAL60       0.0019
     40  CG2       92.2570   41.9440  -18.1940 C.3    60  VAL60       0.0019
     41  N         98.8820   47.7330  -17.6610 N.3    76  PHE76      -0.1227
     42  CA        97.7520   46.9730  -18.1680 C.3    76  PHE76       0.1736
     43  C         96.5480   47.8170  -18.5520 C.2    76  PHE76       0.2595
     44  O         96.3240   48.8970  -18.0230 O.2    76  PHE76      -0.2718
     45  CB        97.2140   46.0330  -17.0830 C.3    76  PHE76       0.0547
     46  CG        98.1540   44.9520  -16.6580 C.ar   76  PHE76      -0.0202
     47  CD1       98.1630   43.7240  -17.3080 C.ar   76  PHE76      -0.0042
     48  CD2       98.9610   45.1290  -15.5430 C.ar   76  PHE76      -0.0042
     49  CE1       98.9680   42.6710  -16.8340 C.ar   76  PHE76      -0.0003
     50  CE2       99.7640   44.0910  -15.0650 C.ar   76  PHE76      -0.0003
     51  CZ        99.7660   42.8680  -15.7040 C.ar   76  PHE76      -0.0000
     52  N         95.7570   47.2580  -19.4590 N.am   77  GLU77      -0.1965
     53  CA        94.4830   47.8310  -19.8600 C.3    77  GLU77       0.1733
     54  C         93.6830   47.8670  -18.5280 C.2    77  GLU77       0.2616
     55  O         93.7250   46.9160  -17.7180 O.2    77  GLU77      -0.2715
     56  CB        93.8300   46.8690  -20.8560 C.3    77  GLU77       0.0429
     57  CG        92.3500   47.0550  -21.0320 C.3    77  GLU77       0.1163
     58  CD        91.7030   45.8930  -21.7840 C.2    77  GLU77       0.3649
     59  OE1       90.4660   45.9320  -21.9440 O.co2  77  GLU77      -0.2457
     60  OE2       92.4120   44.9500  -22.2050 O.co2  77  GLU77      -0.2457
     61  N         92.9640   48.9590  -18.2980 N.am   78  PHE78      -0.1960
     62  CA        92.1920   49.1390  -17.0650 C.3    78  PHE78       0.1771
     63  C         90.7430   48.6600  -17.1960 C.2    78  PHE78       0.2619
     64  O         90.1070   48.9350  -18.2040 O.2    78  PHE78      -0.2715
     65  CB        92.1590   50.6400  -16.7160 C.3    78  PHE78       0.0574
     66  CG        91.4230   50.9670  -15.4570 C.ar   78  PHE78      -0.0200
     67  CD1       90.0650   51.3300  -15.4830 C.ar   78  PHE78      -0.0042
     68  CD2       92.0760   50.8930  -14.2190 C.ar   78  PHE78      -0.0042
     69  CE1       89.3920   51.6080  -14.3050 C.ar   78  PHE78      -0.0003
     70  CE2       91.4150   51.1700  -13.0460 C.ar   78  PHE78      -0.0003
     71  CZ        90.0600   51.5310  -13.0800 C.ar   78  PHE78      -0.0000
     72  N         90.2430   47.9400  -16.1900 N.am   79  LEU79      -0.1963
     73  CA        88.8300   47.5240  -16.1580 C.3    79  LEU79       0.1728
     74  C         88.3580   47.9360  -14.7690 C.2    79  LEU79       0.2616
     75  O         89.1550   47.9620  -13.8480 O.2    79  LEU79      -0.2715
     76  CB        88.6490   46.0200  -16.3920 C.3    79  LEU79       0.0311
     77  CG        88.6760   45.6830  -17.8840 C.3    79  LEU79       0.0022
     78  CD1       90.0770   45.2290  -18.2450 C.3    79  LEU79       0.0001
     79  CD2       87.6550   44.6150  -18.2430 C.3    79  LEU79       0.0001
     80  N         87.0710   48.2500  -14.6120 N.am   80  HIS80      -0.1959
     81  CA        86.5600   48.7540  -13.3370 C.3    80  HIS80       0.1787
     82  C         86.1320   47.7930  -12.2370 C.2    80  HIS80       0.2620
     83  O         85.9820   48.2200  -11.0860 O.2    80  HIS80      -0.2715
     84  CB        85.3710   49.6990  -13.5840 C.3    80  HIS80       0.0785
     85  CG        85.7400   50.9790  -14.2710 C.ar   80  HIS80       0.0821
     86  ND1       85.9250   51.0720  -15.6340 N.ar   80  HIS80      -0.2267
     87  CD2       86.0080   52.2060  -13.7670 C.ar   80  HIS80       0.1154
     88  CE1       86.2930   52.3070  -15.9420 C.ar   80  HIS80       0.1986
     89  NE2       86.3530   53.0120  -14.8270 N.ar   80  HIS80      -0.2212
     90  N         85.8980   46.5200  -12.5640 N.am   81  GLN81      -0.1963
     91  CA        85.4640   45.5980  -11.5190 C.3    81  GLN81       0.1733
     92  C         86.0070   44.2060  -11.7860 C.2    81  GLN81       0.2616
     93  O         86.3810   43.9010  -12.9100 O.2    81  GLN81      -0.2715
     94  CB        83.9320   45.5590  -11.4710 C.3    81  GLN81       0.0408
     95  CG        83.3410   44.9800  -10.1690 C.3    81  GLN81       0.0908
     96  CD        81.9180   45.4740   -9.9080 C.2    81  GLN81       0.2608
     97  OE1       81.7060   46.6370   -9.5260 O.2    81  GLN81      -0.2717
     98  NE2       80.9440   44.6170  -10.1360 N.am   81  GLN81      -0.0878
     99  N         86.1070   43.3890  -10.7370 N.am   82  ASP82      -0.1971
    100  CA        86.5540   42.0120  -10.9270 C.3    82  ASP82       0.1709
    101  C         85.4180   41.0750  -10.5560 C.2    82  ASP82       0.2293
    102  O         84.4060   41.5080   -9.9750 O.2    82  ASP82      -0.2864
    103  CB        87.8440   41.6970  -10.1370 C.3    82  ASP82       0.1436
    104  CG        87.6870   41.8260   -8.6250 C.2    82  ASP82       0.3671
    105  OD1       86.7580   41.2250   -8.0460 O.co2  82  ASP82      -0.2456
    106  OD2       88.5320   42.5140   -8.0140 O.co2  82  ASP82      -0.2456
    107  N         84.3480   40.7050   -6.7320 N.3    85  LYS85      -0.1245
    108  CA        83.4380   41.7620   -6.2780 C.3    85  LYS85       0.1561
    109  C         82.0190   41.5910   -6.8430 C.2    85  LYS85       0.2260
    110  O         81.0180   41.7630   -6.1220 O.2    85  LYS85      -0.2867
    111  CB        84.0160   43.1310   -6.6680 C.3    85  LYS85       0.0271
    112  CG        83.0530   44.2900   -6.5110 C.3    85  LYS85       0.0035
    113  CD        82.6740   44.5460   -5.0670 C.3    85  LYS85       0.0206
    114  CE        81.7730   45.7870   -4.9870 C.3    85  LYS85       0.1093
    115  NZ        81.1730   45.9880   -3.6420 N.3    85  LYS85      -0.1314
    116  N         89.4110   37.1690   -8.4470 N.3   127  GLN127     -0.1231
    117  CA        90.0470   38.4720   -8.3570 C.3   127  GLN127      0.1698
    118  C         90.8670   38.8410   -9.5800 C.2   127  GLN127      0.2592
    119  O         91.0920   40.0260   -9.8070 O.2   127  GLN127     -0.2718
    120  CB        90.8640   38.5910   -7.0610 C.3   127  GLN127      0.0381
    121  CG        91.9320   37.5710   -6.8280 C.3   127  GLN127      0.0905
    122  CD        92.2840   37.4880   -5.3570 C.2   127  GLN127      0.2608
    123  OE1       91.5110   36.9610   -4.5530 O.2   127  GLN127     -0.2717
    124  NE2       93.4390   38.0300   -4.9920 N.am  127  GLN127     -0.0878
    125  N         91.3360   37.8760  -10.3810 N.am  128  ASN128     -0.1974
    126  CA        92.0340   38.3110  -11.5810 C.3   128  ASN128      0.1688
    127  C         91.2090   38.1510  -12.8600 C.2   128  ASN128      0.2292
    128  O         91.7410   38.1280  -13.9700 O.2   128  ASN128     -0.2864
    129  CB        93.4620   37.7210  -11.7250 C.3   128  ASN128      0.1181
    130  CG        93.5250   36.2520  -11.5790 C.2   128  ASN128      0.2629
    131  OD1       92.6790   35.5270  -12.1000 O.2   128  ASN128     -0.2716
    132  ND2       94.5790   35.7720  -10.8890 N.am  128  ASN128     -0.0877
    133  N         88.5570   40.2110  -14.7960 N.3   130  LEU130     -0.1245
    134  CA        88.0250   41.5590  -14.8410 C.3   130  LEU130      0.1561
    135  C         86.8270   41.7030  -15.7680 C.2   130  LEU130      0.2260
    136  O         86.7940   41.1090  -16.8430 O.2   130  LEU130     -0.2867
    137  CB        89.1240   42.5110  -15.2830 C.3   130  LEU130      0.0270
    138  CG        90.2880   42.5590  -14.2940 C.3   130  LEU130      0.0019
    139  CD1       91.3360   43.4780  -14.8350 C.3   130  LEU130      0.0001
    140  CD2       89.7890   43.1040  -12.9150 C.3   130  LEU130      0.0001
    141  N         93.4040   38.1060  -16.4770 N.3   140  ALA140     -0.1231
    142  CA        94.5220   39.0150  -16.1920 C.3   140  ALA140      0.1694
    143  C         95.5570   38.3350  -15.3280 C.2   140  ALA140      0.2592
    144  O         95.2720   37.3340  -14.6950 O.2   140  ALA140     -0.2718
    145  CB        94.0350   40.2600  -15.4790 C.3   140  ALA140      0.0304
    146  N         96.7650   38.8890  -15.3210 N.am  141  ASP141     -0.1974
    147  CA        97.8530   38.3880  -14.4850 C.3   141  ASP141      0.1709
    148  C         98.3790   36.9810  -14.7110 C.2   141  ASP141      0.2293
    149  O         98.4290   36.1970  -13.7740 O.2   141  ASP141     -0.2864
    150  CB        97.4470   38.4910  -13.0180 C.3   141  ASP141      0.1436
    151  CG        98.5880   38.9270  -12.1290 C.2   141  ASP141      0.3671
    152  OD1       99.5100   39.5930  -12.6430 O.co2 141  ASP141     -0.2456
    153  OD2       98.5400   38.6370  -10.9170 O.co2 141  ASP141     -0.2456
@<TRIPOS>BOND
     1    60    58   ar
     2    59    58   ar
     3    58    57    1
     4    36    37    2
     5    36    35    1
     6    57    56    1
     7    56    53    1
     8    34    35    1
     9    35    38    1
    10    53    52    1
    11    53    54    1
    12    52    43   am
    13    38    39    1
    14    38    40    1
    15    43    42    1
    16    43    44    2
    17    54    61   am
    18    54    55    2
    19    61    62    1
    20    78    77    1
    21    79    77    1
    22    64    63    2
    23    42    41    1
    24    42    45    1
    25    77    76    1
    26    47    49   ar
    27    47    46   ar
    28    63    62    1
    29    63    72   am
    30    45    46    1
    31    62    65    1
    32   136   135    2
    33    49    51   ar
    34    65    66    1
    35    46    48   ar
    36   141   142    1
    37    76    73    1
    38   142   145    1
    39   142   143    1
    40    72    73    1
    41    73    74    1
    42    88    86   ar
    43    88    89   ar
    44   135   134    1
    45    51    50   ar
    46    86    85   ar
    47    48    50   ar
    48    67    66   ar
    49    67    69   ar
    50    66    68   ar
    51    20    21    1
    52   143   146   am
    53   143   144    2
    54   146   147    1
    55   137   134    1
    56   137   138    1
    57    23    22    2
    58   134   133    1
    59   139   138    1
    60    89    87   ar
    61    74    80   am
    62    74    75    2
    63   148   147    1
    64   148   149    2
    65    80    81    1
    66   147   150    1
    67    69    71   ar
    68   138   140    1
    69    85    87   ar
    70    85    84    1
    71    68    70   ar
    72    22    21    1
    73    21    24    1
    74   128   127    2
    75    84    81    1
    76    81    82    1
    77    71    70   ar
    78   150   151    1
    79    93    92    2
    80   127   126    1
    81   152   151   ar
    82    90    82   am
    83    90    91    1
    84    25    26    1
    85    82    83    2
    86   151   153   ar
    87   131   130    2
    88    28    27    2
    89    92    91    1
    90    92    99   am
    91   129   126    1
    92   129   130    1
    93   126   125    1
    94   130   132   am
    95    29    26    1
    96    29    30    1
    97    91    94    1
    98    94    95    1
    99    26    27    1
   100   100    99    1
   101   100   101    1
   102   100   103    1
   103    31    30    1
   104    31    32    1
   105   101   102    2
   106   125   118   am
   107    95    96    1
   108   103   104    1
   109    98    96   am
   110    33    32    1
   111     8     6    1
   112    96    97    2
   113    18    17    1
   114   119   118    2
   115   118   117    1
   116   104   105   ar
   117   104   106   ar
   118     6     5    1
   119   116   117    1
   120    17    19    1
   121    17    14    1
   122   117   120    1
   123    14    15    1
   124    14    13    1
   125    15    16    2
   126     5     7    1
   127     5     2    1
   128   120   121    1
   129   109   108    1
   130   109   110    2
   131   121   122    1
   132   107   108    1
   133   111   112    1
   134   111   108    1
   135   112   113    1
   136    10    11    1
   137    10     9    1
   138     2     1    1
   139     2     3    1
   140    11    12    2
   141   122   124   am
   142   122   123    2
   143   113   114    1
   144     3     4    2
   145   114   115    1
