@<TRIPOS>MOLECULE
tmp/3qruA00.pdb
 164 156 0 0 0
SMALL
GASTEIGER

@<TRIPOS>ATOM
      1  N        -54.1720   96.4220  -67.1500 N.3    10  ILE10      -0.1231
      2  CA       -53.2380   96.8780  -66.1310 C.3    10  ILE10       0.1692
      3  C        -53.3940   96.0050  -64.8940 C.2    10  ILE10       0.2592
      4  O        -52.4880   95.9120  -64.0630 O.2    10  ILE10      -0.2718
      5  CB       -53.5070   98.3510  -65.7550 C.3    10  ILE10       0.0266
      6  CG1      -52.9760   99.2640  -66.8580 C.3    10  ILE10       0.0019
      7  CG2      -52.8790   98.6820  -64.4040 C.3    10  ILE10       0.0020
      8  CD1      -53.1720  100.7370  -66.5680 C.3    10  ILE10       0.0001
      9  N        -54.5540   95.3680  -64.7770 N.am   11  GLY11      -0.1957
     10  CA       -54.7980   94.4990  -63.6450 C.3    11  GLY11       0.1869
     11  C        -56.2600   94.3640  -63.2880 C.2    11  GLY11       0.2309
     12  O        -57.1320   94.9470  -63.9320 O.2    11  GLY11      -0.2863
     13  N        -58.3660   95.4370  -60.6400 N.3    13  GLY13      -0.1210
     14  CA       -58.5450   96.3200  -59.4990 C.3    13  GLY13       0.1956
     15  C        -59.4120   95.7470  -58.3940 C.2    13  GLY13       0.2612
     16  O        -59.9100   94.6210  -58.4940 O.2    13  GLY13      -0.2717
     17  N        -59.6010   96.5270  -57.3340 N.am   14  THR14      -0.1952
     18  CA       -60.4050   96.0920  -56.2000 C.3    14  THR14       0.1897
     19  C        -61.9130   96.0760  -56.4670 C.2    14  THR14       0.2313
     20  O        -62.6680   95.4480  -55.7230 O.2    14  THR14      -0.2863
     21  CB       -60.1170   96.9630  -54.9530 C.3    14  THR14       0.1794
     22  OG1      -60.1610   98.3500  -55.3130 O.3    14  THR14      -0.2208
     23  CG2      -58.7440   96.6320  -54.3780 C.3    14  THR14       0.0378
     24  N        -58.8910   96.8480  -64.8190 N.3    18  VAL18      -0.1245
     25  CA       -58.2480   98.1030  -65.1930 C.3    18  VAL18       0.1561
     26  C        -57.4630   97.9080  -66.4750 C.2    18  VAL18       0.2260
     27  O        -56.6750   96.9760  -66.5980 O.2    18  VAL18      -0.2867
     28  CB       -57.2900   98.6040  -64.0900 C.3    18  VAL18       0.0252
     29  CG1      -56.7840  100.0150  -64.4390 C.3    18  VAL18       0.0019
     30  CG2      -58.0040   98.6180  -62.7480 C.3    18  VAL18       0.0019
     31  N        -55.6710  105.2070  -67.6640 N.3    31  ALA31      -0.1245
     32  CA       -55.8660  103.9620  -66.9440 C.3    31  ALA31       0.1562
     33  C        -57.3770  103.9810  -66.7350 C.2    31  ALA31       0.2260
     34  O        -57.9130  104.8980  -66.1120 O.2    31  ALA31      -0.2867
     35  CB       -55.1210  103.9890  -65.6020 C.3    31  ALA31       0.0290
     36  N        -60.6320  102.1080  -65.2070 N.3    33  LYS33      -0.1245
     37  CA       -61.1560  101.1090  -64.2910 C.3    33  LYS33       0.1561
     38  C        -62.6470  100.9080  -64.5770 C.2    33  LYS33       0.2260
     39  O        -63.4070  101.8730  -64.6640 O.2    33  LYS33      -0.2867
     40  CB       -60.9450  101.5560  -62.8430 C.3    33  LYS33       0.0271
     41  CG       -61.4090  100.5410  -61.7980 C.3    33  LYS33       0.0035
     42  CD       -61.0170  101.0090  -60.4000 C.3    33  LYS33       0.0206
     43  CE       -61.2570   99.9340  -59.3470 C.3    33  LYS33       0.1093
     44  NZ       -60.9310  100.4700  -58.0000 N.3    33  LYS33      -0.1314
     45  N        -52.7730  110.7410  -58.1430 N.3    61  VAL61      -0.1245
     46  CA       -53.0610  110.4310  -59.5400 C.3    61  VAL61       0.1561
     47  C        -54.3960  111.1170  -59.8570 C.2    61  VAL61       0.2260
     48  O        -55.3700  110.9580  -59.1280 O.2    61  VAL61      -0.2867
     49  CB       -53.1830  108.9080  -59.7710 C.3    61  VAL61       0.0252
     50  CG1      -53.5350  108.6220  -61.2320 C.3    61  VAL61       0.0019
     51  CG2      -51.8710  108.2230  -59.4200 C.3    61  VAL61       0.0019
     52  N        -58.4380  107.4090  -65.1150 N.3    77  PHE77      -0.1227
     53  CA       -57.3090  107.9620  -64.3770 C.3    77  PHE77       0.1736
     54  C        -56.1820  108.3780  -65.3120 C.2    77  PHE77       0.2595
     55  O        -56.0320  107.8170  -66.4040 O.2    77  PHE77      -0.2718
     56  CB       -56.7320  106.9070  -63.4310 C.3    77  PHE77       0.0547
     57  CG       -57.6460  106.5020  -62.3030 C.ar   77  PHE77      -0.0202
     58  CD1      -57.7350  107.2760  -61.1480 C.ar   77  PHE77      -0.0042
     59  CD2      -58.3560  105.3050  -62.3610 C.ar   77  PHE77      -0.0042
     60  CE1      -58.5100  106.8620  -60.0610 C.ar   77  PHE77      -0.0003
     61  CE2      -59.1390  104.8780  -61.2790 C.ar   77  PHE77      -0.0003
     62  CZ       -59.2130  105.6590  -60.1270 C.ar   77  PHE77      -0.0000
     63  N        -55.3930  109.3630  -64.8820 N.am   78  GLU78      -0.1965
     64  CA       -54.2400  109.7580  -65.6590 C.3    78  GLU78       0.1733
     65  C        -53.3310  108.5210  -65.5320 C.2    78  GLU78       0.2616
     66  O        -53.3050  107.8480  -64.4830 O.2    78  GLU78      -0.2715
     67  CB       -53.5500  110.9870  -65.0470 C.3    78  GLU78       0.0429
     68  CG       -52.9080  110.7270  -63.7050 C.3    78  GLU78       0.1163
     69  CD       -51.9650  111.8370  -63.2650 C.2    78  GLU78       0.3649
     70  OE1      -50.9520  112.0840  -63.9550 O.co2  78  GLU78      -0.2457
     71  OE2      -52.2290  112.4590  -62.2240 O.co2  78  GLU78      -0.2457
     72  N        -52.6040  108.2170  -66.5930 N.am   79  PHE79      -0.1960
     73  CA       -51.7210  107.0580  -66.6360 C.3    79  PHE79       0.1771
     74  C        -50.2830  107.3430  -66.1820 C.2    79  PHE79       0.2619
     75  O        -49.6880  108.3380  -66.5850 O.2    79  PHE79      -0.2715
     76  CB       -51.7020  106.5090  -68.0720 C.3    79  PHE79       0.0574
     77  CG       -50.8080  105.3130  -68.2620 C.ar   79  PHE79      -0.0200
     78  CD1      -49.4880  105.4680  -68.6860 C.ar   79  PHE79      -0.0042
     79  CD2      -51.2850  104.0270  -68.0010 C.ar   79  PHE79      -0.0042
     80  CE1      -48.6530  104.3620  -68.8480 C.ar   79  PHE79      -0.0003
     81  CE2      -50.4660  102.9220  -68.1570 C.ar   79  PHE79      -0.0003
     82  CZ       -49.1430  103.0860  -68.5820 C.ar   79  PHE79      -0.0000
     83  N        -49.7400  106.4730  -65.3320 N.am   80  LEU80      -0.1963
     84  CA       -48.3510  106.6030  -64.8800 C.3    80  LEU80       0.1728
     85  C        -47.7230  105.3020  -65.3520 C.2    80  LEU80       0.2616
     86  O        -48.4210  104.3060  -65.4960 O.2    80  LEU80      -0.2715
     87  CB       -48.2550  106.7810  -63.3560 C.3    80  LEU80       0.0311
     88  CG       -48.3330  108.2650  -62.9550 C.3    80  LEU80       0.0022
     89  CD1      -49.7860  108.6730  -62.7650 C.3    80  LEU80       0.0001
     90  CD2      -47.5540  108.5230  -61.6680 C.3    80  LEU80       0.0001
     91  N        -46.4170  105.2740  -65.5800 N.am   81  HIS81      -0.1959
     92  CA       -45.8550  104.0550  -66.1330 C.3    81  HIS81       0.1787
     93  C        -45.5450  102.8570  -65.3030 C.2    81  HIS81       0.2620
     94  O        -45.3790  101.7680  -65.8660 O.2    81  HIS81      -0.2715
     95  CB       -44.6430  104.3700  -66.9890 C.3    81  HIS81       0.0785
     96  CG       -44.9450  104.3890  -68.4530 C.ar   81  HIS81       0.0821
     97  ND1      -45.0730  103.2330  -69.1950 N.ar   81  HIS81      -0.2267
     98  CD2      -45.1520  105.4180  -69.3110 C.ar   81  HIS81       0.1154
     99  CE1      -45.3400  103.5550  -70.4500 C.ar   81  HIS81       0.1986
    100  NE2      -45.3930  104.8730  -70.5470 N.ar   81  HIS81      -0.2212
    101  N        -45.4700  103.0120  -63.9850 N.am   82  GLN82      -0.1963
    102  CA       -45.1790  101.8390  -63.1600 C.3    82  GLN82       0.1733
    103  C        -45.6640  102.0140  -61.7390 C.2    82  GLN82       0.2616
    104  O        -45.7190  103.1350  -61.2390 O.2    82  GLN82      -0.2715
    105  CB       -43.6790  101.5660  -63.1590 C.3    82  GLN82       0.0408
    106  CG       -43.2980  100.1760  -62.6790 C.3    82  GLN82       0.0908
    107  CD       -41.8720   99.8250  -63.0370 C.2    82  GLN82       0.2608
    108  OE1      -41.5830   99.4020  -64.1640 O.2    82  GLN82      -0.2717
    109  NE2      -40.9680  100.0160  -62.0940 N.am   82  GLN82      -0.0878
    110  N        -46.0420  100.9100  -61.0920 N.am   83  ASP83      -0.1971
    111  CA       -46.4880  101.0130  -59.7080 C.3    83  ASP83       0.1709
    112  C        -45.3090  100.6530  -58.8110 C.2    83  ASP83       0.2293
    113  O        -44.3290  100.0630  -59.2710 O.2    83  ASP83      -0.2864
    114  CB       -47.7230  100.1290  -59.4280 C.3    83  ASP83       0.1436
    115  CG       -47.4690   98.6420  -59.6420 C.2    83  ASP83       0.3671
    116  OD1      -46.5710   98.0630  -59.0110 O.co2  83  ASP83      -0.2456
    117  OD2      -48.1950   98.0480  -60.4490 O.co2  83  ASP83      -0.2456
    118  N        -44.1570   96.7960  -58.5610 N.3    86  LYS86      -0.1245
    119  CA       -43.2790   96.3080  -59.6220 C.3    86  LYS86       0.1561
    120  C        -41.8820   96.8940  -59.4700 C.2    86  LYS86       0.2260
    121  O        -40.8920   96.1940  -59.6510 O.2    86  LYS86      -0.2867
    122  CB       -43.8480   96.6460  -61.0100 C.3    86  LYS86       0.0271
    123  CG       -45.1650   95.9270  -61.2960 C.3    86  LYS86       0.0035
    124  CD       -45.6510   96.1170  -62.7340 C.3    86  LYS86       0.0206
    125  CE       -47.1870   96.0440  -62.8250 C.3    86  LYS86       0.1093
    126  NZ       -47.7770   94.6960  -62.6190 N.3    86  LYS86      -0.1314
    127  N        -49.2090   98.5250  -54.7530 N.3   128  GLN128     -0.1231
    128  CA       -49.9430   98.4520  -56.0290 C.3   128  GLN128      0.1698
    129  C        -50.6590   99.7280  -56.4320 C.2   128  GLN128      0.2592
    130  O        -50.8390   99.9680  -57.6250 O.2   128  GLN128     -0.2718
    131  CB       -51.0080   97.3630  -56.0020 C.3   128  GLN128      0.0381
    132  CG       -50.5180   95.9700  -55.9020 C.3   128  GLN128      0.0905
    133  CD       -51.6070   95.0790  -55.3520 C.2   128  GLN128      0.2608
    134  OE1      -52.7530   95.1090  -55.8270 O.2   128  GLN128     -0.2717
    135  NE2      -51.2680   94.2890  -54.3420 N.am  128  GLN128     -0.0878
    136  N        -51.1300  100.5210  -55.4700 N.am  129  ASN129     -0.1974
    137  CA       -51.7890  101.7640  -55.8530 C.3   129  ASN129      0.1688
    138  C        -50.9550  103.0350  -55.6200 C.2   129  ASN129      0.2292
    139  O        -51.4960  104.1390  -55.4730 O.2   129  ASN129     -0.2864
    140  CB       -53.2070  101.9020  -55.2490 C.3   129  ASN129      0.1181
    141  CG       -53.2410  101.7590  -53.7490 C.2   129  ASN129      0.2629
    142  OD1      -52.3750  102.2800  -53.0410 O.2   129  ASN129     -0.2716
    143  ND2      -54.2680  101.0620  -53.2480 N.am  129  ASN129     -0.0877
    144  N        -48.1540  104.9660  -57.6420 N.3   131  LEU131     -0.1245
    145  CA       -47.6350  105.0280  -59.0030 C.3   131  LEU131      0.1561
    146  C        -46.4780  105.9920  -59.1290 C.2   131  LEU131      0.2260
    147  O        -46.5020  107.0630  -58.5460 O.2   131  LEU131     -0.2867
    148  CB       -48.7450  105.4610  -59.9770 C.3   131  LEU131      0.0270
    149  CG       -49.8790  104.4860  -60.2730 C.3   131  LEU131      0.0019
    150  CD1      -49.3020  103.2010  -60.8690 C.3   131  LEU131      0.0001
    151  CD2      -50.6490  104.1970  -59.0130 C.3   131  LEU131      0.0001
    152  N        -53.0540  106.6860  -55.5540 N.3   141  ALA141     -0.1231
    153  CA       -54.1440  106.4460  -56.4960 C.3   141  ALA141      0.1694
    154  C        -55.2070  105.5150  -55.9250 C.2   141  ALA141      0.2592
    155  O        -54.9630  104.7740  -54.9800 O.2   141  ALA141     -0.2718
    156  CB       -53.6050  105.8440  -57.7710 C.3   141  ALA141      0.0304
    157  N        -56.3910  105.5790  -56.5180 N.am  142  ASP142     -0.1974
    158  CA       -57.4990  104.7120  -56.1580 C.3   142  ASP142      0.1709
    159  C        -58.0100  104.8060  -54.7260 C.2   142  ASP142      0.2293
    160  O        -58.1370  103.7940  -54.0480 O.2   142  ASP142     -0.2864
    161  CB       -57.1120  103.2690  -56.4790 C.3   142  ASP142      0.1436
    162  CG       -58.3210  102.3650  -56.6710 C.2   142  ASP142      0.3671
    163  OD1      -59.3860  102.8740  -57.0520 O.co2 142  ASP142     -0.2456
    164  OD2      -58.1960  101.1480  -56.4600 O.co2 142  ASP142     -0.2456
@<TRIPOS>BOND
     1   100    99   ar
     2   100    98   ar
     3    99    97   ar
     4    98    96   ar
     5    97    96   ar
     6    80    78   ar
     7    80    82   ar
     8    78    77   ar
     9    82    81   ar
    10    96    95    1
    11    77    76    1
    12    77    79   ar
    13    81    79   ar
    14    76    73    1
    15    31    32    1
    16     1     2    1
    17    95    92    1
    18    32    33    1
    19    32    35    1
    20     6     8    1
    21     6     5    1
    22    33    34    2
    23    73    72    1
    24    73    74    1
    25    27    26    2
    26    72    65   am
    27    75    74    2
    28    26    25    1
    29    55    54    2
    30    74    83   am
    31    92    91    1
    32    92    93    1
    33     2     5    1
    34     2     3    1
    35    94    93    2
    36     5     7    1
    37    64    65    1
    38    64    67    1
    39    64    63    1
    40    91    85   am
    41    65    66    2
    42    86    85    2
    43    85    84    1
    44    83    84    1
    45    54    63   am
    46    54    53    1
    47    93   101   am
    48    36    37    1
    49    25    24    1
    50    25    28    1
    51    52    53    1
    52    67    68    1
    53     3     9   am
    54     3     4    2
    55    84    87    1
    56     9    10    1
    57    39    38    2
    58    38    37    1
    59    29    28    1
    60    53    56    1
    61    37    40    1
    62   108   107    2
    63    28    30    1
    64   101   102    1
    65    70    69   ar
    66    12    11    2
    67    68    69    1
    68    10    11    1
    69    56    57    1
    70    87    88    1
    71    69    71   ar
    72   102   105    1
    73   102   103    1
    74   105   106    1
    75   107   106    1
    76   107   109   am
    77    88    89    1
    78    88    90    1
    79    40    41    1
    80   125   124    1
    81   125   126    1
    82   124   123    1
    83    59    57   ar
    84    59    61   ar
    85    57    58   ar
    86    41    42    1
    87   103   104    2
    88   103   110   am
    89   123   122    1
    90    61    62   ar
    91    50    49    1
    92    58    60   ar
    93   110   111    1
    94   122   119    1
    95   150   149    1
    96    13    14    1
    97   117   115   ar
    98    42    43    1
    99   149   148    1
   100   149   151    1
   101    62    60   ar
   102   148   145    1
   103    47    46    1
   104    47    48    2
   105    49    46    1
   106    49    51    1
   107   111   114    1
   108   111   112    1
   109   121   120    2
   110   115   114    1
   111   115   116   ar
   112   119   120    1
   113   119   118    1
   114    46    45    1
   115    14    15    1
   116    43    44    1
   117   113   112    2
   118   146   145    1
   119   146   147    2
   120   145   144    1
   121    16    15    2
   122    15    17   am
   123   156   153    1
   124   130   129    2
   125    17    18    1
   126   163   162   ar
   127   162   161    1
   128   162   164   ar
   129   157   158    1
   130   157   154   am
   131   153   154    1
   132   153   152    1
   133   161   158    1
   134    19    18    1
   135    19    20    2
   136   129   128    1
   137   129   136   am
   138    18    21    1
   139   158   159    1
   140   128   131    1
   141   128   127    1
   142   131   132    1
   143   154   155    2
   144   132   133    1
   145   137   138    1
   146   137   136    1
   147   137   140    1
   148   134   133    2
   149   138   139    2
   150   133   135   am
   151    22    21    1
   152   140   141    1
   153    21    23    1
   154   159   160    2
   155   141   143   am
   156   141   142    2
