@<TRIPOS>MOLECULE
tmp/3qryB00.pdb
 146 143 0 0 0
SMALL
GASTEIGER

@<TRIPOS>ATOM
      1  N         30.9530   93.2960   36.1360 N.3    53  THR53      -0.1218
      2  CA        31.9320   94.2530   36.7140 C.3    53  THR53       0.1862
      3  C         32.6000   93.8290   38.0110 C.2    53  THR53       0.2287
      4  O         33.5780   94.4680   38.4490 O.2    53  THR53      -0.2866
      5  CB        31.3160   95.6220   37.0790 C.3    53  THR53       0.1770
      6  OG1       30.4860   95.4800   38.2510 O.3    53  THR53      -0.2211
      7  CG2       30.5310   96.2000   35.9330 C.3    53  THR53       0.0375
      8  N         28.8120   94.5980   41.1380 N.3    56  ILE56      -0.1245
      9  CA        27.5560   94.9410   40.4180 C.3    56  ILE56       0.1561
     10  C         27.3610   93.9240   39.2940 C.2    56  ILE56       0.2260
     11  O         28.1720   93.8690   38.3600 O.2    56  ILE56      -0.2867
     12  CB        27.5190   96.3810   39.8760 C.3    56  ILE56       0.0252
     13  CG1       27.6990   97.3830   41.0140 C.3    56  ILE56       0.0019
     14  CG2       26.1760   96.6350   39.1570 C.3    56  ILE56       0.0019
     15  CD1       27.9280   98.8010   40.5590 C.3    56  ILE56       0.0001
     16  N         29.1320   96.2870   31.7850 N.3    60  TRP60      -0.1241
     17  CA        29.3200   97.6060   31.1750 C.3    60  TRP60       0.1605
     18  C         30.2120   97.4250   29.9430 C.2    60  TRP60       0.2264
     19  O         31.1910   96.6700   29.9750 O.2    60  TRP60      -0.2867
     20  CB        30.0650   98.5190   32.1650 C.3    60  TRP60       0.0550
     21  CG        29.1850   99.4110   33.0510 C.ar   60  TRP60       0.0003
     22  CD1       29.1350  100.7870   33.0210 C.ar   60  TRP60       0.0946
     23  CD2       28.3140   99.0040   34.1350 C.ar   60  TRP60       0.0152
     24  NE1       28.2750  101.2460   33.9970 N.ar   60  TRP60      -0.2442
     25  CE2       27.7660  100.1820   34.6950 C.ar   60  TRP60       0.0810
     26  CE3       27.9280   97.7640   34.6650 C.ar   60  TRP60       0.0012
     27  CZ2       26.8490  100.1580   35.7750 C.ar   60  TRP60       0.0191
     28  CZ3       27.0070   97.7430   35.7450 C.ar   60  TRP60       0.0001
     29  CH2       26.4720   98.9270   36.2670 C.ar   60  TRP60       0.0015
     30  N         32.1980   99.6590   29.0220 N.3    62  ARG62      -0.1231
     31  CA        33.4470  100.2420   29.5370 C.3    62  ARG62       0.1694
     32  C         34.2120   99.2500   30.4200 C.2    62  ARG62       0.2592
     33  O         35.3520   98.9000   30.0970 O.2    62  ARG62      -0.2718
     34  CB        33.1590  101.5430   30.3340 C.3    62  ARG62       0.0321
     35  CG        34.3370  102.0720   31.2240 C.3    62  ARG62       0.0489
     36  CD        34.0040  103.4940   31.7650 C.3    62  ARG62       0.2205
     37  NE        32.7870  103.4100   32.5870 N.pl3  62  ARG62      -0.0865
     38  CZ        31.5750  103.8050   32.1710 C.cat  62  ARG62       0.5346
     39  NH1       31.4050  104.4030   30.9790 N.pl3  62  ARG62       0.1354
     40  NH2       30.5340  103.6520   32.9650 N.pl3  62  ARG62       0.1354
     41  N         33.6310   98.8250   31.5470 N.am   63  ASP63      -0.1974
     42  CA        34.3850   97.9130   32.4330 C.3    63  ASP63       0.1709
     43  C         34.8660   96.6440   31.7040 C.2    63  ASP63       0.2293
     44  O         36.0420   96.2640   31.8430 O.2    63  ASP63      -0.2864
     45  CB        33.5990   97.4790   33.6900 C.3    63  ASP63       0.1436
     46  CG        33.1300   98.6160   34.5210 C.2    63  ASP63       0.3671
     47  OD1       33.2030   98.4670   35.7680 O.co2  63  ASP63      -0.2456
     48  OD2       32.6670   99.6330   33.9340 O.co2  63  ASP63      -0.2456
     49  N         32.0070  108.9100   32.2760 N.3   216  PRO216     -0.2102
     50  CA        32.5040  107.5790   32.5990 C.3   216  PRO216      0.1504
     51  C         32.2550  107.2010   34.0720 C.2   216  PRO216      0.2576
     52  O         32.2460  106.0090   34.3940 O.2   216  PRO216     -0.2718
     53  CB        34.0190  107.7030   32.3500 C.3   216  PRO216      0.0282
     54  CG        34.1700  108.7460   31.3550 C.3   216  PRO216      0.0208
     55  CD        33.0490  109.7430   31.6440 C.3   216  PRO216      0.0893
     56  N         32.0700  108.1720   34.9690 N.am  217  SER217     -0.1938
     57  CA        31.7460  107.8500   36.3570 C.3   217  SER217      0.2055
     58  C         30.2790  107.3690   36.5490 C.2   217  SER217      0.2643
     59  O         29.9050  106.9920   37.6580 O.2   217  SER217     -0.2714
     60  CB        31.9240  109.1060   37.2260 C.3   217  SER217      0.2130
     61  OG        30.9850  110.0780   36.7530 O.3   217  SER217     -0.2179
     62  N         29.4690  107.4310   35.4920 N.am  218  ASP218     -0.1971
     63  CA        27.9880  107.2710   35.5180 C.3   218  ASP218      0.1709
     64  C         27.2160  108.4270   36.1890 C.2   218  ASP218      0.2293
     65  O         26.0060  108.3330   36.3450 O.2   218  ASP218     -0.2864
     66  CB        27.5100  105.9400   36.1450 C.3   218  ASP218      0.1436
     67  CG        27.9120  104.7150   35.3460 C.2   218  ASP218      0.3671
     68  OD1       27.9020  104.7230   34.0760 O.co2 218  ASP218     -0.2456
     69  OD2       28.1690  103.6910   36.0080 O.co2 218  ASP218     -0.2456
     70  N         37.6580  108.3900   36.7590 N.3   302  ASN302     -0.1240
     71  CA        37.2260  107.3420   35.8310 C.3   302  ASN302      0.1653
     72  C         37.7180  107.6140   34.4530 C.2   302  ASN302      0.2266
     73  O         37.8400  108.7680   34.0650 O.2   302  ASN302     -0.2867
     74  CB        35.6980  107.2280   35.8130 C.3   302  ASN302      0.1155
     75  CG        35.1790  106.7070   37.1000 C.2   302  ASN302      0.2627
     76  OD1       34.8170  107.4680   38.0020 O.2   302  ASN302     -0.2716
     77  ND2       35.1700  105.4120   37.2240 N.am  302  ASN302     -0.0877
     78  N         30.9310  110.7920   42.3970 N.3   350  HIS350     -0.1241
     79  CA        30.3090  109.4910   42.5350 C.3   350  HIS350      0.1621
     80  C         30.5890  108.8790   43.9130 C.2   350  HIS350      0.2264
     81  O         29.8590  107.9840   44.3490 O.2   350  HIS350     -0.2867
     82  CB        30.8010  108.6010   41.3710 C.3   350  HIS350      0.0745
     83  CG        30.0420  107.3280   41.1970 C.ar  350  HIS350      0.0817
     84  ND1       28.8280  107.2630   40.5360 N.ar  350  HIS350     -0.2268
     85  CD2       30.3560  106.0590   41.5410 C.ar  350  HIS350      0.1154
     86  CE1       28.4160  106.0080   40.5070 C.ar  350  HIS350      0.1986
     87  NE2       29.3130  105.2580   41.1290 N.ar  350  HIS350     -0.2212
     88  N         40.5800  107.4950   44.4110 N.3   357  TRP357     -0.1241
     89  CA        40.4180  106.2860   43.5810 C.3   357  TRP357      0.1605
     90  C         41.7400  105.6310   43.1990 C.2   357  TRP357      0.2264
     91  O         42.5810  106.2720   42.5600 O.2   357  TRP357     -0.2867
     92  CB        39.6790  106.6260   42.2890 C.3   357  TRP357      0.0550
     93  CG        38.1830  106.8520   42.4540 C.ar  357  TRP357      0.0003
     94  CD1       37.5670  107.7110   43.3380 C.ar  357  TRP357      0.0946
     95  CD2       37.1360  106.2660   41.6630 C.ar  357  TRP357      0.0152
     96  NE1       36.1950  107.6510   43.1820 N.ar  357  TRP357     -0.2442
     97  CE2       35.8990  106.7710   42.1650 C.ar  357  TRP357      0.0810
     98  CE3       37.1170  105.3090   40.6310 C.ar  357  TRP357      0.0012
     99  CZ2       34.6590  106.4020   41.6180 C.ar  357  TRP357      0.0191
    100  CZ3       35.8520  104.9070   40.1060 C.ar  357  TRP357      0.0001
    101  CH2       34.6530  105.4550   40.6260 C.ar  357  TRP357      0.0015
    102  N         37.1360  100.7920   44.8220 N.3   393  GLU393     -0.1245
    103  CA        36.6600  101.9160   44.0040 C.3   393  GLU393      0.1567
    104  C         37.2680  103.1980   44.5460 C.2   393  GLU393      0.2260
    105  O         37.8190  103.9980   43.7810 O.2   393  GLU393     -0.2867
    106  CB        35.1540  101.9820   44.0640 C.3   393  GLU393      0.0388
    107  CG        34.5740  103.2240   43.4560 C.3   393  GLU393      0.1160
    108  CD        33.0580  103.2680   43.6410 C.2   393  GLU393      0.3649
    109  OE1       32.6040  103.4140   44.7930 O.co2 393  GLU393     -0.2457
    110  OE2       32.3440  103.1520   42.6330 O.co2 393  GLU393     -0.2457
    111  N         33.3300   99.6360   47.4540 N.3   405  ARG405     -0.1245
    112  CA        33.4120   98.4950   46.5570 C.3   405  ARG405      0.1563
    113  C         34.4590   97.4410   46.9830 C.2   405  ARG405      0.2260
    114  O         35.6460   97.5780   46.6900 O.2   405  ARG405     -0.2867
    115  CB        33.5980   98.9120   45.0720 C.3   405  ARG405      0.0307
    116  CG        32.3910   99.6740   44.4690 C.3   405  ARG405      0.0489
    117  CD        32.4040   99.6170   42.9010 C.3   405  ARG405      0.2205
    118  NE        32.0140   98.2850   42.4050 N.pl3 405  ARG405     -0.0865
    119  CZ        31.8070   98.0200   41.1140 C.cat 405  ARG405      0.5346
    120  NH1       31.9620   98.9810   40.2110 N.pl3 405  ARG405      0.1354
    121  NH2       31.4580   96.7820   40.7470 N.pl3 405  ARG405      0.1354
    122  N         35.9450   95.1190   42.7630 N.3   408  PHE408     -0.1241
    123  CA        35.8700   96.0380   41.6340 C.3   408  PHE408      0.1605
    124  C         36.9350   95.6110   40.6270 C.2   408  PHE408      0.2264
    125  O         38.1160   95.9950   40.7270 O.2   408  PHE408     -0.2867
    126  CB        36.0830   97.4650   42.1480 C.3   408  PHE408      0.0534
    127  CG        35.9500   98.5580   41.0880 C.ar  408  PHE408     -0.0203
    128  CD1       35.2880   98.3430   39.8830 C.ar  408  PHE408     -0.0042
    129  CD2       36.4860   99.8270   41.3350 C.ar  408  PHE408     -0.0042
    130  CE1       35.1680   99.3900   38.9030 C.ar  408  PHE408     -0.0003
    131  CE2       36.3460  100.8650   40.3870 C.ar  408  PHE408     -0.0003
    132  CZ        35.7070  100.6210   39.1530 C.ar  408  PHE408     -0.0000
    133  N         37.6080   96.1860   37.4510 N.3   410  TRP410     -0.1241
    134  CA        38.3620   97.1850   36.6690 C.3   410  TRP410      0.1605
    135  C         39.5090   97.7660   37.4740 C.2   410  TRP410      0.2264
    136  O         40.6610   97.8220   36.9960 O.2   410  TRP410     -0.2867
    137  CB        37.4020   98.2810   36.2510 C.3   410  TRP410      0.0550
    138  CG        37.9730   99.3760   35.4130 C.ar  410  TRP410      0.0003
    139  CD1       39.1710   99.4080   34.7630 C.ar  410  TRP410      0.0946
    140  CD2       37.3270  100.6080   35.1650 C.ar  410  TRP410      0.0152
    141  NE1       39.3040  100.6260   34.0990 N.ar  410  TRP410     -0.2442
    142  CE2       38.1860  101.3810   34.3560 C.ar  410  TRP410      0.0810
    143  CE3       36.1070  101.1550   35.5800 C.ar  410  TRP410      0.0012
    144  CZ2       37.8410  102.6770   33.9240 C.ar  410  TRP410      0.0191
    145  CZ3       35.7580  102.4470   35.1660 C.ar  410  TRP410      0.0001
    146  CH2       36.6340  103.1940   34.3420 C.ar  410  TRP410      0.0015
@<TRIPOS>BOND
     1    30    31    1
     2    31    34    1
     3    31    32    1
     4    18    19    2
     5    18    17    1
     6    33    32    2
     7    34    35    1
     8    32    41   am
     9    39    38    1
    10    17    16    1
    11    17    20    1
    12    35    36    1
    13    54    55    1
    14    54    53    1
    15    41    42    1
    16    55    49    1
    17    43    44    2
    18    43    42    1
    19    36    37    1
    20    20    21    1
    21    38    37    2
    22    38    40    1
    23    49    50    1
    24    53    50    1
    25    42    45    1
    26    50    51    1
    27    22    21   ar
    28    22    24   ar
    29    21    23   ar
    30    45    46    1
    31   144   146   ar
    32   144   142   ar
    33    48    46   ar
    34    24    25   ar
    35    73    72    2
    36    51    52    2
    37    51    56   am
    38    68    67   ar
    39   141   142   ar
    40   141   139   ar
    41    23    26   ar
    42    23    25   ar
    43   146   145   ar
    44   142   140   ar
    45    72    71    1
    46    46    47   ar
    47    26    28   ar
    48    25    27   ar
    49   139   138   ar
    50    56    57    1
    51   140   138   ar
    52   140   143   ar
    53   145   143   ar
    54    67    69   ar
    55    67    66    1
    56   138   137    1
    57    62    63    1
    58    62    58   am
    59    63    66    1
    60    63    64    1
    61    28    29   ar
    62    27    29   ar
    63    74    71    1
    64    74    75    1
    65    71    70    1
    66     7     5    1
    67     1     2    1
    68    64    65    2
    69   137   134    1
    70    57    58    1
    71    57    60    1
    72    58    59    2
    73   134   133    1
    74   134   135    1
    75     2     5    1
    76     2     3    1
    77    61    60    1
    78   136   135    2
    79     5     6    1
    80    75    77   am
    81    75    76    2
    82     3     4    2
    83    11    10    2
    84   130   132   ar
    85   130   128   ar
    86   132   131   ar
    87    14    12    1
    88    10     9    1
    89    12     9    1
    90    12    13    1
    91   128   127   ar
    92   100   101   ar
    93   100    98   ar
    94   120   119    1
    95   131   129   ar
    96     9     8    1
    97    86    84   ar
    98    86    87   ar
    99    84    83   ar
   100    15    13    1
   101   101    99   ar
   102   124   125    2
   103   124   123    1
   104    98    95   ar
   105   121   119    1
   106   127   129   ar
   107   127   126    1
   108   119   118    2
   109    87    85   ar
   110    83    82    1
   111    83    85   ar
   112    82    79    1
   113    99    97   ar
   114   123   126    1
   115   123   122    1
   116    95    97   ar
   117    95    93   ar
   118    97    96   ar
   119    92    93    1
   120    92    89    1
   121    78    79    1
   122   118   117    1
   123    93    94   ar
   124    79    80    1
   125    91    90    2
   126   110   108   ar
   127   117   116    1
   128    96    94   ar
   129    90    89    1
   130   107   108    1
   131   107   106    1
   132    89    88    1
   133   108   109   ar
   134   105   104    2
   135    80    81    2
   136   103   106    1
   137   103   104    1
   138   103   102    1
   139   116   115    1
   140   115   112    1
   141   112   113    1
   142   112   111    1
   143   114   113    2
