@<TRIPOS>MOLECULE
tmp/3qs4A01.pdb
 105 102 0 0 0
SMALL
GASTEIGER

@<TRIPOS>ATOM
      1  N        -25.0370  -13.8980  -16.2030 N.3    26  ARG26      -0.1245
      2  CA       -24.0500  -14.1390  -17.2520 C.3    26  ARG26       0.1563
      3  C        -22.6160  -14.1240  -16.7310 C.2    26  ARG26       0.2260
      4  O        -21.8390  -15.0350  -17.0180 O.2    26  ARG26      -0.2867
      5  CB       -24.2050  -13.1490  -18.4090 C.3    26  ARG26       0.0307
      6  CG       -23.4010  -13.5460  -19.6370 C.3    26  ARG26       0.0489
      7  CD       -23.7150  -12.6740  -20.8380 C.3    26  ARG26       0.2205
      8  NE       -23.3640  -13.3460  -22.0880 N.pl3  26  ARG26      -0.0865
      9  CZ       -22.1680  -13.2810  -22.6650 C.cat  26  ARG26       0.5346
     10  NH1      -21.1990  -12.5670  -22.1090 N.pl3  26  ARG26       0.1354
     11  NH2      -21.9420  -13.9280  -23.7990 N.pl3  26  ARG26       0.1354
     12  N        -37.2880   -7.2020  -27.8480 N.3   103  TYR103     -0.1241
     13  CA       -37.2500   -8.5050  -27.1820 C.3   103  TYR103      0.1605
     14  C        -36.8660   -8.4220  -25.7030 C.2   103  TYR103      0.2264
     15  O        -37.0760   -9.3720  -24.9500 O.2   103  TYR103     -0.2867
     16  CB       -36.3340   -9.4920  -27.9230 C.3   103  TYR103      0.0534
     17  CG       -34.8510   -9.1960  -27.8260 C.ar  103  TYR103     -0.0201
     18  CD1      -34.1300   -9.5170  -26.6830 C.ar  103  TYR103     -0.0009
     19  CD2      -34.1680   -8.6180  -28.8880 C.ar  103  TYR103     -0.0009
     20  CE1      -32.7760   -9.2540  -26.5930 C.ar  103  TYR103      0.0417
     21  CE2      -32.8130   -8.3530  -28.8080 C.ar  103  TYR103      0.0417
     22  CZ       -32.1220   -8.6720  -27.6580 C.ar  103  TYR103      0.1957
     23  OH       -30.7740   -8.4100  -27.5720 O.3   103  TYR103     -0.2866
     24  N        -15.9860   -9.4330  -24.3670 N.3   242  GLY242     -0.1225
     25  CA       -17.4080   -9.4800  -24.6520 C.3   242  GLY242      0.1811
     26  C        -18.2470   -9.2530  -23.4090 C.2   242  GLY242      0.2280
     27  O        -19.2720   -8.5740  -23.4570 O.2   242  GLY242     -0.2866
     28  N        -18.1280   -5.5600  -22.5710 N.3   245  PHE245     -0.1227
     29  CA       -18.9450   -4.8270  -23.5270 C.3   245  PHE245      0.1736
     30  C        -20.4180   -4.9600  -23.1630 C.2   245  PHE245      0.2595
     31  O        -21.1750   -3.9890  -23.2060 O.2   245  PHE245     -0.2718
     32  CB       -18.7160   -5.3690  -24.9370 C.3   245  PHE245      0.0547
     33  CG       -18.8600   -4.3350  -26.0160 C.ar  245  PHE245     -0.0202
     34  CD1      -20.1060   -4.0110  -26.5250 C.ar  245  PHE245     -0.0042
     35  CD2      -17.7460   -3.6910  -26.5230 C.ar  245  PHE245     -0.0042
     36  CE1      -20.2360   -3.0600  -27.5190 C.ar  245  PHE245     -0.0003
     37  CE2      -17.8680   -2.7410  -27.5150 C.ar  245  PHE245     -0.0003
     38  CZ       -19.1150   -2.4240  -28.0140 C.ar  245  PHE245     -0.0000
     39  N        -20.8080   -6.1780  -22.7980 N.am  246  PHE246     -0.1976
     40  CA       -22.1840   -6.4900  -22.4240 C.3   246  PHE246      0.1639
     41  C        -22.5970   -5.7760  -21.1410 C.2   246  PHE246      0.2290
     42  O        -23.5800   -5.0390  -21.1200 O.2   246  PHE246     -0.2864
     43  CB       -22.3470   -8.0050  -22.2580 C.3   246  PHE246      0.0560
     44  CG       -23.7520   -8.4400  -21.9370 C.ar  246  PHE246     -0.0200
     45  CD1      -24.7020   -8.5530  -22.9390 C.ar  246  PHE246     -0.0042
     46  CD2      -24.1150   -8.7560  -20.6370 C.ar  246  PHE246     -0.0042
     47  CE1      -25.9920   -8.9610  -22.6490 C.ar  246  PHE246     -0.0003
     48  CE2      -25.4050   -9.1660  -20.3410 C.ar  246  PHE246     -0.0003
     49  CZ       -26.3440   -9.2690  -21.3480 C.ar  246  PHE246     -0.0000
     50  N        -31.2740  -10.7550  -30.9510 N.3   397  ASP397     -0.1225
     51  CA       -30.2030  -10.6160  -29.9750 C.3   397  ASP397      0.1805
     52  C        -28.8380  -10.7710  -30.6330 C.2   397  ASP397      0.2597
     53  O        -27.8530  -10.1880  -30.1780 O.2   397  ASP397     -0.2718
     54  CB       -30.3650  -11.6370  -28.8450 C.3   397  ASP397      0.1424
     55  CG       -29.2040  -11.6160  -27.8710 C.2   397  ASP397      0.3668
     56  OD1      -29.1230  -10.6710  -27.0580 O.co2 397  ASP397     -0.2456
     57  OD2      -28.3740  -12.5480  -27.9160 O.co2 397  ASP397     -0.2456
     58  N        -28.7840  -11.5530  -31.7060 N.am  398  PHE398     -0.1976
     59  CA       -27.5270  -11.7780  -32.4100 C.3   398  PHE398      0.1639
     60  C        -27.1330  -10.5810  -33.2690 C.2   398  PHE398      0.2290
     61  O        -26.1370   -9.9150  -32.9950 O.2   398  PHE398     -0.2864
     62  CB       -27.5920  -13.0440  -33.2680 C.3   398  PHE398      0.0560
     63  CG       -26.3540  -13.2800  -34.0870 C.ar  398  PHE398     -0.0200
     64  CD1      -25.2250  -13.8440  -33.5160 C.ar  398  PHE398     -0.0042
     65  CD2      -26.3140  -12.9260  -35.4260 C.ar  398  PHE398     -0.0042
     66  CE1      -24.0820  -14.0550  -34.2650 C.ar  398  PHE398     -0.0003
     67  CE2      -25.1740  -13.1350  -36.1790 C.ar  398  PHE398     -0.0003
     68  CZ       -24.0570  -13.7010  -35.5990 C.ar  398  PHE398     -0.0000
     69  N        -28.2670   -7.0240  -30.8650 N.3   401  GLY401     -0.1210
     70  CA       -27.6940   -7.0350  -29.5320 C.3   401  GLY401      0.1956
     71  C        -26.2390   -7.4560  -29.4500 C.2   401  GLY401      0.2612
     72  O        -25.5040   -6.9810  -28.5850 O.2   401  GLY401     -0.2717
     73  N        -25.8170   -8.3430  -30.3460 N.am  402  THR402     -0.1952
     74  CA       -24.4730   -8.9110  -30.2810 C.3   402  THR402      0.1897
     75  C        -23.5550   -8.3570  -31.3660 C.2   402  THR402      0.2313
     76  O        -22.6040   -7.6300  -31.0780 O.2   402  THR402     -0.2863
     77  CB       -24.5100  -10.4480  -30.3850 C.3   402  THR402      0.1794
     78  OG1      -25.3240  -10.9780  -29.3320 O.3   402  THR402     -0.2208
     79  CG2      -23.1080  -11.0260  -30.2760 C.3   402  THR402      0.0378
     80  N        -23.7290   -4.1960  -31.6490 N.3   405  VAL405     -0.1231
     81  CA       -23.0740   -3.3590  -30.6450 C.3   405  VAL405      0.1692
     82  C        -21.5520   -3.2900  -30.7960 C.2   405  VAL405      0.2591
     83  O        -20.9580   -2.2290  -30.6100 O.2   405  VAL405     -0.2718
     84  CB       -23.4350   -3.7890  -29.2080 C.3   405  VAL405      0.0266
     85  CG1      -24.9420   -3.7520  -29.0130 C.3   405  VAL405      0.0020
     86  CG2      -22.8850   -5.1730  -28.9070 C.3   405  VAL405      0.0020
     87  N        -20.9230   -4.4120  -31.1330 N.am  406  VAL406     -0.1980
     88  CA       -19.4720   -4.4430  -31.3040 C.3   406  VAL406      0.1595
     89  C        -19.0480   -3.6820  -32.5560 C.2   406  VAL406      0.2287
     90  O        -18.0610   -2.9460  -32.5460 O.2   406  VAL406     -0.2864
     91  CB       -18.9380   -5.8840  -31.3770 C.3   406  VAL406      0.0276
     92  CG1      -17.4340   -5.8810  -31.6050 C.3   406  VAL406      0.0022
     93  CG2      -19.2860   -6.6380  -30.1040 C.3   406  VAL406      0.0022
     94  N        -18.6380  -17.6450  -36.0880 N.3   464  TYR464     -0.1241
     95  CA       -19.9600  -17.3390  -35.5540 C.3   464  TYR464      0.1605
     96  C        -21.0100  -17.2240  -36.6550 C.2   464  TYR464      0.2264
     97  O        -21.9150  -18.0520  -36.7510 O.2   464  TYR464     -0.2867
     98  CB       -19.9210  -16.0490  -34.7320 C.3   464  TYR464      0.0534
     99  CG       -20.7480  -16.1460  -33.4780 C.ar  464  TYR464     -0.0201
    100  CD1      -20.2090  -16.6870  -32.3100 C.ar  464  TYR464     -0.0009
    101  CD2      -22.0850  -15.7530  -33.4710 C.ar  464  TYR464     -0.0009
    102  CE1      -20.9810  -16.8410  -31.1670 C.ar  464  TYR464      0.0417
    103  CE2      -22.8680  -15.9010  -32.3340 C.ar  464  TYR464      0.0417
    104  CZ       -22.3120  -16.4470  -31.1880 C.ar  464  TYR464      0.1957
    105  OH       -23.0970  -16.5980  -30.0680 O.3   464  TYR464     -0.2866
@<TRIPOS>BOND
     1    97    96    2
     2    96    95    1
     3    67    68   ar
     4    67    65   ar
     5    94    95    1
     6    68    66   ar
     7    95    98    1
     8    65    63   ar
     9    98    99    1
    10    66    64   ar
    11    63    64   ar
    12    63    62    1
    13    99   101   ar
    14    99   100   ar
    15   101   103   ar
    16    60    61    2
    17    60    59    1
    18    62    59    1
    19    89    90    2
    20    89    88    1
    21    59    58    1
    22   103   104   ar
    23   100   102   ar
    24    58    52   am
    25    80    81    1
    26    92    91    1
    27    91    88    1
    28    91    93    1
    29    75    76    2
    30    75    74    1
    31    88    87    1
    32   104   102   ar
    33   104   105    1
    34    87    82   am
    35    50    51    1
    36    69    70    1
    37    82    81    1
    38    82    83    2
    39    81    84    1
    40    52    53    2
    41    52    51    1
    42    77    74    1
    43    77    79    1
    44    77    78    1
    45    73    74    1
    46    73    71   am
    47    51    54    1
    48    70    71    1
    49    71    72    2
    50    84    85    1
    51    84    86    1
    52    19    21   ar
    53    19    17   ar
    54    54    55    1
    55    21    22   ar
    56    38    36   ar
    57    38    37   ar
    58    16    17    1
    59    16    13    1
    60    57    55   ar
    61    55    56   ar
    62    12    13    1
    63    17    18   ar
    64    22    23    1
    65    22    20   ar
    66    36    34   ar
    67    37    35   ar
    68    13    14    1
    69    18    20   ar
    70    34    33   ar
    71    35    33   ar
    72    33    32    1
    73    14    15    2
    74    32    29    1
    75    25    24    1
    76    25    26    1
    77    11     9    1
    78    29    30    1
    79    29    28    1
    80    27    26    2
    81    31    30    2
    82    30    39   am
    83    45    47   ar
    84    45    44   ar
    85    39    40    1
    86     9    10    1
    87     9     8    2
    88    47    49   ar
    89    40    43    1
    90    40    41    1
    91    43    44    1
    92     8     7    1
    93    44    46   ar
    94    49    48   ar
    95    41    42    2
    96     7     6    1
    97    46    48   ar
    98     6     5    1
    99     5     2    1
   100     2     3    1
   101     2     1    1
   102     4     3    2
