@<TRIPOS>MOLECULE
tmp/3qs6A00.pdb
 123 113 0 0 0
SMALL
GASTEIGER

@<TRIPOS>ATOM
      1  N         29.4010    5.5860   15.6490 N.3    17  ASN17      -0.1225
      2  CA        29.3100    5.2980   17.0720 C.3    17  ASN17       0.1785
      3  C         28.5060    4.0270   17.3100 C.2    17  ASN17       0.2597
      4  O         28.9590    3.1100   17.9970 O.2    17  ASN17      -0.2718
      5  CB        28.6640    6.4790   17.8040 C.3    17  ASN17       0.1169
      6  CG        28.5580    6.2580   19.3040 C.2    17  ASN17       0.2627
      7  OD1       28.3630    5.1350   19.7710 O.2    17  ASN17      -0.2716
      8  ND2       28.6800    7.3380   20.0680 N.am   17  ASN17      -0.0877
      9  N         27.3140    3.9760   16.7240 N.am   18  ALA18      -0.1979
     10  CA        26.3880    2.8720   16.9430 C.3    18  ALA18       0.1597
     11  C         26.7020    1.6360   16.0940 C.2    18  ALA18       0.2287
     12  O         26.4640    0.5080   16.5270 O.2    18  ALA18      -0.2864
     13  CB        24.9570    3.3330   16.7050 C.3    18  ALA18       0.0319
     14  N         28.8100   -0.9960   15.0530 N.3    20  GLY20      -0.1210
     15  CA        30.0250   -1.6910   15.4330 C.3    20  GLY20       0.1956
     16  C         29.9090   -3.2020   15.4840 C.2    20  GLY20       0.2612
     17  O         29.0780   -3.7990   14.8040 O.2    20  GLY20      -0.2717
     18  N         30.7570   -3.8170   16.3010 N.am   21  LEU21      -0.1965
     19  CA        30.7990   -5.2690   16.4360 C.3    21  LEU21       0.1728
     20  C         29.4300   -5.8400   16.7860 C.2    21  LEU21       0.2617
     21  O         29.1220   -6.9870   16.4640 O.2    21  LEU21      -0.2715
     22  CB        31.8220   -5.6700   17.5020 C.3    21  LEU21       0.0311
     23  CG        33.2390   -5.1250   17.3060 C.3    21  LEU21       0.0022
     24  CD1       34.1180   -5.4390   18.5070 C.3    21  LEU21       0.0001
     25  CD2       33.8540   -5.6780   16.0330 C.3    21  LEU21       0.0001
     26  N         28.6120   -5.0310   17.4490 N.am   22  GLY22      -0.1940
     27  CA        27.2730   -5.4430   17.8240 C.3    22  GLY22       0.2014
     28  C         26.3880   -5.6800   16.6180 C.2    22  GLY22       0.2638
     29  O         25.5080   -6.5360   16.6410 O.2    22  GLY22      -0.2714
     30  N         26.6250   -4.9160   15.5580 N.am   23  ASN23      -0.1972
     31  CA        25.8560   -5.0560   14.3270 C.3    23  ASN23       0.1688
     32  C         26.1640   -6.3500   13.5820 C.2    23  ASN23       0.2292
     33  O         25.2640   -7.0020   13.0530 O.2    23  ASN23      -0.2864
     34  CB        26.1180   -3.8680   13.3970 C.3    23  ASN23       0.1181
     35  CG        25.5630   -2.5670   13.9370 C.2    23  ASN23       0.2629
     36  OD1       26.0570   -2.0290   14.9290 O.2    23  ASN23      -0.2716
     37  ND2       24.5360   -2.0470   13.2780 N.am   23  ASN23      -0.0877
     38  N         33.2470   -0.8570   29.2590 N.3   100  VAL100     -0.1245
     39  CA        32.9660   -1.4400   27.9510 C.3   100  VAL100      0.1561
     40  C         34.1830   -1.3620   27.0370 C.2   100  VAL100      0.2260
     41  O         34.5230   -2.3300   26.3580 O.2   100  VAL100     -0.2867
     42  CB        31.7690   -0.7540   27.2590 C.3   100  VAL100      0.0252
     43  CG1       31.7240   -1.1220   25.7810 C.3   100  VAL100      0.0019
     44  CG2       30.4660   -1.1270   27.9530 C.3   100  VAL100      0.0019
     45  N         36.0820   -4.2130   24.7930 N.3   104  TYR104     -0.1241
     46  CA        35.6740   -3.9840   23.4100 C.3   104  TYR104      0.1605
     47  C         36.8830   -3.7570   22.5070 C.2   104  TYR104      0.2264
     48  O         37.0090   -4.3830   21.4570 O.2   104  TYR104     -0.2867
     49  CB        34.7250   -2.7850   23.3320 C.3   104  TYR104      0.0534
     50  CG        33.9340   -2.6770   22.0420 C.ar  104  TYR104     -0.0201
     51  CD1       32.7050   -3.3090   21.9030 C.ar  104  TYR104     -0.0009
     52  CD2       34.4050   -1.9230   20.9750 C.ar  104  TYR104     -0.0009
     53  CE1       31.9760   -3.2050   20.7350 C.ar  104  TYR104      0.0417
     54  CE2       33.6830   -1.8120   19.8040 C.ar  104  TYR104      0.0417
     55  CZ        32.4690   -2.4550   19.6890 C.ar  104  TYR104      0.1957
     56  OH        31.7490   -2.3440   18.5230 O.3   104  TYR104     -0.2866
     57  N         22.4250   -2.1250   23.3100 N.3   247  PHE247     -0.1227
     58  CA        23.8250   -2.2830   22.9310 C.3   247  PHE247      0.1736
     59  C         24.1150   -1.6890   21.5540 C.2   247  PHE247      0.2596
     60  O         25.1170   -0.9970   21.3640 O.2   247  PHE247     -0.2718
     61  CB        24.2200   -3.7620   22.9590 C.3   247  PHE247      0.0547
     62  CG        25.6970   -3.9990   22.8150 C.ar  247  PHE247     -0.0202
     63  CD1       26.5480   -3.8190   23.8930 C.ar  247  PHE247     -0.0042
     64  CD2       26.2350   -4.4040   21.6040 C.ar  247  PHE247     -0.0042
     65  CE1       27.9090   -4.0360   23.7660 C.ar  247  PHE247     -0.0003
     66  CE2       27.5950   -4.6230   21.4710 C.ar  247  PHE247     -0.0003
     67  CZ        28.4320   -4.4390   22.5530 C.ar  247  PHE247     -0.0000
     68  N         23.2310   -1.9590   20.5990 N.am  248  THR248     -0.1953
     69  CA        23.4360   -1.5160   19.2240 C.3   248  THR248      0.1897
     70  C         23.3660    0.0070   19.0780 C.2   248  THR248      0.2313
     71  O         24.2060    0.6100   18.4140 O.2   248  THR248     -0.2863
     72  CB        22.4450   -2.1950   18.2490 C.3   248  THR248      0.1794
     73  OG1       22.7580   -1.8170   16.9050 O.3   248  THR248     -0.2208
     74  CG2       21.0100   -1.8000   18.5590 C.3   248  THR248      0.0378
     75  N         23.8160    2.0450   21.4230 N.3   250  SER250     -0.1217
     76  CA        24.7730    2.6020   22.3750 C.3   250  SER250      0.1889
     77  C         24.0820    3.4390   23.4490 C.2   250  SER250      0.2288
     78  O         24.6540    4.4000   23.9590 O.2   250  SER250     -0.2866
     79  CB        25.8170    3.4540   21.6520 C.3   250  SER250      0.2089
     80  OG        26.3410    2.7820   20.5240 O.3   250  SER250     -0.2183
     81  N         24.7180    4.3250   27.9840 N.3   253  VAL253     -0.1245
     82  CA        26.1550    4.2620   28.2190 C.3   253  VAL253      0.1561
     83  C         26.7050    5.6540   28.5090 C.2   253  VAL253      0.2260
     84  O         27.7310    5.8060   29.1720 O.2   253  VAL253     -0.2867
     85  CB        26.8990    3.6840   27.0040 C.3   253  VAL253      0.0252
     86  CG1       28.3560    3.4290   27.3520 C.3   253  VAL253      0.0019
     87  CG2       26.2230    2.4070   26.5210 C.3   253  VAL253      0.0019
     88  N         27.5460    7.6390   26.0760 N.3   255  ALA255     -0.1245
     89  CA        28.4210    7.9440   24.9520 C.3   255  ALA255      0.1562
     90  C         27.7430    8.8800   23.9580 C.2   255  ALA255      0.2260
     91  O         28.3570    9.8290   23.4710 O.2   255  ALA255     -0.2867
     92  CB        28.8630    6.6670   24.2630 C.3   255  ALA255      0.0290
     93  N         33.5640    2.7470   17.0910 N.3   349  SER349     -0.1217
     94  CA        32.8120    2.6240   18.3340 C.3   349  SER349      0.1889
     95  C         33.7130    2.7860   19.5520 C.2   349  SER349      0.2288
     96  O         33.3170    3.3940   20.5470 O.2   349  SER349     -0.2866
     97  CB        32.0800    1.2830   18.3940 C.3   349  SER349      0.2089
     98  OG        31.0050    1.2550   17.4690 O.3   349  SER349     -0.2183
     99  N         34.4030    6.2690   20.4820 N.3   352  ALA352     -0.1231
    100  CA        33.2400    6.8810   21.1130 C.3   352  ALA352      0.1694
    101  C         33.1230    6.4520   22.5740 C.2   352  ALA352      0.2591
    102  O         32.5290    7.1540   23.3940 O.2   352  ALA352     -0.2718
    103  CB        31.9760    6.5180   20.3500 C.3   352  ALA352      0.0304
    104  N         33.6980    5.2960   22.8900 N.am  353  GLN353     -0.1979
    105  CA        33.6300    4.7380   24.2360 C.3   353  GLN353      0.1601
    106  C         34.5800    5.4390   25.1990 C.2   353  GLN353      0.2287
    107  O         34.3480    5.4510   26.4080 O.2   353  GLN353     -0.2864
    108  CB        33.9190    3.2340   24.2090 C.3   353  GLN353      0.0394
    109  CG        32.8210    2.4080   23.5690 C.3   353  GLN353      0.0908
    110  CD        33.2730    1.0030   23.2200 C.2   353  GLN353      0.2608
    111  OE1       34.4200    0.6280   23.4650 O.2   353  GLN353     -0.2717
    112  NE2       32.3730    0.2200   22.6370 N.am  353  GLN353     -0.0878
    113  N         27.7860   -3.6600   29.8380 N.3   402  GLY402     -0.1225
    114  CA        27.0670   -3.6480   28.5770 C.3   402  GLY402      0.1811
    115  C         25.7240   -4.3540   28.5960 C.2   402  GLY402      0.2280
    116  O         25.0750   -4.4890   27.5580 O.2   402  GLY402     -0.2866
    117  N         23.5920   -0.7370   31.3850 N.3   406  VAL406     -0.1245
    118  CA        23.0570    0.1750   30.3740 C.3   406  VAL406      0.1561
    119  C         21.5460    0.3820   30.4880 C.2   406  VAL406      0.2260
    120  O         21.0300    1.4360   30.1140 O.2   406  VAL406     -0.2867
    121  CB        23.4080   -0.2790   28.9380 C.3   406  VAL406      0.0252
    122  CG1       24.8980   -0.1180   28.6770 C.3   406  VAL406      0.0019
    123  CG2       22.9700   -1.7160   28.7110 C.3   406  VAL406      0.0019
@<TRIPOS>BOND
     1    33    32    2
     2    37    35   am
     3    34    35    1
     4    34    31    1
     5    32    31    1
     6    35    36    2
     7    31    30    1
     8    17    16    2
     9    14    15    1
    10    15    16    1
    11    16    18   am
    12    30    28   am
    13     1     2    1
    14    25    23    1
    15    11    12    2
    16    11    10    1
    17    18    19    1
    18    19    20    1
    19    19    22    1
    20    21    20    2
    21    28    29    2
    22    28    27    1
    23    13    10    1
    24     9    10    1
    25     9     3   am
    26    20    26   am
    27    73    72    1
    28     2     3    1
    29     2     5    1
    30    93    94    1
    31    23    22    1
    32    23    24    1
    33     3     4    2
    34    26    27    1
    35    98    97    1
    36     5     6    1
    37    72    74    1
    38    72    69    1
    39    94    97    1
    40    94    95    1
    41    71    70    2
    42    56    55    1
    43    70    69    1
    44    69    68    1
    45     6     7    2
    46     6     8   am
    47    95    96    2
    48    55    54   ar
    49    55    53   ar
    50    54    52   ar
    51   103   100    1
    52    99   100    1
    53    80    79    1
    54    68    59   am
    55    53    51   ar
    56    52    50   ar
    57   100   101    1
    58    60    59    2
    59    75    76    1
    60    48    47    2
    61    66    64   ar
    62    66    67   ar
    63    59    58    1
    64    64    62   ar
    65    79    76    1
    66    51    50   ar
    67    50    49    1
    68    76    77    1
    69    47    46    1
    70    67    65   ar
    71   101   104   am
    72   101   102    2
    73   112   110   am
    74    62    61    1
    75    62    63   ar
    76   104   105    1
    77    58    61    1
    78    58    57    1
    79   110   111    2
    80   110   109    1
    81    49    46    1
    82    46    45    1
    83    77    78    2
    84    91    90    2
    85   109   108    1
    86    65    63   ar
    87    90    89    1
    88   108   105    1
    89   105   106    1
    90    92    89    1
    91    89    88    1
    92   106   107    2
    93    43    42    1
    94    41    40    2
    95    87    85    1
    96    85    86    1
    97    85    82    1
    98    40    39    1
    99    42    39    1
   100    42    44    1
   101   116   115    2
   102    39    38    1
   103    81    82    1
   104    82    83    1
   105    83    84    2
   106   114   115    1
   107   114   113    1
   108   122   121    1
   109   123   121    1
   110   121   118    1
   111   120   119    2
   112   118   119    1
   113   118   117    1
