@<TRIPOS>MOLECULE
tmp/3qs8A01.pdb
 116 113 0 0 0
SMALL
GASTEIGER

@<TRIPOS>ATOM
      1  N         16.2230   -5.8310   23.1350 N.3    62  MET62      -0.1245
      2  CA        15.0440   -6.6950   23.2280 C.3    62  MET62       0.1570
      3  C         14.4820   -7.0400   21.8480 C.2    62  MET62       0.2261
      4  O         14.2170   -8.2210   21.5430 O.2    62  MET62      -0.2867
      5  CB        13.9590   -6.0520   24.0920 C.3    62  MET62       0.0387
      6  CG        14.3550   -6.1100   25.5420 C.3    62  MET62       0.0595
      7  SD        12.9630   -5.9410   26.6170 S.3    62  MET62      -0.1393
      8  CE        11.9630   -7.3540   26.1330 C.3    62  MET62       0.0692
      9  N          0.1480   -8.2640   27.7190 N.3   114  ASN114     -0.1225
     10  CA         0.6510   -9.0910   28.8050 C.3   114  ASN114      0.1785
     11  C         -0.4990   -9.2720   29.7910 C.2   114  ASN114      0.2597
     12  O         -1.4630   -8.4860   29.7810 O.2   114  ASN114     -0.2718
     13  CB         1.8460   -8.3870   29.4870 C.3   114  ASN114      0.1169
     14  CG         2.7770   -9.3600   30.2250 C.2   114  ASN114      0.2627
     15  OD1        2.9160  -10.5150   29.8270 O.2   114  ASN114     -0.2716
     16  ND2        3.4310   -8.8770   31.3010 N.am  114  ASN114     -0.0877
     17  N         -0.4270  -10.3220   30.6030 N.am  115  ARG115     -0.1966
     18  CA        -1.3090  -10.4420   31.7760 C.3   115  ARG115      0.1729
     19  C         -1.0710   -9.2890   32.7590 C.2   115  ARG115      0.2616
     20  O         -0.0740   -8.5650   32.6450 O.2   115  ARG115     -0.2715
     21  CB        -1.1010  -11.7920   32.4600 C.3   115  ARG115      0.0348
     22  CG        -1.5430  -12.9700   31.5800 C.3   115  ARG115      0.0492
     23  CD        -1.4330  -14.3330   32.3340 C.3   115  ARG115      0.2205
     24  NE        -1.7480  -15.4540   31.4490 N.pl3 115  ARG115     -0.0865
     25  CZ        -2.9730  -15.8340   31.0960 C.cat 115  ARG115      0.5346
     26  NH1       -4.0560  -15.1900   31.5410 N.pl3 115  ARG115      0.1354
     27  NH2       -3.1180  -16.8790   30.2900 N.pl3 115  ARG115      0.1354
     28  N         -2.0010   -9.0850   33.6960 N.am  116  ALA116     -0.1963
     29  CA        -1.8200   -8.0940   34.7590 C.3   116  ALA116      0.1728
     30  C         -0.5310   -8.3560   35.5300 C.2   116  ALA116      0.2616
     31  O         -0.1180   -9.5000   35.6710 O.2   116  ALA116     -0.2715
     32  CB        -3.0150   -8.0910   35.6980 C.3   116  ALA116      0.0334
     33  N          0.1540   -7.2880   35.9480 N.am  117  ALA117     -0.1977
     34  CA         1.2520   -7.4420   36.9040 C.3   117  ALA117      0.1597
     35  C          0.7840   -7.0350   38.2990 C.2   117  ALA117      0.2287
     36  O          1.1720   -7.6630   39.2640 O.2   117  ALA117     -0.2864
     37  CB         2.5080   -6.6900   36.4780 C.3   117  ALA117      0.0319
     38  N          3.4940  -10.9380   25.1180 N.3   155  ALA155     -0.1231
     39  CA         4.9120  -10.7030   25.4640 C.3   155  ALA155      0.1679
     40  C          5.7510  -11.9460   25.8210 C.2   155  ALA155      0.2434
     41  O          6.8610  -12.0990   25.2750 O.2   155  ALA155     -0.2733
     42  CB         5.0600   -9.5860   26.5250 C.3   155  ALA155      0.0304
     43  N          5.2350  -12.8610   26.6820 N.am  156  PRO156     -0.2729
     44  CA         6.0400  -14.0780   26.9660 C.3   156  PRO156      0.1401
     45  C          6.2640  -14.9470   25.7310 C.2   156  PRO156      0.2269
     46  O          7.3000  -15.5860   25.6350 O.2   156  PRO156     -0.2865
     47  CB         5.1950  -14.8500   27.9990 C.3   156  PRO156      0.0296
     48  CG         4.3000  -13.8090   28.6140 C.3   156  PRO156      0.0237
     49  CD         4.0150  -12.8150   27.5120 C.3   156  PRO156      0.0939
     50  N          9.0570  -12.7180   23.5570 N.3   159  HIS159     -0.1227
     51  CA        10.2800  -12.2660   24.2510 C.3   159  HIS159      0.1737
     52  C         10.7470  -13.3100   25.2920 C.2   159  HIS159      0.2438
     53  O         10.9370  -12.9840   26.4650 O.2   159  HIS159     -0.2733
     54  CB        10.0310  -10.9160   24.9510 C.3   159  HIS159      0.0758
     55  CG         9.6830   -9.8020   24.0180 C.ar  159  HIS159      0.0818
     56  ND1       10.6170   -9.2120   23.1880 N.ar  159  HIS159     -0.2268
     57  CD2        8.5060   -9.1680   23.7840 C.ar  159  HIS159      0.1154
     58  CE1       10.0270   -8.2530   22.4910 C.ar  159  HIS159      0.1986
     59  NE2        8.7450   -8.2130   22.8250 N.ar  159  HIS159     -0.2212
     60  N         10.9380  -14.5810   24.8710 N.am  160  PRO160     -0.2729
     61  CA        11.2470  -15.6120   25.8760 C.3   160  PRO160      0.1401
     62  C         12.5000  -15.3150   26.7020 C.2   160  PRO160      0.2269
     63  O         12.5530  -15.6630   27.8740 O.2   160  PRO160     -0.2865
     64  CB        11.4150  -16.9080   25.0200 C.3   160  PRO160      0.0296
     65  CG        11.7640  -16.3650   23.6070 C.3   160  PRO160      0.0237
     66  CD        10.8670  -15.1400   23.5080 C.3   160  PRO160      0.0939
     67  N         13.4810  -12.5720   27.8880 N.3   162  TYR162     -0.1227
     68  CA        13.2510  -11.5550   28.9140 C.3   162  TYR162      0.1736
     69  C         12.8660  -12.2200   30.2470 C.2   162  TYR162      0.2595
     70  O         12.7180  -11.5550   31.2730 O.2   162  TYR162     -0.2718
     71  CB        12.1500  -10.6100   28.4540 C.3   162  TYR162      0.0548
     72  CG        11.8830   -9.4400   29.3860 C.ar  162  TYR162     -0.0200
     73  CD1       12.7920   -8.3890   29.5020 C.ar  162  TYR162     -0.0009
     74  CD2       10.6990   -9.3720   30.1190 C.ar  162  TYR162     -0.0009
     75  CE1       12.5200   -7.2920   30.3400 C.ar  162  TYR162      0.0417
     76  CE2       10.4250   -8.2780   30.9590 C.ar  162  TYR162      0.0417
     77  CZ        11.3410   -7.2650   31.0740 C.ar  162  TYR162      0.1957
     78  OH        11.0440   -6.1950   31.9110 O.3   162  TYR162     -0.2866
     79  N         12.7130  -13.5350   30.2060 N.am  163  ARG163     -0.1980
     80  CA        12.2710  -14.3460   31.3520 C.3   163  ARG163      0.1597
     81  C         12.9790  -13.9830   32.6770 C.2   163  ARG163      0.2287
     82  O         12.3400  -13.8340   33.7200 O.2   163  ARG163     -0.2864
     83  CB        12.5210  -15.8170   30.9570 C.3   163  ARG163      0.0334
     84  CG        12.1720  -16.8410   31.9450 C.3   163  ARG163      0.0492
     85  CD        12.1650  -18.2370   31.2890 C.3   163  ARG163      0.2205
     86  NE        13.4880  -18.7250   30.8580 N.pl3 163  ARG163     -0.0865
     87  CZ        14.3390  -19.3760   31.6620 C.cat 163  ARG163      0.5346
     88  NH1       14.0380  -19.5850   32.9430 N.pl3 163  ARG163      0.1354
     89  NH2       15.4970  -19.8160   31.1930 N.pl3 163  ARG163      0.1354
     90  N         12.1580  -10.4410   33.8320 N.3   166  ALA166     -0.1245
     91  CA        10.7840  -10.3870   34.2960 C.3   166  ALA166      0.1562
     92  C         10.6690  -10.8850   35.7200 C.2   166  ALA166      0.2260
     93  O          9.8870  -10.3520   36.5010 O.2   166  ALA166     -0.2867
     94  CB         9.8660  -11.2120   33.3800 C.3   166  ALA166      0.0290
     95  N         11.8810   -8.0930   37.9390 N.3   169  ARG169     -0.1231
     96  CA        10.8590   -7.0340   37.9640 C.3   169  ARG169      0.1694
     97  C          9.7580   -7.3380   38.9940 C.2   169  ARG169      0.2591
     98  O          9.3690   -6.4970   39.8010 O.2   169  ARG169     -0.2718
     99  CB        10.2390   -6.8650   36.5650 C.3   169  ARG169      0.0321
    100  CG         9.2440   -5.6960   36.4860 C.3   169  ARG169      0.0489
    101  CD         8.2100   -5.8110   35.4060 C.3   169  ARG169      0.2205
    102  NE         6.9260   -5.3990   35.9530 N.pl3 169  ARG169     -0.0865
    103  CZ         5.9590   -4.7930   35.2740 C.cat 169  ARG169      0.5346
    104  NH1        6.1040   -4.5150   33.9980 N.pl3 169  ARG169      0.1354
    105  NH2        4.8450   -4.4550   35.8860 N.pl3 169  ARG169      0.1354
    106  N          9.2700   -8.5690   38.9870 N.am  170  ARG170     -0.1980
    107  CA         8.2410   -8.9550   39.9430 C.3   170  ARG170      0.1597
    108  C          8.7710   -9.1000   41.3910 C.2   170  ARG170      0.2287
    109  O          8.0710   -8.8250   42.3410 O.2   170  ARG170     -0.2864
    110  CB         7.6180  -10.2610   39.4960 C.3   170  ARG170      0.0334
    111  CG         6.7320  -10.1100   38.2570 C.3   170  ARG170      0.0492
    112  CD         6.0620  -11.4570   37.9190 C.3   170  ARG170      0.2205
    113  NE         7.0180  -12.5590   37.7710 N.pl3 170  ARG170     -0.0865
    114  CZ         7.4050  -13.0800   36.6050 C.cat 170  ARG170      0.5346
    115  NH1        6.9220  -12.5840   35.4670 N.pl3 170  ARG170      0.1354
    116  NH2        8.2900  -14.0840   36.5730 N.pl3 170  ARG170      0.1354
@<TRIPOS>BOND
     1     4     3    2
     2     3     2    1
     3    58    59   ar
     4    58    56   ar
     5    59    57   ar
     6     1     2    1
     7    56    55   ar
     8     2     5    1
     9    66    65    1
    10    66    60    1
    11    50    51    1
    12    65    64    1
    13    57    55   ar
    14    55    54    1
    15     5     6    1
    16    51    54    1
    17    51    52    1
    18    60    52   am
    19    60    61    1
    20    64    61    1
    21    38    39    1
    22    41    40    2
    23    52    53    2
    24    39    40    1
    25    39    42    1
    26     6     7    1
    27    46    45    2
    28    45    44    1
    29    40    43   am
    30    61    62    1
    31     8     7    1
    32    43    44    1
    33    43    49    1
    34    62    63    2
    35    44    47    1
    36    49    48    1
    37     9    10    1
    38    67    68    1
    39    47    48    1
    40    71    68    1
    41    71    72    1
    42    10    13    1
    43    10    11    1
    44    68    69    1
    45    72    73   ar
    46    72    74   ar
    47    13    14    1
    48    73    75   ar
    49    12    11    2
    50    11    17   am
    51    15    14    2
    52    74    76   ar
    53    79    69   am
    54    79    80    1
    55    14    16   am
    56    69    70    2
    57    27    25    1
    58    75    77   ar
    59    17    18    1
    60    86    85    1
    61    86    87    2
    62    83    80    1
    63    83    84    1
    64    76    77   ar
    65    77    78    1
    66    25    24    2
    67    25    26    1
    68    89    87    1
    69    85    84    1
    70    80    81    1
    71    24    23    1
    72    22    23    1
    73    22    21    1
    74    87    88    1
    75    18    21    1
    76    18    19    1
    77    20    19    2
    78    81    82    2
    79    19    28   am
    80    94    91    1
    81    28    29    1
    82    90    91    1
    83   104   103    1
    84    91    92    1
    85    29    30    1
    86    29    32    1
    87   103   105    1
    88   103   102    2
    89   101   102    1
    90   101   100    1
    91   115   114    1
    92    30    31    2
    93    30    33   am
    94    92    93    2
    95    33    34    1
    96    37    34    1
    97   100    99    1
    98    99    96    1
    99   116   114    1
   100   114   113    2
   101    34    35    1
   102   113   112    1
   103   112   111    1
   104    95    96    1
   105    96    97    1
   106   111   110    1
   107    35    36    2
   108   106    97   am
   109   106   107    1
   110    97    98    2
   111   110   107    1
   112   107   108    1
   113   108   109    2
