@<TRIPOS>MOLECULE
tmp/3qs8B01.pdb
 131 126 0 0 0
SMALL
GASTEIGER

@<TRIPOS>ATOM
      1  N        -22.9880   34.5240   48.3710 N.3    62  MET62      -0.1245
      2  CA       -24.1530   33.6410   48.4120 C.3    62  MET62       0.1570
      3  C        -24.6890   33.2870   47.0140 C.2    62  MET62       0.2261
      4  O        -25.0170   32.1240   46.7140 O.2    62  MET62      -0.2867
      5  CB       -25.2800   34.2190   49.2810 C.3    62  MET62       0.0387
      6  CG       -24.9210   34.1820   50.7650 C.3    62  MET62       0.0595
      7  SD       -26.3660   34.4560   51.7620 S.3    62  MET62      -0.1393
      8  CE       -27.2270   32.9210   51.3980 C.3    62  MET62       0.0692
      9  N        -40.6180   40.7100   48.9050 N.3    82  VAL82      -0.1231
     10  CA       -40.0490   39.9890   50.0280 C.3    82  VAL82       0.1692
     11  C        -39.4250   40.9800   51.0030 C.2    82  VAL82       0.2593
     12  O        -38.9900   42.0500   50.6130 O.2    82  VAL82      -0.2718
     13  CB       -38.9830   38.9370   49.5410 C.3    82  VAL82       0.0266
     14  CG1      -37.7670   39.6210   48.8550 C.3    82  VAL82       0.0020
     15  CG2      -38.5240   38.0710   50.6650 C.3    82  VAL82       0.0020
     16  N        -39.3560   40.5940   52.2680 N.am   83  GLY83      -0.1942
     17  CA       -38.7900   41.4470   53.2880 C.3    83  GLY83       0.2014
     18  C        -37.8490   40.6610   54.1600 C.2    83  GLY83       0.2639
     19  O        -37.7880   39.4210   54.0870 O.2    83  GLY83      -0.2714
     20  N        -37.1120   41.3860   54.9830 N.am   84  THR84      -0.1950
     21  CA       -36.2070   40.7910   55.9800 C.3    84  THR84       0.1897
     22  C        -36.9410   39.9510   57.0140 C.2    84  THR84       0.2313
     23  O        -36.3660   39.0160   57.5510 O.2    84  THR84      -0.2863
     24  CB       -35.4110   41.8750   56.7510 C.3    84  THR84       0.1794
     25  OG1      -36.3200   42.8320   57.3180 O.3    84  THR84      -0.2208
     26  CG2      -34.4600   42.5990   55.8480 C.3    84  THR84       0.0378
     27  N        -38.6760   35.0220   46.4340 N.3   112  HIS112     -0.1226
     28  CA       -37.7600   34.3680   47.3650 C.3   112  HIS112      0.1756
     29  C        -38.4360   34.3660   48.7170 C.2   112  HIS112      0.2636
     30  O        -39.0520   35.3810   49.1310 O.2   112  HIS112     -0.2714
     31  CB       -36.4710   35.1800   47.4720 C.3   112  HIS112      0.0759
     32  CG       -35.3130   34.4270   48.0540 C.ar  112  HIS112      0.0818
     33  ND1      -34.2740   35.0580   48.7070 N.ar  112  HIS112     -0.2268
     34  CD2      -35.0040   33.1070   48.0490 C.ar  112  HIS112      0.1154
     35  CE1      -33.3820   34.1590   49.0890 C.ar  112  HIS112      0.1986
     36  NE2      -33.7980   32.9690   48.7000 N.ar  112  HIS112     -0.2212
     37  N        -38.3460   33.2450   49.4100 N.am  113  GLY113     -0.1718
     38  CA       -38.9320   33.1830   50.7390 C.2   113  GLY113      0.1480
     39  C        -38.4280   32.0880   51.6610 C.2   113  GLY113      0.2820
     40  O        -37.5460   31.3040   51.3260 O.2   113  GLY113     -0.2669
     41  N        -39.0340   32.0380   52.8370 N.am  114  ASN114     -0.1937
     42  CA       -38.5590   31.1970   53.9050 C.3   114  ASN114      0.1691
     43  C        -39.6640   31.0050   54.9330 C.2   114  ASN114      0.2292
     44  O        -40.6770   31.7500   54.9550 O.2   114  ASN114     -0.2864
     45  CB       -37.3220   31.8500   54.5580 C.3   114  ASN114      0.1181
     46  CG       -36.4520   30.8430   55.3120 C.2   114  ASN114      0.2629
     47  OD1      -36.4620   29.6360   55.0190 O.2   114  ASN114     -0.2716
     48  ND2      -35.7040   31.3370   56.2950 N.am  114  ASN114     -0.0877
     49  N        -35.7680   29.4650   50.2230 N.3   155  ALA155     -0.1245
     50  CA       -34.3590   29.7470   50.5760 C.3   155  ALA155      0.1562
     51  C        -33.4850   28.5050   50.8660 C.2   155  ALA155      0.2260
     52  O        -32.4420   28.3470   50.2020 O.2   155  ALA155     -0.2867
     53  CB       -34.2570   30.7900   51.6900 C.3   155  ALA155      0.0290
     54  N        -30.1500   27.6910   48.6840 N.3   159  HIS159     -0.1241
     55  CA       -28.9490   28.1200   49.4170 C.3   159  HIS159      0.1621
     56  C        -28.5650   27.1010   50.4860 C.2   159  HIS159      0.2264
     57  O        -28.4410   27.4820   51.6570 O.2   159  HIS159     -0.2867
     58  CB       -29.1770   29.4730   50.1180 C.3   159  HIS159      0.0745
     59  CG       -29.5080   30.6030   49.1900 C.ar  159  HIS159      0.0817
     60  ND1      -28.5600   31.2260   48.4010 N.ar  159  HIS159     -0.2268
     61  CD2      -30.6830   31.2330   48.9390 C.ar  159  HIS159      0.1154
     62  CE1      -29.1380   32.1920   47.7080 C.ar  159  HIS159      0.1986
     63  NE2      -30.4290   32.2100   48.0090 N.ar  159  HIS159     -0.2212
     64  N        -25.7460   27.7810   53.0580 N.3   162  TYR162     -0.1241
     65  CA       -25.9670   28.7590   54.1210 C.3   162  TYR162      0.1605
     66  C        -26.2730   28.0730   55.4840 C.2   162  TYR162      0.2264
     67  O        -26.4000   28.7630   56.5090 O.2   162  TYR162     -0.2867
     68  CB       -27.1110   29.7120   53.7080 C.3   162  TYR162      0.0534
     69  CG       -27.3460   30.9140   54.6040 C.ar  162  TYR162     -0.0201
     70  CD1      -26.4430   31.9960   54.6180 C.ar  162  TYR162     -0.0009
     71  CD2      -28.4960   31.0030   55.3980 C.ar  162  TYR162     -0.0009
     72  CE1      -26.6710   33.1170   55.4160 C.ar  162  TYR162      0.0417
     73  CE2      -28.7290   32.1150   56.2070 C.ar  162  TYR162      0.0417
     74  CZ       -27.8120   33.1640   56.2110 C.ar  162  TYR162      0.1957
     75  OH       -28.0450   34.2670   57.0010 O.3   162  TYR162     -0.2866
     76  N        -27.3120   32.2020   63.1960 N.3   169  ARG169     -0.1245
     77  CA       -28.3870   33.1950   63.2630 C.3   169  ARG169      0.1563
     78  C        -29.4730   32.8400   64.3090 C.2   169  ARG169      0.2260
     79  O        -29.8630   33.6590   65.1470 O.2   169  ARG169     -0.2867
     80  CB       -29.0350   33.3650   61.8790 C.3   169  ARG169      0.0307
     81  CG       -30.1440   34.4300   61.8910 C.3   169  ARG169      0.0489
     82  CD       -31.0560   34.4340   60.6680 C.3   169  ARG169      0.2205
     83  NE       -32.3560   35.0000   61.0500 N.pl3 169  ARG169     -0.0865
     84  CZ       -33.2150   35.5870   60.2140 C.cat 169  ARG169      0.5346
     85  NH1      -34.3630   36.0600   60.6740 N.pl3 169  ARG169      0.1354
     86  NH2      -32.9270   35.7150   58.9180 N.pl3 169  ARG169      0.1354
     87  N        -26.6580   39.5340   58.6340 N.3   178  PHE178     -0.1227
     88  CA       -27.1600   38.3530   57.9440 C.3   178  PHE178      0.1736
     89  C        -28.6430   38.4500   57.6580 C.2   178  PHE178      0.2595
     90  O        -29.0900   37.9030   56.6620 O.2   178  PHE178     -0.2718
     91  CB       -26.9180   37.0460   58.7260 C.3   178  PHE178      0.0547
     92  CG       -25.4690   36.5790   58.7550 C.ar  178  PHE178     -0.0202
     93  CD1      -24.4890   37.1810   57.9770 C.ar  178  PHE178     -0.0042
     94  CD2      -25.1020   35.4990   59.5750 C.ar  178  PHE178     -0.0042
     95  CE1      -23.1420   36.7310   58.0080 C.ar  178  PHE178     -0.0003
     96  CE2      -23.7610   35.0320   59.6090 C.ar  178  PHE178     -0.0003
     97  CZ       -22.7900   35.6620   58.8170 C.ar  178  PHE178     -0.0000
     98  N        -29.4000   39.1230   58.5370 N.am  179  ASN179     -0.1974
     99  CA       -30.8410   39.2960   58.3390 C.3   179  ASN179      0.1688
    100  C        -31.1780   40.0990   57.0970 C.2   179  ASN179      0.2292
    101  O        -32.3240   40.1390   56.7010 O.2   179  ASN179     -0.2864
    102  CB       -31.5460   39.9150   59.5870 C.3   179  ASN179      0.1181
    103  CG       -31.4950   38.9970   60.8240 C.2   179  ASN179      0.2629
    104  OD1      -32.5260   38.5390   61.3440 O.2   179  ASN179     -0.2716
    105  ND2      -30.3070   38.7140   61.2730 N.am  179  ASN179     -0.0877
    106  N        -29.6690   39.4540   54.1340 N.3   181  LEU181     -0.1231
    107  CA       -29.2380   38.7160   52.9640 C.3   181  LEU181      0.1693
    108  C        -30.3630   38.0660   52.1720 C.2   181  LEU181      0.2593
    109  O        -30.2450   37.9400   50.9590 O.2   181  LEU181     -0.2718
    110  CB       -28.1370   37.7150   53.3380 C.3   181  LEU181      0.0284
    111  CG       -26.8700   38.4200   53.8520 C.3   181  LEU181      0.0019
    112  CD1      -25.7990   37.4180   54.1230 C.3   181  LEU181      0.0001
    113  CD2      -26.3690   39.4960   52.8990 C.3   181  LEU181      0.0001
    114  N        -31.4130   37.5920   52.8530 N.am  182  GLY182     -0.1943
    115  CA       -32.5620   36.9690   52.1680 C.3   182  GLY182      0.1998
    116  C        -33.1270   37.7710   50.9980 C.2   182  GLY182      0.2480
    117  O        -33.1570   37.2730   49.8720 O.2   182  GLY182     -0.2729
    118  N        -33.5580   39.0290   51.2380 N.am  183  PRO183     -0.2726
    119  CA       -34.0800   39.8160   50.1270 C.3   183  PRO183      0.1402
    120  C        -33.0130   40.1160   49.0820 C.2   183  PRO183      0.2269
    121  O        -33.3500   40.3470   47.9370 O.2   183  PRO183     -0.2865
    122  CB       -34.5410   41.1180   50.8110 C.3   183  PRO183      0.0296
    123  CG       -34.8450   40.6830   52.2310 C.3   183  PRO183      0.0237
    124  CD       -33.7000   39.7630   52.5150 C.3   183  PRO183      0.0939
    125  N        -30.6490   37.9540   48.0510 N.3   185  THR185     -0.1218
    126  CA       -30.0700   36.7620   47.4090 C.3   185  THR185      0.1862
    127  C        -31.0810   35.8640   46.6950 C.2   185  THR185      0.2287
    128  O        -30.9250   34.6210   46.6570 O.2   185  THR185     -0.2866
    129  CB       -29.2830   35.9290   48.4250 C.3   185  THR185      0.1770
    130  OG1      -30.1000   35.7210   49.5720 O.3   185  THR185     -0.2211
    131  CG2      -28.0280   36.6800   48.8570 C.3   185  THR185      0.0375
@<TRIPOS>BOND
     1    27    28    1
     2   128   127    2
     3   127   126    1
     4     4     3    2
     5     3     2    1
     6    28    31    1
     7    28    29    1
     8   126   125    1
     9   126   129    1
    10    31    32    1
    11    62    63   ar
    12    62    60   ar
    13   121   120    2
    14    63    61   ar
    15    34    32   ar
    16    34    36   ar
    17    32    33   ar
    18     1     2    1
    19    60    59   ar
    20     2     5    1
    21   129   131    1
    22   129   130    1
    23    54    55    1
    24    36    35   ar
    25    33    35   ar
    26    29    30    2
    27    29    37    1
    28    14    13    1
    29     9    10    1
    30    61    59   ar
    31   120   119    1
    32    59    58    1
    33     5     6    1
    34    37    38    2
    35    55    58    1
    36    55    56    1
    37    13    10    1
    38    13    15    1
    39   117   116    2
    40    10    11    1
    41   119   122    1
    42   119   118    1
    43    52    51    2
    44    49    50    1
    45    56    57    2
    46    50    51    1
    47    50    53    1
    48    12    11    2
    49    38    39    1
    50     6     7    1
    51   122   123    1
    52   109   108    2
    53   116   118   am
    54   116   115    1
    55    11    16   am
    56   118   124    1
    57    40    39    2
    58     8     7    1
    59    39    41   am
    60   115   114    1
    61   108   114   am
    62   108   107    1
    63   123   124    1
    64    16    17    1
    65    41    42    1
    66   113   111    1
    67   107   110    1
    68   107   106    1
    69    64    65    1
    70    17    18    1
    71   110   111    1
    72    68    65    1
    73    68    69    1
    74   111   112    1
    75    42    45    1
    76    42    43    1
    77    19    18    2
    78    65    66    1
    79    18    20   am
    80    45    46    1
    81    69    70   ar
    82    69    71   ar
    83    70    72   ar
    84    43    44    2
    85    20    21    1
    86    47    46    2
    87    46    48   am
    88    71    73   ar
    89    72    74   ar
    90    66    67    2
    91    26    24    1
    92    21    24    1
    93    21    22    1
    94    73    74   ar
    95    74    75    1
    96    90    89    2
    97   101   100    2
    98    24    25    1
    99    22    23    2
   100   100    99    1
   101    89    88    1
   102    89    98   am
   103    88    87    1
   104    88    91    1
   105    93    95   ar
   106    93    92   ar
   107    95    97   ar
   108    99    98    1
   109    99   102    1
   110    91    92    1
   111    92    94   ar
   112    97    96   ar
   113    86    84    1
   114    94    96   ar
   115   102   103    1
   116    84    85    1
   117    84    83    2
   118    82    83    1
   119    82    81    1
   120   103   105   am
   121   103   104    2
   122    80    81    1
   123    80    77    1
   124    76    77    1
   125    77    78    1
   126    78    79    2
