@<TRIPOS>MOLECULE
tmp/3qsbA00.pdb
 143 137 0 0 0
SMALL
GASTEIGER

@<TRIPOS>ATOM
      1  N         56.3510   17.8840   32.6160 N.3   152  ARG152     -0.1301
      2  CA        57.4520   17.1030   33.1830 C.3   152  ARG152      0.1248
      3  C         57.7540   16.0300   32.1840 C.3   152  ARG152      0.2009
      4  O         57.1600   14.8750   32.2220 O.3   152  ARG152     -0.2188
      5  CB        57.0410   16.4860   34.5160 C.3   152  ARG152      0.0254
      6  CG        56.4550   17.4500   35.5850 C.3   152  ARG152      0.0485
      7  CD        55.0780   16.9510   36.0000 C.3   152  ARG152      0.2205
      8  NE        54.8790   16.8800   37.4370 N.pl3 152  ARG152     -0.0865
      9  CZ        53.7780   16.4230   38.0010 C.cat 152  ARG152      0.5346
     10  NH1       52.7620   15.9940   37.2430 N.pl3 152  ARG152      0.1354
     11  NH2       53.6890   16.4060   39.3260 N.pl3 152  ARG152      0.1354
     12  N         59.9300   14.0360   31.7480 N.3   154  TYR154     -0.1227
     13  CA        60.4750   12.7540   32.1340 C.3   154  TYR154      0.1736
     14  C         59.3640   11.7420   32.5770 C.2   154  TYR154      0.2595
     15  O         59.6580   10.5410   32.7140 O.2   154  TYR154     -0.2718
     16  CB        61.5060   12.9080   33.2370 C.3   154  TYR154      0.0548
     17  CG        61.0650   13.8810   34.2740 C.ar  154  TYR154     -0.0200
     18  CD1       60.3440   13.4620   35.3710 C.ar  154  TYR154     -0.0009
     19  CD2       61.3210   15.2720   34.1160 C.ar  154  TYR154     -0.0009
     20  CE1       59.9310   14.3450   36.3380 C.ar  154  TYR154      0.0417
     21  CE2       60.8790   16.1870   35.0820 C.ar  154  TYR154      0.0417
     22  CZ        60.1940   15.7000   36.1910 C.ar  154  TYR154      0.1957
     23  OH        59.7410   16.5260   37.1870 O.3   154  TYR154     -0.2866
     24  N         58.1340   12.2210   32.7820 N.am  155  LEU155     -0.1980
     25  CA        57.0280   11.3710   33.1690 C.3   155  LEU155      0.1596
     26  C         56.3700   10.7900   31.8990 C.2   155  LEU155      0.2287
     27  O         55.6130    9.8350   31.9690 O.2   155  LEU155     -0.2864
     28  CB        56.0050   12.1160   33.9790 C.3   155  LEU155      0.0297
     29  CG        56.4310   12.6820   35.3320 C.3   155  LEU155      0.0022
     30  CD1       55.1840   13.3220   36.0950 C.3   155  LEU155      0.0001
     31  CD2       57.0580   11.5370   36.1600 C.3   155  LEU155      0.0001
     32  N         54.9040    6.6450   35.8680 N.3   172  THR172     -0.1218
     33  CA        53.9270    7.3970   36.6080 C.3   172  THR172      0.1862
     34  C         53.5000    8.7000   35.9370 C.2   172  THR172      0.2287
     35  O         54.2180    9.2470   35.0940 O.2   172  THR172     -0.2866
     36  CB        54.3920    7.6520   38.1110 C.3   172  THR172      0.1770
     37  OG1       53.3620    8.3360   38.8600 O.3   172  THR172     -0.2211
     38  CG2       55.7610    8.4360   38.2270 C.3   172  THR172      0.0375
     39  N         51.9940   11.2330   38.0890 N.3   174  GLY174     -0.1210
     40  CA        51.6810   12.1890   39.1490 C.3   174  GLY174      0.1956
     41  C         50.4290   11.8210   39.8900 C.2   174  GLY174      0.2612
     42  O         50.1890   12.4020   40.9550 O.2   174  GLY174     -0.2717
     43  N         49.6270   10.8710   39.3670 N.am  175  HIS175     -0.1961
     44  CA        48.3380   10.4980   39.9920 C.3   175  HIS175      0.1787
     45  C         48.2590    8.9810   40.2590 C.2   175  HIS175      0.2620
     46  O         47.6060    8.5210   41.1840 O.2   175  HIS175     -0.2715
     47  CB        47.1880   10.8640   39.0670 C.3   175  HIS175      0.0785
     48  CG        47.1820   12.3060   38.6510 C.ar  175  HIS175      0.0821
     49  ND1       46.7990   13.3070   39.5120 N.ar  175  HIS175     -0.2267
     50  CD2       47.6210   12.9130   37.5310 C.ar  175  HIS175      0.1154
     51  CE1       46.9800   14.4780   38.9270 C.ar  175  HIS175      0.1986
     52  NE2       47.4260   14.2630   37.7010 N.ar  175  HIS175     -0.2212
     53  N         48.8840    8.2060   39.3880 N.am  176  ARG176     -0.1963
     54  CA        48.8700    6.7580   39.5200 C.3   176  ARG176      0.1729
     55  C         50.2740    6.2470   39.1270 C.2   176  ARG176      0.2616
     56  O         50.9890    6.8900   38.3410 O.2   176  ARG176     -0.2715
     57  CB        47.7450    6.0940   38.6690 C.3   176  ARG176      0.0348
     58  CG        47.4380    6.7450   37.3410 C.3   176  ARG176      0.0492
     59  CD        48.3680    6.4320   36.2360 C.3   176  ARG176      0.2205
     60  NE        47.5620    5.4300   35.6580 N.pl3 176  ARG176     -0.0865
     61  CZ        46.7670    5.5580   34.6310 C.cat 176  ARG176      0.5346
     62  NH1       46.7190    6.6160   33.8850 N.pl3 176  ARG176      0.1354
     63  NH2       46.0650    4.5370   34.3670 N.pl3 176  ARG176      0.1354
     64  N         50.6580    5.0820   39.6220 N.am  177  LEU177     -0.1977
     65  CA        52.0160    4.6190   39.3860 C.3   177  LEU177      0.1596
     66  C         51.9520    3.1100   39.1220 C.2   177  LEU177      0.2287
     67  O         51.0780    2.4940   39.6460 O.2   177  LEU177     -0.2864
     68  CB        52.9190    4.8800   40.6120 C.3   177  LEU177      0.0297
     69  CG        54.3740    4.3370   40.4420 C.3   177  LEU177      0.0022
     70  CD1       55.4360    5.3680   40.8870 C.3   177  LEU177      0.0001
     71  CD2       54.5750    3.0300   41.1870 C.3   177  LEU177      0.0001
     72  N         65.3830   13.7590   36.1090 N.3   240  ARG240     -0.1245
     73  CA        65.4070   12.8270   37.2260 C.3   240  ARG240      0.1563
     74  C         64.0290   12.2790   37.5000 C.2   240  ARG240      0.2260
     75  O         63.0570   13.0050   37.6330 O.2   240  ARG240     -0.2867
     76  CB        66.1050   13.3580   38.4980 C.3   240  ARG240      0.0307
     77  CG        65.2450   14.0750   39.5580 C.3   240  ARG240      0.0489
     78  CD        65.8120   13.9260   41.0430 C.3   240  ARG240      0.2205
     79  NE        65.4990   12.5940   41.6200 N.pl3 240  ARG240     -0.0865
     80  CZ        64.2830   12.1780   42.0240 C.cat 240  ARG240      0.5346
     81  NH1       63.2260   13.0040   41.9520 N.pl3 240  ARG240      0.1354
     82  NH2       64.1070   10.9320   42.5010 N.pl3 240  ARG240      0.1354
     83  N         61.0820   10.4770   39.6060 N.3   242  PRO242     -0.2102
     84  CA        60.7070   10.2200   41.0470 C.3   242  PRO242      0.1504
     85  C         60.9930    8.8220   41.5460 C.2   242  PRO242      0.2575
     86  O         61.0070    7.8390   40.7910 O.2   242  PRO242     -0.2718
     87  CB        59.1760   10.4350   41.1070 C.3   242  PRO242      0.0282
     88  CG        58.6800   10.3870   39.7100 C.3   242  PRO242      0.0208
     89  CD        59.8800   10.8220   38.7860 C.3   242  PRO242      0.0893
     90  N         61.1640    8.7080   42.8470 N.am  243  ASP243     -0.1974
     91  CA        61.4820    7.4130   43.4170 C.3   243  ASP243      0.1708
     92  C         60.1810    6.6560   43.7000 C.2   243  ASP243      0.2293
     93  O         59.3160    7.1580   44.4450 O.2   243  ASP243     -0.2864
     94  CB        62.3370    7.6500   44.6560 C.3   243  ASP243      0.1436
     95  CG        62.8010    6.3720   45.3520 C.2   243  ASP243      0.3671
     96  OD1       62.4110    5.2320   44.9790 O.co2 243  ASP243     -0.2456
     97  OD2       63.5480    6.5500   46.3520 O.co2 243  ASP243     -0.2456
     98  N         59.3770    6.0440   47.3130 N.3   246  ARG246     -0.1231
     99  CA        58.7330    7.0800   48.0750 C.3   246  ARG246      0.1694
    100  C         57.2300    7.1350   47.8220 C.2   246  ARG246      0.2591
    101  O         56.4780    7.8910   48.4960 O.2   246  ARG246     -0.2718
    102  CB        59.3630    8.4370   47.7590 C.3   246  ARG246      0.0321
    103  CG        60.8470    8.5530   48.1550 C.3   246  ARG246      0.0489
    104  CD        61.0130    9.1770   49.5460 C.3   246  ARG246      0.2205
    105  NE        60.6960   10.6250   49.5650 N.pl3 246  ARG246     -0.0865
    106  CZ        59.7520   11.1780   50.3230 C.cat 246  ARG246      0.5346
    107  NH1       59.0260   10.4270   51.1430 N.pl3 246  ARG246      0.1354
    108  NH2       59.5400   12.4930   50.2820 N.pl3 246  ARG246      0.1354
    109  N         56.7470    6.3820   46.8500 N.am  247  VAL247     -0.1980
    110  CA        55.3450    6.6250   46.4860 C.3   247  VAL247      0.1595
    111  C         54.4800    5.5360   47.0600 C.2   247  VAL247      0.2287
    112  O         53.3480    5.7520   47.4090 O.2   247  VAL247     -0.2864
    113  CB        55.1460    6.8010   44.9310 C.3   247  VAL247      0.0276
    114  CG1       53.6750    6.8200   44.5610 C.3   247  VAL247      0.0022
    115  CG2       55.8540    8.0740   44.4230 C.3   247  VAL247      0.0022
    116  N         46.6670    7.0830   49.2870 N.3   346  SER346     -0.1217
    117  CA        46.7920    6.2400   48.1000 C.3   346  SER346      0.1889
    118  C         46.5230    4.7610   48.3970 C.2   346  SER346      0.2288
    119  O         46.7680    4.3340   49.4940 O.2   346  SER346     -0.2866
    120  CB        48.1960    6.4250   47.5150 C.3   346  SER346      0.2089
    121  OG        49.2030    5.9030   48.3980 O.3   346  SER346     -0.2183
    122  N         49.9590    1.8670   42.2880 N.3   360  VAL360     -0.1231
    123  CA        49.5480    2.8040   43.3120 C.3   360  VAL360      0.1692
    124  C         48.6470    3.8820   42.6920 C.2   360  VAL360      0.2592
    125  O         48.9790    4.4600   41.6720 O.2   360  VAL360     -0.2718
    126  CB        50.7660    3.4930   44.0440 C.3   360  VAL360      0.0266
    127  CG1       50.2220    4.5670   45.0690 C.3   360  VAL360      0.0020
    128  CG2       51.6220    2.4990   44.7260 C.3   360  VAL360      0.0020
    129  N         47.5250    4.1620   43.3620 N.am  361  VAL361     -0.1966
    130  CA        46.5360    5.0970   42.8660 C.3   361  VAL361      0.1727
    131  C         46.1410    6.0030   44.0090 C.2   361  VAL361      0.2616
    132  O         45.8080    5.5200   45.1630 O.2   361  VAL361     -0.2715
    133  CB        45.2530    4.4000   42.2420 C.3   361  VAL361      0.0290
    134  CG1       44.2970    5.4280   41.6550 C.3   361  VAL361      0.0023
    135  CG2       45.6520    3.4130   41.1740 C.3   361  VAL361      0.0023
    136  N         46.1580    7.2900   43.6730 N.am  362  MET362     -0.1977
    137  CA        45.7580    8.3810   44.5520 C.3   362  MET362      0.1605
    138  C         44.2310    8.3710   44.6820 C.2   362  MET362      0.2287
    139  O         43.5180    8.3470   43.6830 O.2   362  MET362     -0.2864
    140  CB        46.2570    9.7140   43.9650 C.3   362  MET362      0.0413
    141  CG        45.8000   10.9530   44.7360 C.3   362  MET362      0.0598
    142  SD        46.5160   12.5030   44.0670 S.3   362  MET362     -0.1393
    143  CE        48.2190   12.0860   43.6550 C.3   362  MET362      0.0692
@<TRIPOS>BOND
     1    12    13    1
     2    26    27    2
     3    26    25    1
     4    13    14    1
     5    13    16    1
     6     3     4    1
     7     3     2    1
     8    14    15    2
     9    14    24   am
    10     1     2    1
    11    24    25    1
    12    25    28    1
    13     2     5    1
    14    16    17    1
    15    62    61    1
    16    28    29    1
    17    19    17   ar
    18    19    21   ar
    19    17    18   ar
    20    63    61    1
    21     5     6    1
    22    61    60    2
    23    21    22   ar
    24    35    34    2
    25    29    30    1
    26    29    31    1
    27    18    20   ar
    28     6     7    1
    29    60    59    1
    30    32    33    1
    31    34    33    1
    32     7     8    1
    33    72    73    1
    34    22    20   ar
    35    22    23    1
    36    59    58    1
    37    33    36    1
    38    73    74    1
    39    73    76    1
    40    10     9    1
    41    58    57    1
    42     8     9    2
    43    74    75    2
    44    50    52   ar
    45    50    48   ar
    46    52    51   ar
    47     9    11    1
    48    39    40    1
    49    36    38    1
    50    36    37    1
    51    56    55    2
    52    76    77    1
    53    48    47    1
    54    48    49   ar
    55    57    54    1
    56    89    83    1
    57    89    88    1
    58    51    49   ar
    59    47    44    1
    60    66    65    1
    61    66    67    2
    62    55    54    1
    63    55    64   am
    64    40    41    1
    65    43    41   am
    66    43    44    1
    67    65    64    1
    68    65    68    1
    69    53    54    1
    70    53    45   am
    71    77    78    1
    72    83    84    1
    73    88    87    1
    74    41    42    2
    75    44    45    1
    76    45    46    2
    77    69    68    1
    78    69    70    1
    79    69    71    1
    80    86    85    2
    81    78    79    1
    82    84    87    1
    83    84    85    1
    84   135   133    1
    85    85    90   am
    86    79    80    2
    87   134   133    1
    88   125   124    2
    89    81    80    1
    90    80    82    1
    91   133   130    1
    92   122   123    1
    93   124   123    1
    94   124   129   am
    95    90    91    1
    96   130   129    1
    97   130   131    1
    98   123   126    1
    99    91    92    1
   100    91    94    1
   101   143   142    1
   102   136   131   am
   103   136   137    1
   104   139   138    2
   105    92    93    2
   106   140   137    1
   107   140   141    1
   108   131   132    2
   109   126   128    1
   110   126   127    1
   111   142   141    1
   112   115   113    1
   113   137   138    1
   114   114   113    1
   115    94    95    1
   116   113   110    1
   117    96    95   ar
   118    95    97   ar
   119   110   109    1
   120   110   111    1
   121   109   100   am
   122   111   112    2
   123    98    99    1
   124   120   117    1
   125   120   121    1
   126   102    99    1
   127   102   103    1
   128   100    99    1
   129   100   101    2
   130   117   118    1
   131   117   116    1
   132   103   104    1
   133   118   119    2
   134   104   105    1
   135   105   106    2
   136   108   106    1
   137   106   107    1
