@<TRIPOS>MOLECULE
tmp/3qsdA00.pdb
 192 186 0 0 0
SMALL
GASTEIGER

@<TRIPOS>ATOM
      1  N          8.2810   17.4950   22.9840 N.3    24  GLN24      -0.1231
      2  CA         9.2950   17.2000   23.9920 C.3    24  GLN24       0.1698
      3  C          9.7850   18.4280   24.7680 C.2    24  GLN24       0.2593
      4  O         10.5190   18.2840   25.7610 O.2    24  GLN24      -0.2718
      5  CB        10.5090   16.5080   23.3650 C.3    24  GLN24       0.0381
      6  CG        11.2480   17.4330   22.3760 C.3    24  GLN24       0.0905
      7  CD        12.3100   16.6650   21.6150 C.2    24  GLN24       0.2608
      8  OE1       12.0280   15.9660   20.6370 O.2    24  GLN24      -0.2717
      9  NE2       13.5580   16.8210   22.0440 N.am   24  GLN24      -0.0878
     10  N          9.3880   19.6180   24.3430 N.am   25  SER25      -0.1938
     11  CA         9.7820   20.8710   25.0060 C.3    25  SER25       0.2055
     12  C         11.3110   21.0920   24.9810 C.2    25  SER25       0.2643
     13  O         11.9890   20.5720   24.0730 O.2    25  SER25      -0.2714
     14  CB         9.1700   20.9400   26.4150 C.3    25  SER25       0.2130
     15  OG         9.3050   22.2220   27.0160 O.3    25  SER25      -0.2179
     16  N         11.8180   21.8470   25.9420 N.am   26  ARG26      -0.1963
     17  CA        13.2280   22.2650   25.9770 C.3    26  ARG26       0.1729
     18  C         14.0870   21.2000   26.6390 C.2    26  ARG26       0.2616
     19  O         14.6770   21.4140   27.7060 O.2    26  ARG26      -0.2715
     20  CB        13.3520   23.5570   26.7750 C.3    26  ARG26       0.0348
     21  CG        12.4790   24.6940   26.1640 C.3    26  ARG26       0.0492
     22  CD        12.6200   25.9730   27.0390 C.3    26  ARG26       0.2205
     23  NE        11.8390   27.0310   26.4160 N.pl3  26  ARG26      -0.0865
     24  CZ        10.5160   27.1950   26.5500 C.cat  26  ARG26       0.5346
     25  NH1        9.8100   26.4200   27.4030 N.pl3  26  ARG26       0.1354
     26  NH2        9.8950   28.1240   25.8170 N.pl3  26  ARG26       0.1354
     27  N         14.0890   20.0320   26.0410 N.am   27  CYS27      -0.1954
     28  CA        14.7330   18.8670   26.6600 C.3    27  CYS27       0.1843
     29  C         15.1100   17.9350   25.5260 C.2    27  CYS27       0.2626
     30  O         14.3100   17.7750   24.6080 O.2    27  CYS27      -0.2714
     31  CB        13.7180   18.1890   27.5860 C.3    27  CYS27       0.0997
     32  SG        14.1570   16.5430   28.3060 S.3    27  CYS27      -0.0797
     33  N         16.3070   17.3540   25.5620 N.am   28  GLY28      -0.1954
     34  CA        16.7480   16.4300   24.5110 C.3    28  GLY28       0.1869
     35  C         16.2340   15.0150   24.7370 C.2    28  GLY28       0.2309
     36  O         16.9910   14.0430   24.7590 O.2    28  GLY28      -0.2863
     37  N         14.0690   13.2890   22.7970 N.3    30  CYS30      -0.1221
     38  CA        13.4720   12.6740   21.6160 C.3    30  CYS30       0.1808
     39  C         13.4630   11.1680   21.7550 C.2    30  CYS30       0.2601
     40  O         12.5010   10.5120   21.3510 O.2    30  CYS30      -0.2717
     41  CB        14.2480   13.1100   20.3540 C.3    30  CYS30       0.0970
     42  SG        15.9140   12.4210   20.2120 S.3    30  CYS30      -0.0800
     43  N         14.5240   10.6000   22.3010 N.am   31  TRP31      -0.1976
     44  CA        14.5870    9.1390   22.4780 C.3    31  TRP31       0.1640
     45  C         13.3790    8.5820   23.2560 C.2    31  TRP31       0.2290
     46  O         12.8480    7.5110   22.9060 O.2    31  TRP31      -0.2864
     47  CB        15.9050    8.7390   23.1770 C.3    31  TRP31       0.0576
     48  CG        15.9920    9.3070   24.6000 C.ar   31  TRP31       0.0006
     49  CD1       16.4780   10.5310   25.0040 C.ar   31  TRP31       0.0946
     50  CD2       15.5830    8.6220   25.7900 C.ar   31  TRP31       0.0152
     51  NE1       16.3940   10.6530   26.3750 N.ar   31  TRP31      -0.2442
     52  CE2       15.8410    9.4870   26.8880 C.ar   31  TRP31       0.0810
     53  CE3       15.0190    7.3420   26.0340 C.ar   31  TRP31       0.0012
     54  CZ2       15.5580    9.0980   28.1990 C.ar   31  TRP31       0.0191
     55  CZ3       14.6960    6.9540   27.3230 C.ar   31  TRP31       0.0001
     56  CH2       14.9650    7.8460   28.4040 C.ar   31  TRP31       0.0015
     57  N         19.7310   15.2580   28.0820 N.3    72  GLU72      -0.1231
     58  CA        20.9250   15.3940   27.2340 C.3    72  GLU72       0.1699
     59  C         21.0530   14.2360   26.2720 C.2    72  GLU72       0.2593
     60  O         22.1560   13.9540   25.7980 O.2    72  GLU72      -0.2718
     61  CB        22.2000   15.5470   28.0950 C.3    72  GLU72       0.0402
     62  CG        22.2230   16.8630   28.9190 C.3    72  GLU72       0.1161
     63  CD        22.1600   18.1150   28.0530 C.2    72  GLU72       0.3649
     64  OE1       22.5040   18.0830   26.8550 O.co2  72  GLU72      -0.2457
     65  OE2       21.7460   19.1680   28.5870 O.co2  72  GLU72      -0.2457
     66  N         19.9490   13.5360   25.9850 N.am   73  GLY73      -0.1942
     67  CA        19.9750   12.4950   24.9290 C.3    73  GLY73       0.2014
     68  C         20.0110   11.1060   25.5110 C.2    73  GLY73       0.2639
     69  O         20.4690   10.9250   26.6390 O.2    73  GLY73      -0.2714
     70  N         19.5720   10.1230   24.7340 N.am   74  GLY74      -0.1939
     71  CA        19.4320    8.7650   25.2720 C.3    74  GLY74       0.2014
     72  C         19.6790    7.7040   24.2050 C.2    74  GLY74       0.2639
     73  O         20.2230    7.9880   23.1090 O.2    74  GLY74      -0.2714
     74  N         19.2230    6.4960   24.5020 N.am   75  ILE75      -0.1963
     75  CA        19.6260    5.2990   23.7440 C.3    75  ILE75       0.1727
     76  C         18.3770    4.4550   23.5850 C.2    75  ILE75       0.2616
     77  O         17.6510    4.1790   24.5610 O.2    75  ILE75      -0.2715
     78  CB        20.6990    4.4740   24.5690 C.3    75  ILE75       0.0290
     79  CG1       21.8010    5.4200   25.1180 C.3    75  ILE75       0.0022
     80  CG2       21.2680    3.3460   23.7280 C.3    75  ILE75       0.0023
     81  CD1       22.7090    4.7830   26.2090 C.3    75  ILE75       0.0001
     82  N         18.1170    3.9920   22.3680 N.am   76  LEU76      -0.1977
     83  CA        16.8230    3.3880   22.0420 C.3    76  LEU76       0.1596
     84  C         16.6410    2.0040   22.6240 C.2    76  LEU76       0.2287
     85  O         15.6120    1.7030   23.2090 O.2    76  LEU76      -0.2864
     86  CB        16.6700    3.2990   20.5240 C.3    76  LEU76       0.0297
     87  CG        16.0120    4.4760   19.8070 C.3    76  LEU76       0.0022
     88  CD1       16.7510    5.7890   19.9500 C.3    76  LEU76       0.0001
     89  CD2       15.7710    4.1050   18.3610 C.3    76  LEU76       0.0001
     90  N          9.9440   24.7790   17.9710 N.3   110  HIS110     -0.1226
     91  CA        11.2240   24.1810   17.6900 C.3   110  HIS110      0.1752
     92  C         11.6980   24.6290   16.3010 C.2   110  HIS110      0.2596
     93  O         11.3190   24.0460   15.2760 O.2   110  HIS110     -0.2718
     94  CB        11.1150   22.6510   17.7310 C.3   110  HIS110      0.0759
     95  CG        10.6350   22.1280   19.0480 C.ar  110  HIS110      0.0818
     96  ND1       11.5070   21.5970   19.9720 N.ar  110  HIS110     -0.2268
     97  CD2        9.3860   22.0180   19.5880 C.ar  110  HIS110      0.1154
     98  CE1       10.8230   21.1800   21.0280 C.ar  110  HIS110      0.1986
     99  NE2        9.5330   21.4450   20.8370 N.ar  110  HIS110     -0.2212
    100  N         12.5060   25.6880   16.2380 N.am  111  HIS111     -0.1975
    101  CA        13.1750   26.0970   14.9700 C.3   111  HIS111      0.1656
    102  C         12.1830   26.4760   13.8960 C.2   111  HIS111      0.2291
    103  O         12.4800   26.3220   12.7360 O.2   111  HIS111     -0.2864
    104  CB        14.0440   24.9440   14.4420 C.3   111  HIS111      0.0771
    105  CG        14.8820   24.2960   15.5050 C.ar  111  HIS111      0.0820
    106  ND1       16.0130   24.9130   16.0210 N.ar  111  HIS111     -0.2267
    107  CD2       14.7530   23.1140   16.1790 C.ar  111  HIS111      0.1154
    108  CE1       16.5620   24.1300   16.9430 C.ar  111  HIS111      0.1986
    109  NE2       15.8180   23.0360   17.0620 N.ar  111  HIS111     -0.2212
    110  N         11.2310   27.7680   21.7070 N.3   119  CYS119     -0.1235
    111  CA        11.9880   26.9240   22.6420 C.3   119  CYS119      0.1677
    112  C         13.2810   27.5810   23.1020 C.2   119  CYS119      0.2270
    113  O         13.7350   27.3630   24.2100 O.2   119  CYS119     -0.2867
    114  CB        12.3010   25.5330   22.0720 C.3   119  CYS119      0.0956
    115  SG        10.8190   24.5480   21.7230 S.3   119  CYS119     -0.0801
    116  N         18.2120   24.2530   27.9800 N.3   123  ILE123     -0.1245
    117  CA        17.6860   22.8960   28.1440 C.3   123  ILE123      0.1561
    118  C         17.3830   22.6700   29.6150 C.2   123  ILE123      0.2260
    119  O         18.1890   23.0230   30.5100 O.2   123  ILE123     -0.2867
    120  CB        18.7950   21.8830   27.7090 C.3   123  ILE123      0.0252
    121  CG1       19.3020   22.1220   26.2640 C.3   123  ILE123      0.0019
    122  CG2       18.3020   20.4640   27.7920 C.3   123  ILE123      0.0019
    123  CD1       18.2710   21.8350   25.1660 C.3   123  ILE123      0.0001
    124  N         16.0670    5.9250   14.8400 N.3   174  GLY174     -0.1225
    125  CA        17.0470    6.9840   14.9020 C.3   174  GLY174      0.1811
    126  C         17.5410    7.3960   13.5400 C.2   174  GLY174      0.2280
    127  O         17.4920    6.6360   12.5710 O.2   174  GLY174     -0.2866
    128  N         20.7380   13.8870   12.5100 N.3   177  VAL177     -0.1245
    129  CA        20.1310   15.1900   12.3160 C.3   177  VAL177      0.1561
    130  C         21.1980   16.2120   11.9260 C.2   177  VAL177      0.2260
    131  O         22.1070   16.4760   12.7120 O.2   177  VAL177     -0.2867
    132  CB        19.2870   15.6340   13.5520 C.3   177  VAL177      0.0252
    133  CG1       20.0760   15.5510   14.9210 C.3   177  VAL177      0.0019
    134  CG2       18.6840   17.0080   13.2830 C.3   177  VAL177      0.0019
    135  N         16.5340   21.3410   10.6880 N.3   182  LEU182     -0.1245
    136  CA        15.8210   22.3440   11.5700 C.3   182  LEU182      0.1561
    137  C         15.1880   23.4830   10.7550 C.2   182  LEU182      0.2260
    138  O         14.5160   24.4070   11.2130 O.2   182  LEU182     -0.2867
    139  CB        16.7730   22.9710   12.5850 C.3   182  LEU182      0.0270
    140  CG        17.9120   22.1770   13.2430 C.3   182  LEU182      0.0019
    141  CD1       18.6740   22.9790   14.3060 C.3   182  LEU182      0.0001
    142  CD2       17.4840   20.8270   13.7740 C.3   182  LEU182      0.0001
    143  N         24.2590   17.5920   13.9240 N.3   197  LEU197     -0.1245
    144  CA        23.8970   17.9900   15.2580 C.3   197  LEU197      0.1561
    145  C         23.7130   16.7530   16.1260 C.2   197  LEU197      0.2260
    146  O         23.2300   16.8570   17.2460 O.2   197  LEU197     -0.2867
    147  CB        22.5970   18.7940   15.2020 C.3   197  LEU197      0.0270
    148  CG        22.7310   20.1250   14.4530 C.3   197  LEU197      0.0019
    149  CD1       21.3760   20.7820   14.3930 C.3   197  LEU197      0.0001
    150  CD2       23.7090   21.0490   15.1970 C.3   197  LEU197      0.0001
    151  N         22.3260   12.6540   16.8220 N.3   199  GLY199     -0.1210
    152  CA        21.2610   11.7410   16.5040 C.3   199  GLY199      0.1956
    153  C         19.9150   12.2530   16.9740 C.2   199  GLY199      0.2612
    154  O         19.7930   12.9360   17.9900 O.2   199  GLY199     -0.2717
    155  N         18.8860   11.8770   16.2250 N.am  200  HIS200     -0.1961
    156  CA        17.5130   12.2270   16.6050 C.3   200  HIS200      0.1787
    157  C         16.6660   10.9500   16.5160 C.2   200  HIS200      0.2620
    158  O         17.0210   10.0390   15.7840 O.2   200  HIS200     -0.2715
    159  CB        16.9610   13.2800   15.6470 C.3   200  HIS200      0.0785
    160  CG        15.7390   13.9820   16.1410 C.ar  200  HIS200      0.0821
    161  ND1       15.7140   14.6410   17.3570 N.ar  200  HIS200     -0.2267
    162  CD2       14.5180   14.1620   15.5740 C.ar  200  HIS200      0.1154
    163  CE1       14.4880   15.1400   17.5380 C.ar  200  HIS200      0.1986
    164  NE2       13.7470   14.8750   16.4550 N.ar  200  HIS200     -0.2212
    165  N         15.5900   10.8530   17.2510 N.am  201  ALA201     -0.1977
    166  CA        14.7570    9.6570   17.3050 C.3   201  ALA201      0.1597
    167  C         13.3420   10.0860   17.1180 C.2   201  ALA201      0.2287
    168  O         12.8810   11.0680   17.7390 O.2   201  ALA201     -0.2864
    169  CB        14.8910    8.9750   18.6650 C.3   201  ALA201      0.0319
    170  N          7.9600   17.6400   18.0280 N.3   222  TRP222     -0.1241
    171  CA         8.1960   19.0820   18.1090 C.3   222  TRP222      0.1605
    172  C          6.8790   19.8470   17.9450 C.2   222  TRP222      0.2264
    173  O          6.8700   20.9980   17.4910 O.2   222  TRP222     -0.2867
    174  CB         9.2110   19.5110   17.0390 C.3   222  TRP222      0.0550
    175  CG        10.6190   19.1020   17.3310 C.ar  222  TRP222      0.0003
    176  CD1       11.0750   18.4210   18.4310 C.ar  222  TRP222      0.0946
    177  CD2       11.7540   19.3280   16.4990 C.ar  222  TRP222      0.0152
    178  NE1       12.4370   18.2370   18.3270 N.ar  222  TRP222     -0.2442
    179  CE2       12.8690   18.7900   17.1420 C.ar  222  TRP222      0.0810
    180  CE3       11.9220   19.9350   15.2450 C.ar  222  TRP222      0.0012
    181  CZ2       14.1460   18.8240   16.5890 C.ar  222  TRP222      0.0191
    182  CZ3       13.1830   19.9940   14.6940 C.ar  222  TRP222      0.0001
    183  CH2       14.2820   19.4040   15.3290 C.ar  222  TRP222      0.0015
    184  N         18.5660    2.2280   12.3620 N.3   246  GLU246     -0.1245
    185  CA        18.4370    2.4160   13.8070 C.3   246  GLU246      0.1567
    186  C         16.9910    2.2170   14.2440 C.2   246  GLU246      0.2260
    187  O         16.4670    2.9760   15.0750 O.2   246  GLU246     -0.2867
    188  CB        18.8670    3.8380   14.1860 C.3   246  GLU246      0.0388
    189  CG        20.2770    4.2180   13.7380 C.3   246  GLU246      0.1160
    190  CD        20.6170    5.6560   13.9810 C.2   246  GLU246      0.3649
    191  OE1       20.4700    6.1080   15.1320 O.co2 246  GLU246     -0.2457
    192  OE2       20.9730    6.2960   12.9790 O.co2 246  GLU246     -0.2457
@<TRIPOS>BOND
     1   135   136    1
     2   137   138    2
     3   137   136    1
     4   136   139    1
     5   130   129    1
     6   130   131    2
     7   129   128    1
     8   129   132    1
     9   184   185    1
    10   127   126    2
    11   139   140    1
    12   103   102    2
    13   192   190   ar
    14   140   142    1
    15   140   141    1
    16   134   132    1
    17   126   125    1
    18   132   133    1
    19   189   190    1
    20   189   188    1
    21   185   188    1
    22   185   186    1
    23   102   101    1
    24   143   144    1
    25   190   191   ar
    26   186   187    2
    27   149   148    1
    28   104   101    1
    29   104   105    1
    30   148   150    1
    31   148   147    1
    32   182   180   ar
    33   182   183   ar
    34   124   125    1
    35   101   100    1
    36   147   144    1
    37   180   177   ar
    38   144   145    1
    39    93    92    2
    40   183   181   ar
    41   105   106   ar
    42   105   107   ar
    43   162   160   ar
    44   162   164   ar
    45   159   160    1
    46   159   156    1
    47   158   157    2
    48   106   108   ar
    49   145   146    2
    50   160   161   ar
    51   107   109   ar
    52   155   156    1
    53   155   153   am
    54   100    92   am
    55    92    91    1
    56   164   163   ar
    57   177   179   ar
    58   177   175   ar
    59   152   151    1
    60   152   153    1
    61   157   156    1
    62   157   165   am
    63   181   179   ar
    64   108   109   ar
    65   153   154    2
    66   174   175    1
    67   174   171    1
    68   167   166    1
    69   167   168    2
    70   179   178   ar
    71   165   166    1
    72   166   169    1
    73   175   176   ar
    74   161   163   ar
    75   173   172    2
    76    91    94    1
    77    91    90    1
    78    94    95    1
    79   172   171    1
    80   170   171    1
    81   178   176   ar
    82    89    87    1
    83    95    97   ar
    84    95    96   ar
    85    97    99   ar
    86    87    88    1
    87    87    86    1
    88    96    98   ar
    89    42    41    1
    90    41    38    1
    91    86    83    1
    92     8     7    2
    93    99    98   ar
    94    40    39    2
    95     7     9   am
    96     7     6    1
    97    38    39    1
    98    38    37    1
    99   110   111    1
   100   115   114    1
   101    39    43   am
   102    83    82    1
   103    83    84    1
   104   114   111    1
   105    43    44    1
   106    82    76   am
   107     6     5    1
   108    44    47    1
   109    44    45    1
   110    84    85    2
   111   111   112    1
   112    46    45    2
   113     1     2    1
   114   112   113    2
   115    73    72    2
   116    47    48    1
   117     5     2    1
   118    76    75    1
   119    76    77    2
   120    80    78    1
   121    75    74    1
   122    75    78    1
   123     2     3    1
   124    13    12    2
   125    72    74   am
   126    72    71    1
   127    10     3   am
   128    10    11    1
   129    34    35    1
   130    34    33    1
   131    78    79    1
   132    48    49   ar
   133    48    50   ar
   134    30    29    2
   135    70    71    1
   136    70    68   am
   137    35    36    2
   138     3     4    2
   139    67    68    1
   140    67    66    1
   141    12    11    1
   142    12    16   am
   143    49    51   ar
   144    11    14    1
   145    79    81    1
   146   123   121    1
   147    68    69    2
   148    29    33   am
   149    29    28    1
   150    50    53   ar
   151    50    52   ar
   152    60    59    2
   153    26    24    1
   154    16    17    1
   155    17    18    1
   156    17    20    1
   157    66    59   am
   158    53    55   ar
   159    27    18   am
   160    27    28    1
   161    21    20    1
   162    21    22    1
   163   121   120    1
   164    59    58    1
   165    51    52   ar
   166    14    15    1
   167    23    24    2
   168    23    22    1
   169    24    25    1
   170    18    19    2
   171    28    31    1
   172    64    63   ar
   173    52    54   ar
   174    58    57    1
   175    58    61    1
   176    55    56   ar
   177    31    32    1
   178   120   122    1
   179   120   117    1
   180   116   117    1
   181    63    65   ar
   182    63    62    1
   183    61    62    1
   184   117   118    1
   185    54    56   ar
   186   118   119    2
