@<TRIPOS>MOLECULE
tmp/3qslB00.pdb
 123 115 0 0 0
SMALL
GASTEIGER

@<TRIPOS>ATOM
      1  N         56.3970   27.6830  -39.6150 N.3    21  GLY21      -0.1225
      2  CA        55.6500   26.8430  -40.5720 C.3    21  GLY21       0.1811
      3  C         54.4840   27.6070  -41.1690 C.2    21  GLY21       0.2280
      4  O         53.3450   27.4030  -40.7610 O.2    21  GLY21      -0.2866
      5  N         51.1410   33.5900  -43.3440 N.3    25  LEU25      -0.1245
      6  CA        49.8020   33.5020  -42.7820 C.3    25  LEU25       0.1561
      7  C         49.6400   34.4860  -41.6610 C.2    25  LEU25       0.2260
      8  O         50.6100   34.8200  -40.9360 O.2    25  LEU25      -0.2867
      9  CB        49.5080   32.0970  -42.2730 C.3    25  LEU25       0.0270
     10  CG        49.4660   31.0200  -43.3470 C.3    25  LEU25       0.0019
     11  CD1       49.4480   29.6950  -42.6770 C.3    25  LEU25       0.0001
     12  CD2       48.2270   31.2110  -44.2350 C.3    25  LEU25       0.0001
     13  N         48.2240   34.1280  -38.9690 N.3    27  TYR27      -0.1227
     14  CA        48.5520   33.4850  -37.7180 C.3    27  TYR27       0.1736
     15  C         49.9300   33.9060  -37.2320 C.2    27  TYR27       0.2595
     16  O         50.1840   33.8870  -36.0370 O.2    27  TYR27      -0.2718
     17  CB        48.5520   31.9730  -37.9670 C.3    27  TYR27       0.0548
     18  CG        48.7090   31.0320  -36.8310 C.ar   27  TYR27      -0.0200
     19  CD1       47.6010   30.3880  -36.2520 C.ar   27  TYR27      -0.0009
     20  CD2       49.9610   30.6440  -36.4200 C.ar   27  TYR27      -0.0009
     21  CE1       47.7790   29.3950  -35.2530 C.ar   27  TYR27       0.0417
     22  CE2       50.1460   29.7160  -35.4340 C.ar   27  TYR27       0.0417
     23  CZ        49.0530   29.0700  -34.8630 C.ar   27  TYR27       0.1957
     24  OH        49.3030   28.1130  -33.8910 O.3    27  TYR27      -0.2866
     25  N         50.8370   34.2330  -38.1530 N.am   28  TYR28      -0.1976
     26  CA        52.1830   34.6690  -37.7950 C.3    28  TYR28       0.1639
     27  C         52.4860   36.1030  -38.1430 C.2    28  TYR28       0.2290
     28  O         53.6670   36.4930  -38.2250 O.2    28  TYR28      -0.2864
     29  CB        53.2440   33.7840  -38.4270 C.3    28  TYR28       0.0560
     30  CG        53.2020   32.3290  -37.9840 C.ar   28  TYR28      -0.0198
     31  CD1       53.5820   31.9650  -36.6960 C.ar   28  TYR28      -0.0009
     32  CD2       52.8770   31.3260  -38.8810 C.ar   28  TYR28      -0.0009
     33  CE1       53.5820   30.6400  -36.2860 C.ar   28  TYR28       0.0417
     34  CE2       52.8330   30.0030  -38.4970 C.ar   28  TYR28       0.0417
     35  CZ        53.1870   29.6490  -37.1870 C.ar   28  TYR28       0.1957
     36  OH        53.2060   28.3100  -36.8020 O.3    28  TYR28      -0.2866
     37  N         54.7380   23.7760  -42.9660 N.3    54  GLY54      -0.1210
     38  CA        53.8740   23.5590  -41.7920 C.3    54  GLY54       0.1956
     39  C         54.6760   23.4530  -40.5380 C.2    54  GLY54       0.2612
     40  O         55.9030   23.2340  -40.5880 O.2    54  GLY54      -0.2717
     41  N         54.0010   23.5900  -39.3920 N.am   55  GLY55      -0.1956
     42  CA        54.6710   23.6730  -38.1170 C.3    55  GLY55       0.1869
     43  C         55.5160   22.4730  -37.7490 C.2    55  GLY55       0.2309
     44  O         56.5300   22.6050  -37.0870 O.2    55  GLY55      -0.2863
     45  N         61.5950   27.9710  -32.4700 N.3    70  VAL70      -0.1245
     46  CA        60.4510   27.7400  -33.3600 C.3    70  VAL70       0.1561
     47  C         59.4840   28.9040  -33.1860 C.2    70  VAL70       0.2260
     48  O         59.2630   29.3010  -32.0840 O.2    70  VAL70      -0.2867
     49  CB        59.7300   26.4320  -32.9840 C.3    70  VAL70       0.0252
     50  CG1       58.5780   26.0880  -33.9790 C.3    70  VAL70       0.0019
     51  CG2       60.7570   25.3400  -32.9440 C.3    70  VAL70       0.0019
     52  N         55.7020   28.9460  -33.8550 N.3    72  GLY72      -0.1210
     53  CA        54.7860   27.8140  -34.0580 C.3    72  GLY72       0.1956
     54  C         53.7590   27.7230  -32.9590 C.2    72  GLY72       0.2611
     55  O         53.7990   28.5070  -31.9900 O.2    72  GLY72      -0.2717
     56  N         52.8440   26.7650  -33.1340 N.am   73  ALA73      -0.1979
     57  CA        51.7120   26.5060  -32.2490 C.3    73  ALA73       0.1597
     58  C         52.1910   26.0040  -30.8940 C.2    73  ALA73       0.2287
     59  O         52.9820   25.0620  -30.7840 O.2    73  ALA73      -0.2864
     60  CB        50.7980   25.4520  -32.8680 C.3    73  ALA73       0.0319
     61  N         52.5710   22.0880  -29.3760 N.3    76  HIS76      -0.1241
     62  CA        53.7500   21.2850  -29.6760 C.3    76  HIS76       0.1621
     63  C         54.6250   21.0830  -28.4170 C.2    76  HIS76       0.2264
     64  O         55.2990   20.0610  -28.2790 O.2    76  HIS76      -0.2867
     65  CB        54.5770   21.9360  -30.8130 C.3    76  HIS76       0.0745
     66  CG        53.9670   21.8160  -32.1820 C.ar   76  HIS76       0.0817
     67  ND1       53.8150   20.6040  -32.8320 N.ar   76  HIS76      -0.2268
     68  CD2       53.5030   22.7640  -33.0310 C.ar   76  HIS76       0.1154
     69  CE1       53.2610   20.8160  -34.0140 C.ar   76  HIS76       0.1986
     70  NE2       53.0750   22.1250  -34.1660 N.ar   76  HIS76      -0.2212
     71  N         42.3020   28.9590  -36.8880 N.3    98  ILE98      -0.1245
     72  CA        42.3380   27.8930  -37.8330 C.3    98  ILE98       0.1561
     73  C         40.9140   27.6000  -38.2720 C.2    98  ILE98       0.2260
     74  O         40.0230   27.4270  -37.4530 O.2    98  ILE98      -0.2867
     75  CB        42.9630   26.5940  -37.2370 C.3    98  ILE98       0.0252
     76  CG1       44.4890   26.7290  -37.1430 C.3    98  ILE98       0.0019
     77  CG2       42.5820   25.3920  -38.0960 C.3    98  ILE98       0.0019
     78  CD1       45.2270   25.5600  -36.3340 C.3    98  ILE98       0.0001
     79  N         48.4960   22.0780  -43.5690 N.3   124  THR124     -0.1218
     80  CA        49.7340   22.7460  -43.8970 C.3   124  THR124      0.1862
     81  C         50.8470   21.6660  -44.0720 C.2   124  THR124      0.2287
     82  O         51.5120   21.6020  -45.1060 O.2   124  THR124     -0.2866
     83  CB        50.1410   23.7190  -42.8140 C.3   124  THR124      0.1770
     84  OG1       50.0690   23.0960  -41.5280 O.3   124  THR124     -0.2211
     85  CG2       49.2280   24.9960  -42.8140 C.3   124  THR124      0.0375
     86  N         51.0570   18.9910  -38.0710 N.3   128  SER128     -0.1202
     87  CA        51.0350   20.4040  -37.6540 C.3   128  SER128      0.2020
     88  C         49.7350   20.7030  -36.9160 C.2   128  SER128      0.2619
     89  O         48.8420   19.8580  -36.8540 O.2   128  SER128     -0.2717
     90  CB        51.1930   21.3360  -38.8390 C.3   128  SER128      0.2103
     91  OG        52.3900   21.0770  -39.5000 O.3   128  SER128     -0.2182
     92  N         49.6470   21.8990  -36.3250 N.am  129  SER129     -0.1937
     93  CA        48.4270   22.3400  -35.6330 C.3   129  SER129      0.2055
     94  C         47.1960   22.3730  -36.5480 C.2   129  SER129      0.2643
     95  O         46.1020   22.0830  -36.0830 O.2   129  SER129     -0.2714
     96  CB        48.6070   23.7160  -35.0180 C.3   129  SER129      0.2130
     97  OG        47.6260   24.0020  -34.0230 O.3   129  SER129     -0.2179
     98  N         47.3380   22.6930  -37.8330 N.am  130  THR130     -0.1950
     99  CA        46.1510   22.6120  -38.6910 C.3   130  THR130      0.1897
    100  C         45.6430   21.1400  -38.7530 C.2   130  THR130      0.2313
    101  O         44.4430   20.8760  -38.8130 O.2   130  THR130     -0.2863
    102  CB        46.4010   23.0950  -40.1120 C.3   130  THR130      0.1794
    103  OG1       47.6140   22.5090  -40.6130 O.3   130  THR130     -0.2208
    104  CG2       46.4720   24.5700  -40.1420 C.3   130  THR130      0.0378
    105  N         44.7790   28.7290  -42.2240 N.3   173  THR173     -0.1218
    106  CA        44.4260   30.0140  -41.5930 C.3   173  THR173      0.1862
    107  C         44.1980   31.0630  -42.6650 C.2   173  THR173      0.2287
    108  O         44.3270   30.7860  -43.8620 O.2   173  THR173     -0.2866
    109  CB        45.5280   30.5010  -40.6210 C.3   173  THR173      0.1770
    110  OG1       46.5820   31.1680  -41.3500 O.3   173  THR173     -0.2211
    111  CG2       46.0960   29.3360  -39.7990 C.3   173  THR173      0.0375
    112  N         58.8150   29.4450  -29.1460 N.3   210  TYR210     -0.1241
    113  CA        59.1490   28.4210  -28.1920 C.3   210  TYR210      0.1605
    114  C         60.4810   27.7400  -28.6170 C.2   210  TYR210      0.2264
    115  O         60.8640   27.8140  -29.7930 O.2   210  TYR210     -0.2867
    116  CB        57.9630   27.4290  -28.0110 C.3   210  TYR210      0.0534
    117  CG        57.6820   26.4760  -29.1460 C.ar  210  TYR210     -0.0201
    118  CD1       58.2840   25.2320  -29.1900 C.ar  210  TYR210     -0.0009
    119  CD2       56.7450   26.7800  -30.1380 C.ar  210  TYR210     -0.0009
    120  CE1       58.0060   24.3330  -30.2150 C.ar  210  TYR210      0.0417
    121  CE2       56.4750   25.8740  -31.1840 C.ar  210  TYR210      0.0417
    122  CZ        57.1210   24.6540  -31.2050 C.ar  210  TYR210      0.1957
    123  OH        56.9010   23.7570  -32.2210 O.3   210  TYR210     -0.2866
@<TRIPOS>BOND
     1    82    81    2
     2    12    10    1
     3    81    80    1
     4    80    79    1
     5    80    83    1
     6   108   107    2
     7    10    11    1
     8    10     9    1
     9     5     6    1
    10    37    38    1
    11    85    83    1
    12    83    84    1
    13     6     9    1
    14     6     7    1
    15   107   106    1
    16   105   106    1
    17    38    39    1
    18     7     8    2
    19   106   109    1
    20   110   109    1
    21     3     4    2
    22     3     2    1
    23   109   111    1
    24   103   102    1
    25    40    39    2
    26     2     1    1
    27    39    41   am
    28   104   102    1
    29   102    99    1
    30    91    90    1
    31    41    42    1
    32    13    14    1
    33    32    34   ar
    34    32    30   ar
    35    90    87    1
    36   101   100    2
    37   100    99    1
    38    99    98    1
    39    34    35   ar
    40    29    30    1
    41    29    26    1
    42    73    72    1
    43    73    74    2
    44    28    27    2
    45    25    26    1
    46    25    15   am
    47    27    26    1
    48    42    43    1
    49    77    75    1
    50    86    87    1
    51    30    31   ar
    52    17    14    1
    53    17    18    1
    54    72    75    1
    55    72    71    1
    56    98    94   am
    57    43    44    2
    58    14    15    1
    59    87    88    1
    60    75    76    1
    61    15    16    2
    62    35    36    1
    63    35    33   ar
    64    76    78    1
    65    88    89    2
    66    88    92   am
    67    18    20   ar
    68    18    19   ar
    69    31    33   ar
    70    94    95    2
    71    94    93    1
    72    20    22   ar
    73    92    93    1
    74    19    21   ar
    75    93    96    1
    76    22    23   ar
    77    21    23   ar
    78    96    97    1
    79    23    24    1
    80    70    69   ar
    81    70    68   ar
    82    53    52    1
    83    53    54    1
    84    69    67   ar
    85    50    49    1
    86    46    47    1
    87    46    49    1
    88    46    45    1
    89    47    48    2
    90    56    54   am
    91    56    57    1
    92    68    66   ar
    93    49    51    1
    94    54    55    2
    95    60    57    1
    96    67    66   ar
    97    57    58    1
    98   123   122    1
    99    66    65    1
   100   122   121   ar
   101   122   120   ar
   102   121   119   ar
   103    58    59    2
   104    65    62    1
   105   120   118   ar
   106   119   117   ar
   107   115   114    2
   108    62    61    1
   109    62    63    1
   110   118   117   ar
   111   112   113    1
   112   117   116    1
   113   114   113    1
   114    63    64    2
   115   113   116    1
