@<TRIPOS>MOLECULE
tmp/3qspB00.pdb
 138 132 0 0 0
SMALL
GASTEIGER

@<TRIPOS>ATOM
      1  N          5.6460   52.5150   18.8020 N.3    56  ILE56      -0.1245
      2  CA         7.1080   52.2590   18.9380 C.3    56  ILE56       0.1561
      3  C          7.8380   53.3510   18.1240 C.2    56  ILE56       0.2260
      4  O          7.6310   53.4470   16.8930 O.2    56  ILE56      -0.2867
      5  CB         7.5430   50.8220   18.4440 C.3    56  ILE56       0.0252
      6  CG1        6.8670   49.7300   19.2590 C.3    56  ILE56       0.0019
      7  CG2        9.0070   50.5950   18.6110 C.3    56  ILE56       0.0019
      8  CD1        6.9080   48.3660   18.5620 C.3    56  ILE56       0.0001
      9  N         10.2660   50.9630   10.8330 N.3    60  TRP60      -0.1241
     10  CA        10.4490   49.6100   10.2930 C.3    60  TRP60       0.1605
     11  C         10.4150   49.7000    8.7570 C.2    60  TRP60       0.2264
     12  O          9.5760   50.4330    8.1770 O.2    60  TRP60      -0.2867
     13  CB         9.3310   48.6890   10.7630 C.3    60  TRP60       0.0550
     14  CG         9.5860   47.7220   11.9030 C.ar   60  TRP60       0.0003
     15  CD1        9.5600   46.3490   11.8280 C.ar   60  TRP60       0.0946
     16  CD2        9.8770   48.0340   13.2900 C.ar   60  TRP60       0.0152
     17  NE1        9.8080   45.7950   13.0640 N.ar   60  TRP60      -0.2442
     18  CE2       10.0090   46.8020   13.9770 C.ar   60  TRP60       0.0810
     19  CE3       10.0530   49.2240   13.9970 C.ar   60  TRP60       0.0012
     20  CZ2       10.2920   46.7280   15.3530 C.ar   60  TRP60       0.0191
     21  CZ3       10.3260   49.1610   15.3490 C.ar   60  TRP60       0.0001
     22  CH2       10.4470   47.9070   16.0250 C.ar   60  TRP60       0.0015
     23  N         17.5840   48.6760   21.1400 N.3   114  HIS114     -0.1241
     24  CA        17.8890   47.4820   21.9280 C.3   114  HIS114      0.1621
     25  C         19.3710   47.1330   22.1000 C.2   114  HIS114      0.2264
     26  O         19.6890   46.0300   22.5190 O.2   114  HIS114     -0.2867
     27  CB        17.1290   46.2660   21.3560 C.3   114  HIS114      0.0745
     28  CG        15.6450   46.4040   21.4300 C.ar  114  HIS114      0.0817
     29  ND1       14.8960   45.8510   22.4470 N.ar  114  HIS114     -0.2268
     30  CD2       14.7700   47.0610   20.6310 C.ar  114  HIS114      0.1154
     31  CE1       13.6210   46.1460   22.2640 C.ar  114  HIS114      0.1986
     32  NE2       13.5160   46.8790   21.1680 N.ar  114  HIS114     -0.2212
     33  N         17.7830   50.2900   15.4110 N.3   127  TRP127     -0.1227
     34  CA        16.9150   50.2030   16.5870 C.3   127  TRP127      0.1737
     35  C         17.0650   48.7750   17.1400 C.2   127  TRP127      0.2595
     36  O         17.4410   48.5790   18.2880 O.2   127  TRP127     -0.2718
     37  CB        15.4580   50.5620   16.2090 C.3   127  TRP127      0.0564
     38  CG        14.4100   50.2710   17.2790 C.ar  127  TRP127      0.0003
     39  CD1       13.6490   49.1500   17.3790 C.ar  127  TRP127      0.0946
     40  CD2       14.0190   51.1200   18.3850 C.ar  127  TRP127      0.0152
     41  NE1       12.8090   49.2350   18.4640 N.ar  127  TRP127     -0.2442
     42  CE2       13.0120   50.4340   19.0990 C.ar  127  TRP127      0.0810
     43  CE3       14.4160   52.3910   18.8300 C.ar  127  TRP127      0.0012
     44  CZ2       12.4010   50.9690   20.2560 C.ar  127  TRP127      0.0191
     45  CZ3       13.8020   52.9330   19.9780 C.ar  127  TRP127      0.0001
     46  CH2       12.8040   52.2200   20.6710 C.ar  127  TRP127      0.0015
     47  N         16.7570   47.7750   16.3190 N.am  128  GLU128     -0.1979
     48  CA        17.1800   46.4000   16.6010 C.3   128  GLU128      0.1602
     49  C         17.5970   45.7910   15.2700 C.2   128  GLU128      0.2287
     50  O         17.1180   46.2170   14.1890 O.2   128  GLU128     -0.2864
     51  CB        16.0700   45.5550   17.2730 C.3   128  GLU128      0.0415
     52  CG        14.8070   45.3580   16.4110 C.3   128  GLU128      0.1163
     53  CD        13.6700   44.6400   17.1380 C.2   128  GLU128      0.3649
     54  OE1       13.8260   44.3020   18.3340 O.co2 128  GLU128     -0.2457
     55  OE2       12.6160   44.4100   16.5090 O.co2 128  GLU128     -0.2457
     56  N         17.0850   42.6020   14.0390 N.3   130  LYS130     -0.1245
     57  CA        16.4160   41.3430   13.7150 C.3   130  LYS130      0.1561
     58  C         16.2440   41.2290   12.1920 C.2   130  LYS130      0.2260
     59  O         15.5050   42.0360   11.5770 O.2   130  LYS130     -0.2867
     60  CB        15.0410   41.2740   14.3930 C.3   130  LYS130      0.0271
     61  CG        15.1100   41.1050   15.9030 C.3   130  LYS130      0.0035
     62  CD        13.7180   40.9460   16.5070 C.3   130  LYS130      0.0206
     63  CE        13.7850   40.5580   17.9770 C.3   130  LYS130      0.1093
     64  NZ        12.3990   40.5930   18.6150 N.3   130  LYS130     -0.1314
     65  N         20.0960   37.8530   21.9800 N.3   186  ARG186     -0.1245
     66  CA        19.5890   38.8840   22.8730 C.3   186  ARG186      0.1563
     67  C         19.5540   38.2940   24.2770 C.2   186  ARG186      0.2260
     68  O         19.1890   37.1230   24.4420 O.2   186  ARG186     -0.2867
     69  CB        18.1850   39.3610   22.4620 C.3   186  ARG186      0.0307
     70  CG        17.5190   40.2560   23.5240 C.3   186  ARG186      0.0489
     71  CD        16.2420   40.9270   23.0520 C.3   186  ARG186      0.2205
     72  NE        16.4770   41.7790   21.8780 N.pl3 186  ARG186     -0.0865
     73  CZ        15.5160   42.3390   21.1480 C.cat 186  ARG186      0.5346
     74  NH1       14.2170   42.1570   21.4620 N.pl3 186  ARG186      0.1354
     75  NH2       15.8530   43.0950   20.1070 N.pl3 186  ARG186      0.1354
     76  N         12.7510   35.3810   27.0050 N.3   190  ARG190     -0.1245
     77  CA        11.7710   35.0530   25.9600 C.3   190  ARG190      0.1563
     78  C         12.4870   34.4780   24.7420 C.2   190  ARG190      0.2260
     79  O         13.2410   35.1950   24.0750 O.2   190  ARG190     -0.2867
     80  CB        10.8530   36.2470   25.5650 C.3   190  ARG190      0.0307
     81  CG         9.5160   35.7420   24.9230 C.3   190  ARG190      0.0489
     82  CD         8.3930   36.7620   24.7750 C.3   190  ARG190      0.2205
     83  NE         8.6320   37.4410   23.5390 N.pl3 190  ARG190     -0.0865
     84  CZ         8.0560   37.1940   22.3680 C.cat 190  ARG190      0.5346
     85  NH1        7.0840   36.3020   22.2180 N.pl3 190  ARG190      0.1354
     86  NH2        8.4820   37.8890   21.3350 N.pl3 190  ARG190      0.1354
     87  N         12.5620   35.9270   21.0080 N.3   193  ASP193     -0.1239
     88  CA        13.3380   37.1450   20.7230 C.3   193  ASP193      0.1674
     89  C         14.8400   36.9180   20.5070 C.2   193  ASP193      0.2266
     90  O         15.6090   37.8810   20.4700 O.2   193  ASP193     -0.2867
     91  CB        13.1330   38.1710   21.8270 C.3   193  ASP193      0.1410
     92  CG        11.7350   38.7530   21.8410 C.2   193  ASP193      0.3668
     93  OD1       11.2340   39.2120   20.7680 O.co2 193  ASP193     -0.2456
     94  OD2       11.1530   38.7730   22.9500 O.co2 193  ASP193     -0.2456
     95  N          6.4050   39.0890   12.3060 N.3   217  SER217     -0.1202
     96  CA         5.9410   39.2940   13.6870 C.3   217  SER217      0.2020
     97  C          7.0960   39.7440   14.6040 C.2   217  SER217      0.2618
     98  O          6.8610   40.1530   15.7390 O.2   217  SER217     -0.2717
     99  CB         5.3490   38.0040   14.2450 C.3   217  SER217      0.2103
    100  OG         6.3690   37.0180   14.3480 O.3   217  SER217     -0.2182
    101  N          8.3340   39.6770   14.1040 N.am  218  ASP218     -0.1973
    102  CA         9.5410   39.9590   14.8990 C.3   218  ASP218      0.1709
    103  C          9.8420   38.8450   15.9000 C.2   218  ASP218      0.2293
    104  O         10.6820   39.0200   16.7770 O.2   218  ASP218     -0.2864
    105  CB         9.4440   41.3120   15.6640 C.3   218  ASP218      0.1436
    106  CG         9.3620   42.5350   14.7580 C.2   218  ASP218      0.3671
    107  OD1       10.0080   42.5920   13.6870 O.co2 218  ASP218     -0.2456
    108  OD2        8.6590   43.4890   15.1510 O.co2 218  ASP218     -0.2456
    109  N          3.5250   36.0980   18.9240 N.3   350  HIS350     -0.1241
    110  CA         3.9450   37.4240   19.3640 C.3   350  HIS350      0.1621
    111  C          2.9700   38.0670   20.3280 C.2   350  HIS350      0.2264
    112  O          3.3380   39.0290   21.0280 O.2   350  HIS350     -0.2867
    113  CB         4.1240   38.3530   18.1420 C.3   350  HIS350      0.0745
    114  CG         4.9350   39.5740   18.4290 C.ar  350  HIS350      0.0817
    115  ND1        6.2780   39.5120   18.7580 N.ar  350  HIS350     -0.2268
    116  CD2        4.5850   40.8820   18.4920 C.ar  350  HIS350      0.1154
    117  CE1        6.7250   40.7410   18.9690 C.ar  350  HIS350      0.1986
    118  NE2        5.7210   41.5880   18.8060 N.ar  350  HIS350     -0.2212
    119  N         -3.1790   46.0490   17.2680 N.3   393  GLU393     -0.1245
    120  CA        -2.3780   44.9180   16.8370 C.3   393  GLU393      0.1567
    121  C         -3.1950   43.6340   17.0450 C.2   393  GLU393      0.2260
    122  O         -3.3110   42.8240   16.1310 O.2   393  GLU393     -0.2867
    123  CB        -1.0870   44.8840   17.6330 C.3   393  GLU393      0.0388
    124  CG        -0.2150   43.6440   17.3940 C.3   393  GLU393      0.1160
    125  CD         0.9220   43.5070   18.4310 C.2   393  GLU393      0.3649
    126  OE1        0.6370   43.5550   19.6370 O.co2 393  GLU393     -0.2457
    127  OE2        2.0830   43.3430   18.0210 O.co2 393  GLU393     -0.2457
    128  N         -1.4190   47.2830   21.5930 N.3   405  ARG405     -0.1245
    129  CA        -1.0090   48.3920   20.7140 C.3   405  ARG405      0.1563
    130  C         -2.1430   49.3890   20.4430 C.2   405  ARG405      0.2260
    131  O         -2.9040   49.2570   19.4590 O.2   405  ARG405     -0.2867
    132  CB        -0.3750   47.9030   19.3950 C.3   405  ARG405      0.0307
    133  CG         0.9460   47.2270   19.6130 C.3   405  ARG405      0.0489
    134  CD         1.8340   47.1620   18.3520 C.3   405  ARG405      0.2205
    135  NE         2.4760   48.4410   18.0310 N.pl3 405  ARG405     -0.0865
    136  CZ         3.3970   48.5970   17.0750 C.cat 405  ARG405      0.5346
    137  NH1        3.8300   47.5640   16.3400 N.pl3 405  ARG405      0.1354
    138  NH2        3.9010   49.7900   16.8560 N.pl3 405  ARG405      0.1354
@<TRIPOS>BOND
     1    12    11    2
     2    11    10    1
     3    10    13    1
     4    10     9    1
     5    13    14    1
     6    59    58    2
     7    15    14   ar
     8    15    17   ar
     9    14    16   ar
    10    58    57    1
    11    95    96    1
    12    17    18   ar
    13    16    18   ar
    14    16    19   ar
    15    96    99    1
    16    96    97    1
    17   107   106   ar
    18    57    56    1
    19    57    60    1
    20    18    20   ar
    21    19    21   ar
    22   101    97   am
    23   101   102    1
    24    50    49    2
    25    99   100    1
    26    60    61    1
    27    97    98    2
    28   106   108   ar
    29   106   105    1
    30   102   105    1
    31   102   103    1
    32    49    48    1
    33    21    22   ar
    34    20    22   ar
    35    33    34    1
    36   103   104    2
    37    61    62    1
    38   122   121    2
    39    37    34    1
    40    37    38    1
    41    47    48    1
    42    47    35   am
    43   137   136    1
    44    52    53    1
    45    52    51    1
    46    62    63    1
    47    55    53   ar
    48    34    35    1
    49    48    51    1
    50   120   121    1
    51   120   119    1
    52   120   123    1
    53   138   136    1
    54     4     3    2
    55   136   135    2
    56    53    54   ar
    57    35    36    2
    58    38    39   ar
    59    38    40   ar
    60    39    41   ar
    61   124   123    1
    62   124   125    1
    63    63    64    1
    64   127   125   ar
    65   135   134    1
    66     3     2    1
    67   113   114    1
    68   113   110    1
    69   134   133    1
    70    40    43   ar
    71    40    42   ar
    72   114   116   ar
    73   114   115   ar
    74   125   126   ar
    75     5     7    1
    76     5     2    1
    77     5     6    1
    78    41    42   ar
    79   116   118   ar
    80     8     6    1
    81   115   117   ar
    82     1     2    1
    83   118   117   ar
    84    43    45   ar
    85   109   110    1
    86    42    44   ar
    87   110   111    1
    88   132   133    1
    89   132   129    1
    90   131   130    2
    91    45    46   ar
    92    75    73    1
    93    44    46   ar
    94   111   112    2
    95   130   129    1
    96    90    89    2
    97    89    88    1
    98    30    32   ar
    99    30    28   ar
   100   129   128    1
   101    88    87    1
   102    88    91    1
   103    93    92   ar
   104    23    24    1
   105    73    74    1
   106    73    72    2
   107    32    31   ar
   108    86    84    1
   109    27    28    1
   110    27    24    1
   111    28    29   ar
   112    91    92    1
   113    92    94   ar
   114    72    71    1
   115    24    25    1
   116    65    66    1
   117    25    26    2
   118    85    84    1
   119    31    29   ar
   120    84    83    2
   121    69    66    1
   122    69    70    1
   123    66    67    1
   124    71    70    1
   125    83    82    1
   126    79    78    2
   127    67    68    2
   128    78    77    1
   129    82    81    1
   130    81    80    1
   131    80    77    1
   132    77    76    1
