@<TRIPOS>MOLECULE
tmp/3qsyA00.pdb
 139 134 0 0 0
SMALL
GASTEIGER

@<TRIPOS>ATOM
      1  N         26.0820   -6.9040   21.7940 N.3    15  VAL15      -0.1231
      2  CA        26.7150   -6.2340   22.9410 C.3    15  VAL15       0.1692
      3  C         26.1200   -6.7680   24.2590 C.2    15  VAL15       0.2593
      4  O         25.2080   -7.5940   24.2380 O.2    15  VAL15      -0.2718
      5  CB        26.5380   -4.6820   22.8740 C.3    15  VAL15       0.0266
      6  CG1       27.5760   -3.9590   23.7280 C.3    15  VAL15       0.0020
      7  CG2       26.6260   -4.1810   21.4400 C.3    15  VAL15       0.0020
      8  N         26.6370   -6.2980   25.3970 N.am   16  GLY16      -0.1942
      9  CA        26.1120   -6.6510   26.7110 C.3    16  GLY16       0.2014
     10  C         27.0340   -6.2600   27.8650 C.2    16  GLY16       0.2639
     11  O         27.8740   -5.3610   27.7260 O.2    16  GLY16      -0.2714
     12  N         26.8630   -6.9200   29.0130 N.am   17  HIS17      -0.1959
     13  CA        27.8130   -6.7930   30.1230 C.3    17  HIS17       0.1787
     14  C         29.1420   -7.4260   29.7090 C.2    17  HIS17       0.2620
     15  O         29.1720   -8.3960   28.9450 O.2    17  HIS17      -0.2715
     16  CB        27.2380   -7.4280   31.4010 C.3    17  HIS17       0.0785
     17  CG        28.2690   -7.9010   32.3850 C.ar   17  HIS17       0.0821
     18  ND1       28.5450   -7.2220   33.5570 N.ar   17  HIS17      -0.2267
     19  CD2       29.0570   -9.0040   32.4000 C.ar   17  HIS17       0.1154
     20  CE1       29.4680   -7.8780   34.2340 C.ar   17  HIS17       0.1986
     21  NE2       29.7990   -8.9660   33.5550 N.ar   17  HIS17      -0.2212
     22  N         30.2360   -6.8840   30.2300 N.am   18  VAL18      -0.1963
     23  CA        31.5740   -7.2410   29.7640 C.3    18  VAL18       0.1727
     24  C         31.7980   -8.7550   29.6960 C.2    18  VAL18       0.2616
     25  O         31.4260   -9.4950   30.6120 O.2    18  VAL18      -0.2715
     26  CB        32.6530   -6.5820   30.6460 C.3    18  VAL18       0.0290
     27  CG1       32.2310   -6.6180   32.1110 C.3    18  VAL18       0.0023
     28  CG2       34.0060   -7.2520   30.4460 C.3    18  VAL18       0.0023
     29  N         32.3690   -9.1990   28.5770 N.am   19  ASP19      -0.1971
     30  CA        32.6350  -10.6130   28.3130 C.3    19  ASP19       0.1709
     31  C         31.4030  -11.5010   28.4160 C.2    19  ASP19       0.2293
     32  O         31.4420  -12.5700   29.0260 O.2    19  ASP19      -0.2864
     33  CB        33.7600  -11.1480   29.1950 C.3    19  ASP19       0.1436
     34  CG        35.1220  -10.7360   28.7020 C.2    19  ASP19       0.3671
     35  OD1       35.2110   -9.7050   28.0030 O.co2  19  ASP19      -0.2456
     36  OD2       36.0990  -11.4480   29.0110 O.co2  19  ASP19      -0.2456
     37  N         30.1730  -12.8910   25.8090 N.3    21  GLY21      -0.1210
     38  CA        30.2160  -13.6150   24.5420 C.3    21  GLY21       0.1956
     39  C         29.8170  -12.8560   23.2860 C.2    21  GLY21       0.2612
     40  O         28.9950  -13.3090   22.4910 O.2    21  GLY21      -0.2717
     41  N         30.4160  -11.6860   23.1130 N.am   22  LYS22      -0.1965
     42  CA        30.1490  -10.8210   21.9680 C.3    22  LYS22       0.1728
     43  C         31.1020  -11.0690   20.7970 C.2    22  LYS22       0.2617
     44  O         30.6680  -11.3950   19.6910 O.2    22  LYS22      -0.2715
     45  CB        30.2080   -9.3540   22.3900 C.3    22  LYS22       0.0311
     46  CG        28.9820   -8.8450   23.1350 C.3    22  LYS22       0.0038
     47  CD        28.7750   -9.5070   24.4850 C.3    22  LYS22       0.0206
     48  CE        27.6410  -10.5150   24.4220 C.3    22  LYS22       0.1093
     49  NZ        26.3110   -9.8650   24.3640 N.3    22  LYS22      -0.1314
     50  N         32.3930  -10.8580   21.0370 N.am   23  THR23      -0.1937
     51  CA        33.4130  -11.0070   20.0080 C.3    23  THR23       0.2028
     52  C         33.3050  -12.3720   19.3520 C.2    23  THR23       0.2642
     53  O         33.2440  -12.4770   18.1250 O.2    23  THR23      -0.2714
     54  CB        34.8360  -10.8470   20.5790 C.3    23  THR23       0.1808
     55  OG1       34.8630   -9.7620   21.5130 O.3    23  THR23      -0.2208
     56  CG2       35.8120  -10.5780   19.4630 C.3    23  THR23       0.0379
     57  N         33.2540  -13.4150   20.1740 N.am   24  THR24      -0.1950
     58  CA        33.1020  -14.7700   19.6530 C.3    24  THR24       0.1897
     59  C         31.8400  -14.9030   18.8160 C.2    24  THR24       0.2313
     60  O         31.7550  -15.7730   17.9560 O.2    24  THR24      -0.2863
     61  CB        33.0750  -15.8420   20.7720 C.3    24  THR24       0.1794
     62  OG1       32.6610  -17.1100   20.2300 O.3    24  THR24      -0.2208
     63  CG2       32.1130  -15.4270   21.8730 C.3    24  THR24       0.0378
     64  N         39.4450  -15.5840   16.8170 N.3    39  GLU39      -0.1231
     65  CA        38.4780  -14.4860   16.8830 C.3    39  GLU39       0.1699
     66  C         39.0900  -13.0970   16.6780 C.2    39  GLU39       0.2592
     67  O         40.2880  -12.9660   16.4310 O.2    39  GLU39      -0.2718
     68  CB        37.7020  -14.5210   18.2060 C.3    39  GLU39       0.0402
     69  CG        38.5150  -14.2450   19.4550 C.3    39  GLU39       0.1161
     70  CD        37.6460  -13.7820   20.6130 C.2    39  GLU39       0.3649
     71  OE1       38.1840  -13.5450   21.7150 O.co2  39  GLU39      -0.2457
     72  OE2       36.4200  -13.6500   20.4150 O.co2  39  GLU39      -0.2457
     73  N         38.2380  -12.0740   16.7620 N.am   40  GLU40      -0.1979
     74  CA        38.6280  -10.6540   16.7650 C.3    40  GLU40       0.1602
     75  C         39.6510  -10.2240   15.7080 C.2    40  GLU40       0.2287
     76  O         39.5640  -10.6180   14.5460 O.2    40  GLU40      -0.2864
     77  CB        39.0610  -10.1860   18.1690 C.3    40  GLU40       0.0415
     78  CG        40.1830  -10.9840   18.8330 C.3    40  GLU40       0.1163
     79  CD        39.8720  -11.3380   20.2730 C.2    40  GLU40       0.3649
     80  OE1       38.8040  -10.9260   20.7720 O.co2  40  GLU40      -0.2457
     81  OE2       40.6870  -12.0430   20.9040 O.co2  40  GLU40      -0.2457
     82  N         29.5780   -4.7500   16.0610 N.3    93  ASP93      -0.1225
     83  CA        29.6990   -4.9560   17.4970 C.3    93  ASP93       0.1805
     84  C         30.2510   -3.6950   18.1340 C.2    93  ASP93       0.2598
     85  O         30.8600   -2.8610   17.4650 O.2    93  ASP93      -0.2718
     86  CB        30.6630   -6.1100   17.7870 C.3    93  ASP93       0.1424
     87  CG        30.4130   -6.7580   19.1310 C.2    93  ASP93       0.3668
     88  OD1       30.7040   -6.1250   20.1660 O.co2  93  ASP93      -0.2456
     89  OD2       29.9290   -7.9060   19.1570 O.co2  93  ASP93      -0.2456
     90  N         30.0390   -3.5660   19.4370 N.am   94  ALA94      -0.1966
     91  CA        30.6130   -2.4710   20.1970 C.3    94  ALA94       0.1713
     92  C         30.9810   -2.9690   21.5800 C.2    94  ALA94       0.2458
     93  O         30.2610   -3.7780   22.1580 O.2    94  ALA94      -0.2730
     94  CB        29.6280   -1.3260   20.2960 C.3    94  ALA94       0.0333
     95  N         32.1060   -2.4830   22.1170 N.am   95  PRO95      -0.2716
     96  CA        32.5440   -2.8080   23.4770 C.3    95  PRO95       0.1536
     97  C         31.6840   -2.0880   24.5080 C.2    95  PRO95       0.2599
     98  O         30.9120   -1.2090   24.1460 O.2    95  PRO95      -0.2715
     99  CB        33.9810   -2.2680   23.5220 C.3    95  PRO95       0.0310
    100  CG        34.3780   -2.0670   22.0940 C.3    95  PRO95       0.0237
    101  CD        33.1170   -1.7010   21.3890 C.3    95  PRO95       0.0939
    102  N         31.7830   -2.4910   25.7680 N.am   96  GLY96      -0.1955
    103  CA        31.2700   -1.6780   26.8520 C.3    96  GLY96       0.1869
    104  C         31.8140   -2.1460   28.1830 C.2    96  GLY96       0.2309
    105  O         32.0790   -3.3280   28.3860 O.2    96  GLY96      -0.2863
    106  N         26.8090  -18.1070   33.3150 N.3   121  ASN121     -0.1225
    107  CA        27.7730  -18.0240   34.4090 C.3   121  ASN121      0.1785
    108  C         27.5970  -16.8270   35.3720 C.2   121  ASN121      0.2597
    109  O         27.5830  -16.9920   36.5860 O.2   121  ASN121     -0.2718
    110  CB        29.1750  -17.9540   33.8130 C.3   121  ASN121      0.1169
    111  CG        29.3940  -16.6950   32.9860 C.2   121  ASN121      0.2627
    112  OD1       28.4430  -16.1090   32.4450 O.2   121  ASN121     -0.2716
    113  ND2       30.6430  -16.2610   32.9010 N.am  121  ASN121     -0.0877
    114  N         27.4920  -15.6180   34.8380 N.am  122  GLU122     -0.1979
    115  CA        27.3010  -14.4420   35.6800 C.3   122  GLU122      0.1602
    116  C         25.8020  -14.2410   36.0170 C.2   122  GLU122      0.2287
    117  O         24.9290  -14.5660   35.2060 O.2   122  GLU122     -0.2864
    118  CB        27.9060  -13.2100   34.9920 C.3   122  GLU122      0.0415
    119  CG        29.3790  -13.3950   34.5870 C.3   122  GLU122      0.1163
    120  CD        29.8590  -12.3760   33.5500 C.2   122  GLU122      0.3649
    121  OE1       29.6560  -12.6270   32.3440 O.co2 122  GLU122     -0.2457
    122  OE2       30.4470  -11.3320   33.9310 O.co2 122  GLU122     -0.2457
    123  N         28.0930  -18.4190   27.8110 N.3   150  LYS150     -0.1245
    124  CA        28.9540  -18.6760   28.9560 C.3   150  LYS150      0.1561
    125  C         28.3560  -19.7240   29.8920 C.2   150  LYS150      0.2260
    126  O         28.0230  -19.4300   31.0410 O.2   150  LYS150     -0.2867
    127  CB        29.2460  -17.3750   29.7150 C.3   150  LYS150      0.0271
    128  CG        29.9140  -16.2910   28.8880 C.3   150  LYS150      0.0035
    129  CD        31.3530  -16.6660   28.5350 C.3   150  LYS150      0.0206
    130  CE        32.1450  -15.4950   27.9300 C.3   150  LYS150      0.1093
    131  NZ        32.7080  -14.5070   28.9160 N.3   150  LYS150     -0.1314
    132  N         32.1580  -20.6280   23.7590 N.3   186  LEU186     -0.1245
    133  CA        33.4150  -21.0440   24.3280 C.3   186  LEU186      0.1561
    134  C         34.0250  -22.1080   23.4460 C.2   186  LEU186      0.2260
    135  O         35.0520  -21.9030   22.8040 O.2   186  LEU186     -0.2867
    136  CB        33.1360  -21.6320   25.7080 C.3   186  LEU186      0.0270
    137  CG        34.2630  -22.0930   26.6270 C.3   186  LEU186      0.0019
    138  CD1       35.2730  -20.9880   26.8370 C.3   186  LEU186      0.0001
    139  CD2       33.6640  -22.5140   27.9530 C.3   186  LEU186      0.0001
@<TRIPOS>BOND
     1    76    75    2
     2    75    74    1
     3    82    83    1
     4    67    66    2
     5    66    73   am
     6    66    65    1
     7    73    74    1
     8    74    77    1
     9    64    65    1
    10    65    68    1
    11    85    84    2
    12    83    86    1
    13    83    84    1
    14    86    87    1
    15    60    59    2
    16    53    52    2
    17    84    90   am
    18    77    78    1
    19    68    69    1
    20    59    58    1
    21    78    79    1
    22    87    89   ar
    23    87    88   ar
    24    52    51    1
    25    52    57   am
    26    90    91    1
    27    69    70    1
    28    56    54    1
    29    58    57    1
    30    58    61    1
    31    44    43    2
    32    51    54    1
    33    51    50    1
    34    91    94    1
    35    91    92    1
    36    62    61    1
    37    79    80   ar
    38    79    81   ar
    39    72    70   ar
    40    54    55    1
    41    70    71   ar
    42    61    63    1
    43    43    50   am
    44    43    42    1
    45   101   100    1
    46   101    95    1
    47     7     5    1
    48    92    95   am
    49    92    93    2
    50     1     2    1
    51    42    45    1
    52    42    41    1
    53   100    99    1
    54    95    96    1
    55    45    46    1
    56    40    39    2
    57   135   134    2
    58     5     2    1
    59     5     6    1
    60     2     3    1
    61    41    39   am
    62    46    47    1
    63    39    38    1
    64   134   133    1
    65    96    99    1
    66    96    97    1
    67   132   133    1
    68    98    97    2
    69     4     3    2
    70     3     8   am
    71   133   136    1
    72    49    48    1
    73    48    47    1
    74    97   102   am
    75    38    37    1
    76     8     9    1
    77   136   137    1
    78   102   103    1
    79   137   138    1
    80   137   139    1
    81     9    10    1
    82   103   104    1
    83    11    10    2
    84   123   124    1
    85    10    12   am
    86   130   129    1
    87   130   131    1
    88    35    34   ar
    89   104   105    2
    90    30    31    1
    91    30    29    1
    92    30    33    1
    93    31    32    2
    94   129   128    1
    95    29    24   am
    96    34    36   ar
    97    34    33    1
    98   128   127    1
    99    15    14    2
   100   124   127    1
   101   124   125    1
   102    12    13    1
   103    24    23    1
   104    24    25    2
   105    14    13    1
   106    14    22   am
   107    23    22    1
   108    23    26    1
   109   125   126    2
   110    13    16    1
   111    28    26    1
   112    26    27    1
   113    16    17    1
   114   121   120   ar
   115    17    19   ar
   116    17    18   ar
   117    19    21   ar
   118   112   111    2
   119   113   111   am
   120   111   110    1
   121   106   107    1
   122   120   122   ar
   123   120   119    1
   124    21    20   ar
   125    18    20   ar
   126   110   107    1
   127   107   108    1
   128   119   118    1
   129   114   108   am
   130   114   115    1
   131   118   115    1
   132   117   116    2
   133   108   109    2
   134   115   116    1
