@<TRIPOS>MOLECULE
tmp/3qsyA01.pdb
 82 81 0 0 0
SMALL
GASTEIGER

@<TRIPOS>ATOM
      1  N         22.1850  -12.0980   37.1550 N.3   124  PHE124     -0.1228
      2  CA        21.4990  -11.0330   36.4240 C.3   124  PHE124      0.1721
      3  C         21.8790   -9.5940   36.7930 C.2   124  PHE124      0.2437
      4  O         22.2030   -8.8040   35.8990 O.2   124  PHE124     -0.2733
      5  CB        19.9710  -11.2140   36.4110 C.3   124  PHE124      0.0547
      6  CG        19.2860  -10.4430   35.3090 C.ar  124  PHE124     -0.0202
      7  CD1       19.0670   -9.0710   35.4260 C.ar  124  PHE124     -0.0042
      8  CD2       18.8760  -11.0870   34.1500 C.ar  124  PHE124     -0.0042
      9  CE1       18.4460   -8.3590   34.4110 C.ar  124  PHE124     -0.0003
     10  CE2       18.2500  -10.3840   33.1330 C.ar  124  PHE124     -0.0003
     11  CZ        18.0340   -9.0160   33.2630 C.ar  124  PHE124     -0.0000
     12  N         21.7680   -9.2150   38.0800 N.am  125  PRO125     -0.2729
     13  CA        22.2170   -7.8350   38.2910 C.3   125  PRO125      0.1401
     14  C         23.7380   -7.6600   38.1170 C.2   125  PRO125      0.2269
     15  O         24.5520   -8.3650   38.7260 O.2   125  PRO125     -0.2865
     16  CB        21.7770   -7.5300   39.7380 C.3   125  PRO125      0.0296
     17  CG        20.9440   -8.7210   40.1810 C.3   125  PRO125      0.0237
     18  CD        21.4080   -9.8730   39.3450 C.3   125  PRO125      0.0939
     19  N         21.7550   -4.1220   33.9000 N.3   130  ARG130     -0.1245
     20  CA        20.5810   -3.2800   34.0380 C.3   130  ARG130      0.1563
     21  C         20.8660   -1.9450   33.3720 C.2   130  ARG130      0.2260
     22  O         19.9670   -1.3560   32.7780 O.2   130  ARG130     -0.2867
     23  CB        20.1700   -3.0820   35.4990 C.3   130  ARG130      0.0307
     24  CG        18.8240   -2.3730   35.6620 C.3   130  ARG130      0.0489
     25  CD        18.9790   -0.8670   35.7330 C.3   130  ARG130      0.2205
     26  NE        19.5870   -0.4390   36.9820 N.pl3 130  ARG130     -0.0865
     27  CZ        18.8840   -0.0940   38.0490 C.cat 130  ARG130      0.5346
     28  NH1       17.5610   -0.1530   37.9940 N.pl3 130  ARG130      0.1354
     29  NH2       19.5010    0.2810   39.1620 N.pl3 130  ARG130      0.1354
     30  N         11.5180  -11.3270   33.8110 N.3   169  PHE169     -0.1241
     31  CA        11.9390   -9.9540   33.5270 C.3   169  PHE169      0.1605
     32  C         11.1000   -9.2360   32.4710 C.2   169  PHE169      0.2264
     33  O         10.3580   -8.3100   32.7920 O.2   169  PHE169     -0.2867
     34  CB        13.4190   -9.9000   33.1360 C.3   169  PHE169      0.0534
     35  CG        14.0180   -8.5280   33.2470 C.ar  169  PHE169     -0.0203
     36  CD1       14.5370   -8.0840   34.4510 C.ar  169  PHE169     -0.0042
     37  CD2       14.0560   -7.6810   32.1510 C.ar  169  PHE169     -0.0042
     38  CE1       15.0840   -6.8220   34.5580 C.ar  169  PHE169     -0.0003
     39  CE2       14.5990   -6.4220   32.2560 C.ar  169  PHE169     -0.0003
     40  CZ        15.1160   -5.9920   33.4570 C.ar  169  PHE169     -0.0000
     41  N         15.9790    2.7630   42.4720 N.3   340  VAL340     -0.1231
     42  CA        17.1670    1.9240   42.3570 C.3   340  VAL340      0.1692
     43  C         18.4820    2.6900   42.5380 C.2   340  VAL340      0.2593
     44  O         18.9260    3.4370   41.6750 O.2   340  VAL340     -0.2718
     45  CB        17.1680    1.1570   41.0270 C.3   340  VAL340      0.0266
     46  CG1       16.4590   -0.1870   41.1860 C.3   340  VAL340      0.0020
     47  CG2       16.5210    1.9990   39.9420 C.3   340  VAL340      0.0020
     48  N         19.1040    2.4320   43.6790 N.am  341  GLY341     -0.1942
     49  CA        20.3210    3.0730   44.1390 C.3   341  GLY341      0.2014
     50  C         21.5080    2.1620   43.9720 C.2   341  GLY341      0.2639
     51  O         21.6750    1.5060   42.9480 O.2   341  GLY341     -0.2714
     52  N         22.3610    2.1550   44.9900 N.am  342  ALA342     -0.1963
     53  CA        23.3620    1.1050   45.1220 C.3   342  ALA342      0.1728
     54  C         22.5990   -0.1740   45.4650 C.2   342  ALA342      0.2616
     55  O         21.3540   -0.1970   45.4080 O.2   342  ALA342     -0.2715
     56  CB        24.3800    1.4460   46.2200 C.3   342  ALA342      0.0334
     57  N         23.3350   -1.2280   45.8200 N.am  343  LYS343     -0.1963
     58  CA        22.7880   -2.5850   45.9780 C.3   343  LYS343      0.1728
     59  C         21.5050   -2.6320   46.8260 C.2   343  LYS343      0.2616
     60  O         20.6820   -3.5430   46.6760 O.2   343  LYS343     -0.2715
     61  CB        23.8690   -3.4980   46.5770 C.3   343  LYS343      0.0311
     62  CG        23.3970   -4.8150   47.2020 C.3   343  LYS343      0.0038
     63  CD        22.7270   -5.7390   46.1940 C.3   343  LYS343      0.0206
     64  CE        22.6620   -7.1900   46.6570 C.3   343  LYS343      0.1093
     65  NZ        23.9610   -7.8890   46.4510 N.3   343  LYS343     -0.1314
     66  N         21.3170   -1.6160   47.6660 N.am  344  GLU344     -0.1963
     67  CA        20.1550   -1.5170   48.5430 C.3   344  GLU344      0.1733
     68  C         18.8340   -1.7070   47.8030 C.2   344  GLU344      0.2616
     69  O         18.6820   -1.2560   46.6670 O.2   344  GLU344     -0.2715
     70  CB        20.1640   -0.1740   49.2850 C.3   344  GLU344      0.0429
     71  CG        20.2770    1.0640   48.3920 C.3   344  GLU344      0.1163
     72  CD        18.9660    1.4410   47.7320 C.2   344  GLU344      0.3649
     73  OE1       17.9840    1.7010   48.4580 O.co2 344  GLU344     -0.2457
     74  OE2       18.9160    1.4590   46.4840 O.co2 344  GLU344     -0.2457
     75  N         17.9230   -2.4530   48.4280 N.am  345  MET345     -0.1977
     76  CA        16.5570   -2.6310   47.9280 C.3   345  MET345      0.1605
     77  C         15.4540   -1.7940   48.6040 C.2   345  MET345      0.2287
     78  O         14.2880   -1.8890   48.2210 O.2   345  MET345     -0.2864
     79  CB        16.1750   -4.1120   47.9320 C.3   345  MET345      0.0413
     80  CG        16.7780   -4.8940   46.7790 C.3   345  MET345      0.0598
     81  SD        16.4230   -4.1280   45.1830 S.3   345  MET345     -0.1393
     82  CE        14.6320   -4.0150   45.2370 C.3   345  MET345      0.0692
@<TRIPOS>BOND
     1    37    39   ar
     2    37    35   ar
     3    39    40   ar
     4    32    33    2
     5    32    31    1
     6    22    21    2
     7    10    11   ar
     8    10     8   ar
     9    34    35    1
    10    34    31    1
    11    35    36   ar
    12    11     9   ar
    13    21    20    1
    14    40    38   ar
    15    31    30    1
    16    19    20    1
    17    20    23    1
    18     8     6   ar
    19     9     7   ar
    20    36    38   ar
    21     6     7   ar
    22     6     5    1
    23    23    24    1
    24    24    25    1
    25    25    26    1
    26     4     3    2
    27     5     2    1
    28     2     3    1
    29     2     1    1
    30     3    12   am
    31    26    27    2
    32    28    27    1
    33    27    29    1
    34    12    13    1
    35    12    18    1
    36    14    13    1
    37    14    15    2
    38    13    16    1
    39    18    17    1
    40    16    17    1
    41    47    45    1
    42    45    46    1
    43    45    42    1
    44    44    43    2
    45    42    41    1
    46    42    43    1
    47    43    48   am
    48    51    50    2
    49    48    49    1
    50    50    49    1
    51    50    52   am
    52    52    53    1
    53    53    54    1
    54    53    56    1
    55    81    82    1
    56    81    80    1
    57    55    54    2
    58    54    57   am
    59    57    58    1
    60    58    61    1
    61    58    59    1
    62    63    64    1
    63    63    62    1
    64    65    64    1
    65    74    72   ar
    66    61    62    1
    67    69    68    2
    68    60    59    2
    69    80    79    1
    70    59    66   am
    71    66    67    1
    72    72    71    1
    73    72    73   ar
    74    68    75   am
    75    68    67    1
    76    76    79    1
    77    76    75    1
    78    76    77    1
    79    78    77    2
    80    71    70    1
    81    67    70    1
