@<TRIPOS>MOLECULE
tmp/3qt0A00.pdb
 245 232 0 0 0
SMALL
GASTEIGER

@<TRIPOS>ATOM
      1  N         -4.0690  -24.1770    1.5460 N.3    55  LYS55      -0.1245
      2  CA        -4.8560  -24.0070    0.3270 C.3    55  LYS55       0.1561
      3  C         -6.1320  -24.8430    0.3790 C.2    55  LYS55       0.2260
      4  O         -6.4180  -25.5780   -0.5610 O.2    55  LYS55      -0.2867
      5  CB        -4.0430  -24.4280   -0.9010 C.3    55  LYS55       0.0271
      6  CG        -2.7500  -23.6610   -1.1020 C.3    55  LYS55       0.0035
      7  CD        -1.8380  -24.3750   -2.0870 C.3    55  LYS55       0.0206
      8  CE        -0.3840  -24.0820   -1.7810 C.3    55  LYS55       0.1093
      9  NZ        -0.0420  -24.3980   -0.3590 N.3    55  LYS55      -0.1314
     10  N          0.8770  -29.9180   -6.0350 N.3    71  ILE71      -0.1231
     11  CA         1.0440  -28.5630   -6.5270 C.3    71  ILE71       0.1692
     12  C          0.0800  -28.2560   -7.6720 C.2    71  ILE71       0.2592
     13  O         -0.5760  -27.2140   -7.6820 O.2    71  ILE71      -0.2718
     14  CB         2.5040  -28.3510   -6.9710 C.3    71  ILE71       0.0266
     15  CG1        3.4260  -28.5100   -5.7610 C.3    71  ILE71       0.0019
     16  CG2        2.6990  -27.0020   -7.6780 C.3    71  ILE71       0.0020
     17  CD1        4.7530  -27.8790   -5.9450 C.3    71  ILE71       0.0001
     18  N         -0.0080  -29.1640   -8.6340 N.am   72  PHE72      -0.1976
     19  CA        -0.9470  -29.0060   -9.7310 C.3    72  PHE72       0.1639
     20  C         -2.3420  -28.7500   -9.1810 C.2    72  PHE72       0.2290
     21  O         -3.0880  -27.9220   -9.7050 O.2    72  PHE72      -0.2864
     22  CB        -0.9570  -30.2520  -10.6120 C.3    72  PHE72       0.0560
     23  CG        -1.9060  -30.1630  -11.7680 C.ar   72  PHE72      -0.0200
     24  CD1       -3.1670  -30.7420  -11.6970 C.ar   72  PHE72      -0.0042
     25  CD2       -1.5460  -29.4860  -12.9260 C.ar   72  PHE72      -0.0042
     26  CE1       -4.0530  -30.6500  -12.7700 C.ar   72  PHE72      -0.0003
     27  CE2       -2.4250  -29.3870  -14.0010 C.ar   72  PHE72      -0.0003
     28  CZ        -3.6780  -29.9670  -13.9220 C.ar   72  PHE72      -0.0000
     29  N         -3.2080  -27.5690   -6.0840 N.3    74  GLY74      -0.1210
     30  CA        -3.2920  -26.3180   -5.3470 C.3    74  GLY74       0.1956
     31  C         -3.3840  -25.1320   -6.2920 C.2    74  GLY74       0.2612
     32  O         -3.8910  -24.0670   -5.9390 O.2    74  GLY74      -0.2717
     33  N         -2.8880  -25.3210   -7.5070 N.am   75  CYS75      -0.1956
     34  CA        -2.9030  -24.2740   -8.5110 C.3    75  CYS75       0.1843
     35  C         -4.3280  -23.9810   -8.9890 C.2    75  CYS75       0.2625
     36  O         -4.6400  -22.8680   -9.4440 O.2    75  CYS75      -0.2714
     37  CB        -2.0390  -24.6870   -9.7020 C.3    75  CYS75       0.0997
     38  SG        -0.2810  -24.5880   -9.3920 S.3    75  CYS75      -0.0797
     39  N         -5.1850  -24.9900   -8.8890 N.am   76  GLN76      -0.1977
     40  CA        -6.5610  -24.8660   -9.3370 C.3    76  GLN76       0.1601
     41  C         -7.3960  -24.0700   -8.3460 C.2    76  GLN76       0.2287
     42  O         -8.3010  -23.3380   -8.7390 O.2    76  GLN76      -0.2864
     43  CB        -7.1770  -26.2410   -9.5220 C.3    76  GLN76       0.0394
     44  CG        -6.4030  -27.1270  -10.4500 C.3    76  GLN76       0.0908
     45  CD        -7.0690  -28.4600  -10.6000 C.2    76  GLN76       0.2608
     46  OE1       -8.2850  -28.5820  -10.4210 O.2    76  GLN76      -0.2717
     47  NE2       -6.2840  -29.4780  -10.9220 N.am   76  GLN76      -0.0878
     48  N         -6.2810  -21.5310   -6.4620 N.3    78  ARG78      -0.1231
     49  CA        -5.9420  -20.1340   -6.6740 C.3    78  ARG78       0.1694
     50  C         -6.5360  -19.5910   -7.9720 C.2    78  ARG78       0.2592
     51  O         -6.9140  -18.4120   -8.0610 O.2    78  ARG78      -0.2718
     52  CB        -4.4280  -19.9480   -6.6590 C.3    78  ARG78       0.0321
     53  CG        -3.9890  -18.5580   -7.0650 C.3    78  ARG78       0.0489
     54  CD        -4.6810  -17.4600   -6.2520 C.3    78  ARG78       0.2205
     55  NE        -4.4640  -16.1720   -6.9010 N.pl3  78  ARG78      -0.0865
     56  CZ        -5.2830  -15.1290   -6.8150 C.cat  78  ARG78       0.5346
     57  NH1       -6.3880  -15.2020   -6.0900 N.pl3  78  ARG78       0.1354
     58  NH2       -4.9890  -14.0090   -7.4580 N.pl3  78  ARG78       0.1354
     59  N         -6.6390  -20.4540   -8.9750 N.am   79  SER79      -0.1952
     60  CA        -7.0660  -19.9790  -10.2710 C.3    79  SER79       0.1924
     61  C         -8.5940  -19.8900  -10.3990 C.2    79  SER79       0.2314
     62  O         -9.1060  -19.2160  -11.2940 O.2    79  SER79      -0.2863
     63  CB        -6.3930  -20.7860  -11.3980 C.3    79  SER79       0.2116
     64  OG        -7.1890  -21.8640  -11.8290 O.3    79  SER79      -0.2180
     65  N         -9.0520  -16.4550   -8.9380 N.3    82  ALA82      -0.1245
     66  CA        -8.6580  -15.4700   -9.9330 C.3    82  ALA82       0.1562
     67  C         -9.7720  -15.2380  -10.9460 C.2    82  ALA82       0.2260
     68  O        -10.0650  -14.0930  -11.2920 O.2    82  ALA82      -0.2867
     69  CB        -7.3670  -15.9010  -10.6300 C.3    82  ALA82       0.0290
     70  N        -12.2820  -12.9980   -9.3350 N.3    85  GLU85      -0.1231
     71  CA       -11.8020  -11.6400   -9.2880 C.3    85  GLU85       0.1699
     72  C        -11.9160  -11.0420  -10.6930 C.2    85  GLU85       0.2592
     73  O        -12.3830   -9.9120  -10.8720 O.2    85  GLU85      -0.2718
     74  CB       -10.3500  -11.6080   -8.8160 C.3    85  GLU85       0.0402
     75  CG       -10.1080  -12.1400   -7.3970 C.3    85  GLU85       0.1161
     76  CD        -8.6200  -12.1660   -7.0100 C.2    85  GLU85       0.3649
     77  OE1       -7.7470  -12.1670   -7.9240 O.co2  85  GLU85      -0.2457
     78  OE2       -8.3290  -12.1800   -5.7890 O.co2  85  GLU85      -0.2457
     79  N        -11.4920  -11.8040  -11.6960 N.am   86  ILE86      -0.1980
     80  CA       -11.4810  -11.2830  -13.0550 C.3    86  ILE86       0.1595
     81  C        -12.9110  -10.9890  -13.5470 C.2    86  ILE86       0.2287
     82  O        -13.1880   -9.8880  -14.0350 O.2    86  ILE86      -0.2864
     83  CB       -10.7070  -12.2150  -14.0100 C.3    86  ILE86       0.0276
     84  CG1       -9.2540  -12.3280  -13.5540 C.3    86  ILE86       0.0022
     85  CG2      -10.7450  -11.7070  -15.4700 C.3    86  ILE86       0.0022
     86  CD1       -8.4500  -13.4340  -14.2720 C.3    86  ILE86       0.0001
     87  N         -7.2920  -16.8300  -19.0950 N.3   113  HIS113     -0.1241
     88  CA        -5.9040  -17.2510  -18.9040 C.3   113  HIS113      0.1621
     89  C         -4.8980  -16.2170  -19.3660 C.2   113  HIS113      0.2264
     90  O         -3.7970  -16.1340  -18.8300 O.2   113  HIS113     -0.2867
     91  CB        -5.6110  -18.5650  -19.5900 C.3   113  HIS113      0.0745
     92  CG        -6.3110  -19.7260  -18.9650 C.ar  113  HIS113      0.0817
     93  ND1       -7.6400  -20.0080  -19.2070 N.ar  113  HIS113     -0.2268
     94  CD2       -5.8760  -20.6680  -18.0980 C.ar  113  HIS113      0.1154
     95  CE1       -7.9900  -21.0730  -18.5120 C.ar  113  HIS113      0.1986
     96  NE2       -6.9380  -21.4940  -17.8300 N.ar  113  HIS113     -0.2212
     97  N         -4.7820  -14.1520  -16.3630 N.3   116  ILE116     -0.1231
     98  CA        -4.0690  -14.8430  -15.3120 C.3   116  ILE116      0.1692
     99  C         -2.5520  -14.8040  -15.5480 C.2   116  ILE116      0.2592
    100  O         -1.8140  -14.4830  -14.6330 O.2   116  ILE116     -0.2718
    101  CB        -4.5730  -16.2680  -15.1450 C.3   116  ILE116      0.0266
    102  CG1       -5.9510  -16.2330  -14.4800 C.3   116  ILE116      0.0019
    103  CG2       -3.5940  -17.0950  -14.3060 C.3   116  ILE116      0.0020
    104  CD1       -6.6980  -17.5810  -14.4650 C.3   116  ILE116      0.0001
    105  N         -2.0690  -15.0960  -16.7560 N.am  117  TYR117     -0.1976
    106  CA        -0.6150  -15.0390  -16.9600 C.3   117  TYR117      0.1639
    107  C         -0.0690  -13.6050  -16.9380 C.2   117  TYR117      0.2290
    108  O          1.0770  -13.3800  -16.5680 O.2   117  TYR117     -0.2864
    109  CB        -0.1610  -15.8320  -18.2070 C.3   117  TYR117      0.0560
    110  CG        -0.6990  -17.2410  -18.1630 C.ar  117  TYR117     -0.0198
    111  CD1       -0.5850  -17.9940  -16.9980 C.ar  117  TYR117     -0.0009
    112  CD2       -1.3780  -17.8010  -19.2480 C.ar  117  TYR117     -0.0009
    113  CE1       -1.1100  -19.2680  -16.9110 C.ar  117  TYR117      0.0417
    114  CE2       -1.9220  -19.0820  -19.1660 C.ar  117  TYR117      0.0417
    115  CZ        -1.7720  -19.8130  -17.9940 C.ar  117  TYR117      0.1957
    116  OH        -2.2850  -21.0890  -17.8890 O.3   117  TYR117     -0.2866
    117  N         -1.2780  -11.2070  -14.9900 N.3   119  MET119     -0.1230
    118  CA        -1.2270  -10.7930  -13.5960 C.3   119  MET119      0.1702
    119  C         -0.1820  -11.5540  -12.8040 C.2   119  MET119      0.2592
    120  O          0.4280  -11.0170  -11.8940 O.2   119  MET119     -0.2718
    121  CB        -2.6110  -10.9020  -12.9600 C.3   119  MET119      0.0401
    122  CG        -3.6170  -10.0170  -13.6850 C.3   119  MET119      0.0596
    123  SD        -5.0310   -9.7030  -12.6670 S.3   119  MET119     -0.1393
    124  CE        -4.4540   -8.3010  -11.7020 C.3   119  MET119      0.0692
    125  N          0.0400  -12.8050  -13.1740 N.am  120  LEU120     -0.1980
    126  CA         1.0280  -13.6360  -12.5100 C.3   120  LEU120      0.1596
    127  C          2.4210  -13.0210  -12.6040 C.2   120  LEU120      0.2287
    128  O          3.2080  -13.1270  -11.6640 O.2   120  LEU120     -0.2864
    129  CB         1.0210  -15.0250  -13.1440 C.3   120  LEU120      0.0297
    130  CG         1.8670  -16.1400  -12.5300 C.3   120  LEU120      0.0022
    131  CD1        1.5260  -16.3420  -11.0520 C.3   120  LEU120      0.0001
    132  CD2        1.6560  -17.4140  -13.3250 C.3   120  LEU120      0.0001
    133  N          3.8310  -11.0090  -10.0370 N.3   123  LEU123     -0.1245
    134  CA         4.1600  -11.7760   -8.8450 C.3   123  LEU123      0.1561
    135  C          5.5040  -12.5080   -8.9550 C.2   123  LEU123      0.2260
    136  O          5.9640  -13.1100   -7.9960 O.2   123  LEU123     -0.2867
    137  CB         3.0250  -12.7570   -8.5360 C.3   123  LEU123      0.0270
    138  CG         1.6580  -12.1230   -8.2460 C.3   123  LEU123      0.0019
    139  CD1        0.6840  -13.1370   -7.6750 C.3   123  LEU123      0.0001
    140  CD2        1.8080  -10.9670   -7.2880 C.3   123  LEU123      0.0001
    141  N          8.1980  -17.2930   -7.6100 N.3   129  VAL129     -0.1231
    142  CA         6.8940  -16.6460   -7.6300 C.3   129  VAL129      0.1692
    143  C          6.2670  -16.5660   -6.2520 C.2   129  VAL129      0.2592
    144  O          6.3880  -17.5070   -5.4430 O.2   129  VAL129     -0.2718
    145  CB         5.9000  -17.3750   -8.5440 C.3   129  VAL129      0.0266
    146  CG1        5.6530  -18.7830   -8.0330 C.3   129  VAL129      0.0020
    147  CG2        4.5760  -16.5680   -8.6260 C.3   129  VAL129      0.0020
    148  N          5.6010  -15.4330   -5.9980 N.am  130  LEU130     -0.1966
    149  CA         4.8810  -15.2130   -4.7510 C.3   130  LEU130      0.1728
    150  C          3.5980  -16.0330   -4.7150 C.2   130  LEU130      0.2616
    151  O          2.9820  -16.3080   -5.7470 O.2   130  LEU130     -0.2715
    152  CB         4.5360  -13.7390   -4.5780 C.3   130  LEU130      0.0311
    153  CG         5.6560  -12.7660   -4.2440 C.3   130  LEU130      0.0022
    154  CD1        5.0820  -11.3670   -4.1490 C.3   130  LEU130      0.0001
    155  CD2        6.3350  -13.1500   -2.9430 C.3   130  LEU130      0.0001
    156  N          3.1870  -16.4190   -3.5220 N.am  131  ILE131     -0.1977
    157  CA         1.9500  -17.1690   -3.3780 C.3   131  ILE131      0.1596
    158  C          1.3190  -16.8040   -2.0500 C.2   131  ILE131      0.2287
    159  O          1.9640  -16.1740   -1.2060 O.2   131  ILE131     -0.2864
    160  CB         2.2180  -18.6750   -3.3840 C.3   131  ILE131      0.0276
    161  CG1        3.1640  -19.0350   -2.2300 C.3   131  ILE131      0.0022
    162  CG2        2.7930  -19.1310   -4.7270 C.3   131  ILE131      0.0022
    163  CD1        3.3680  -20.5230   -2.0860 C.3   131  ILE131      0.0001
    164  N          7.5980  -19.3060   -3.9560 N.3   138  MET138     -0.1245
    165  CA         7.9040  -20.6130   -4.5120 C.3   138  MET138      0.1570
    166  C          9.0260  -20.4600   -5.5410 C.2   138  MET138      0.2261
    167  O          8.9120  -19.6670   -6.4750 O.2   138  MET138     -0.2867
    168  CB         6.6390  -21.2170   -5.1380 C.3   138  MET138      0.0387
    169  CG         6.7460  -22.6830   -5.5220 C.3   138  MET138      0.0595
    170  SD         5.1350  -23.4440   -5.8610 S.3   138  MET138     -0.1393
    171  CE         4.5180  -23.7990   -4.2100 C.3   138  MET138      0.0692
    172  N          9.8590  -25.4560   -9.2150 N.3   143  LEU143     -0.1245
    173  CA         8.7790  -25.6430  -10.1740 C.3   143  LEU143      0.1561
    174  C          9.1790  -26.3870  -11.4510 C.2   143  LEU143      0.2260
    175  O          8.3900  -27.1700  -11.9560 O.2   143  LEU143     -0.2867
    176  CB         8.0990  -24.3060  -10.4880 C.3   143  LEU143      0.0270
    177  CG         7.1550  -23.8060   -9.3830 C.3   143  LEU143      0.0019
    178  CD1        6.7870  -22.3230   -9.5370 C.3   143  LEU143      0.0001
    179  CD2        5.8980  -24.6730   -9.3420 C.3   143  LEU143      0.0001
    180  N          5.2150  -26.4890  -16.9000 N.3   153  PHE153     -0.1227
    181  CA         3.8580  -25.9840  -16.9220 C.3   153  PHE153      0.1736
    182  C          3.9820  -24.5570  -16.4320 C.2   153  PHE153      0.2595
    183  O          3.0660  -23.7440  -16.5750 O.2   153  PHE153     -0.2718
    184  CB         2.9360  -26.8080  -16.0190 C.3   153  PHE153      0.0547
    185  CG         2.7990  -26.2700  -14.6190 C.ar  153  PHE153     -0.0202
    186  CD1        3.9210  -25.9810  -13.8520 C.ar  153  PHE153     -0.0042
    187  CD2        1.5410  -26.0840  -14.0550 C.ar  153  PHE153     -0.0042
    188  CE1        3.7920  -25.4890  -12.5600 C.ar  153  PHE153     -0.0003
    189  CE2        1.4050  -25.6020  -12.7550 C.ar  153  PHE153     -0.0003
    190  CZ         2.5340  -25.3040  -12.0090 C.ar  153  PHE153     -0.0000
    191  N          5.1490  -24.2550  -15.8690 N.am  154  MET154     -0.1979
    192  CA         5.3770  -22.9490  -15.2740 C.3   154  MET154      0.1605
    193  C          6.6150  -22.2670  -15.8350 C.2   154  MET154      0.2287
    194  O          6.7200  -21.0380  -15.8330 O.2   154  MET154     -0.2864
    195  CB         5.4660  -23.0640  -13.7540 C.3   154  MET154      0.0413
    196  CG         5.9530  -21.8010  -13.0870 C.3   154  MET154      0.0598
    197  SD         5.2340  -20.3210  -13.8190 S.3   154  MET154     -0.1393
    198  CE         3.6270  -20.3580  -13.0660 C.3   154  MET154      0.0692
    199  N          5.8450  -19.5600  -18.3590 N.3   157  LYS157     -0.1245
    200  CA         5.2780  -18.3430  -17.7860 C.3   157  LYS157      0.1561
    201  C          6.3900  -17.5050  -17.1690 C.2   157  LYS157      0.2260
    202  O          6.3550  -16.2630  -17.2070 O.2   157  LYS157     -0.2867
    203  CB         4.2200  -18.6800  -16.7370 C.3   157  LYS157      0.0271
    204  CG         3.5060  -20.0220  -16.9610 C.3   157  LYS157      0.0035
    205  CD         2.1780  -19.8640  -17.6720 C.3   157  LYS157      0.0206
    206  CE         1.3230  -21.1650  -17.6370 C.3   157  LYS157      0.1093
    207  NZ         1.8110  -22.3310  -18.4250 N.3   157  LYS157     -0.1314
    208  N         -0.4770  -24.0630  -22.6680 N.3   239  HIS239     -0.1241
    209  CA        -1.0340  -24.4920  -21.3920 C.3   239  HIS239      0.1621
    210  C         -2.1520  -25.4780  -21.6260 C.2   239  HIS239      0.2264
    211  O         -2.2280  -26.4950  -20.9450 O.2   239  HIS239     -0.2867
    212  CB        -1.5560  -23.2950  -20.5840 C.3   239  HIS239      0.0745
    213  CG        -2.1260  -23.6650  -19.2430 C.ar  239  HIS239      0.0817
    214  ND1       -1.3370  -23.9920  -18.1600 N.ar  239  HIS239     -0.2268
    215  CD2       -3.4070  -23.7320  -18.8060 C.ar  239  HIS239      0.1154
    216  CE1       -2.1100  -24.2580  -17.1190 C.ar  239  HIS239      0.1986
    217  NE2       -3.3700  -24.1060  -17.4850 N.ar  239  HIS239     -0.2212
    218  N         -2.8290  -29.2930  -20.3580 N.3   243  LEU243     -0.1245
    219  CA        -4.1110  -29.7340  -19.7810 C.3   243  LEU243      0.1561
    220  C         -4.6410  -31.0330  -20.4230 C.2   243  LEU243      0.2260
    221  O         -5.0740  -31.9670  -19.7280 O.2   243  LEU243     -0.2867
    222  CB        -5.1520  -28.6400  -19.9420 C.3   243  LEU243      0.0270
    223  CG        -5.4990  -27.8060  -18.7030 C.3   243  LEU243      0.0019
    224  CD1       -4.4450  -27.8930  -17.5940 C.3   243  LEU243      0.0001
    225  CD2       -5.7530  -26.3650  -19.1000 C.3   243  LEU243      0.0001
    226  N        -13.4770  -24.7320  -13.8030 N.3   259  LEU259     -0.1245
    227  CA       -12.4100  -24.9590  -14.7710 C.3   259  LEU259      0.1561
    228  C        -12.8450  -25.8850  -15.9160 C.2   259  LEU259      0.2260
    229  O        -12.4540  -25.6710  -17.0620 O.2   259  LEU259     -0.2867
    230  CB       -11.1340  -25.4560  -14.0690 C.3   259  LEU259      0.0270
    231  CG       -10.6680  -24.5300  -12.9250 C.3   259  LEU259      0.0019
    232  CD1       -9.4380  -25.0480  -12.1730 C.3   259  LEU259      0.0001
    233  CD2      -10.4290  -23.0940  -13.4320 C.3   259  LEU259      0.0001
    234  N        -12.5150  -24.8590  -19.8360 N.3   263  TYR263     -0.1241
    235  CA       -11.6230  -25.7060  -20.6090 C.3   263  TYR263      0.1605
    236  C        -12.3520  -26.4150  -21.7620 C.2   263  TYR263      0.2264
    237  O        -11.8310  -26.4680  -22.8760 O.2   263  TYR263     -0.2867
    238  CB       -10.9030  -26.7220  -19.6990 C.3   263  TYR263      0.0534
    239  CG        -9.9280  -26.1290  -18.6860 C.ar  263  TYR263     -0.0201
    240  CD1       -9.2680  -24.9310  -18.9360 C.ar  263  TYR263     -0.0009
    241  CD2       -9.6500  -26.7850  -17.4890 C.ar  263  TYR263     -0.0009
    242  CE1       -8.3710  -24.3860  -18.0120 C.ar  263  TYR263      0.0417
    243  CE2       -8.7560  -26.2460  -16.5570 C.ar  263  TYR263      0.0417
    244  CZ        -8.1190  -25.0440  -16.8270 C.ar  263  TYR263      0.1957
    245  OH        -7.2180  -24.5010  -15.9220 O.3   263  TYR263     -0.2866
@<TRIPOS>BOND
     1   237   236    2
     2   208   209    1
     3   236   235    1
     4   210   209    1
     5   210   211    2
     6   209   212    1
     7   235   234    1
     8   235   238    1
     9   212   213    1
    10   220   219    1
    11   220   221    2
    12   218   219    1
    13   222   219    1
    14   222   223    1
    15   238   239    1
    16    91    92    1
    17    91    88    1
    18    89    88    1
    19    89    90    2
    20   112   114   ar
    21   112   110   ar
    22   213   215   ar
    23   213   214   ar
    24    93    92   ar
    25    93    95   ar
    26   114   115   ar
    27   225   223    1
    28    87    88    1
    29    92    94   ar
    30   240   239   ar
    31   240   242   ar
    32   215   217   ar
    33   223   224    1
    34   239   241   ar
    35    95    96   ar
    36   207   206    1
    37   199   200    1
    38   109   110    1
    39   109   106    1
    40   110   111   ar
    41   214   216   ar
    42    94    96   ar
    43   242   244   ar
    44   115   116    1
    45   115   113   ar
    46   200   201    1
    47   200   203    1
    48   205   206    1
    49   205   204    1
    50   241   243   ar
    51   217   216   ar
    52   202   201    2
    53   229   228    2
    54   111   113   ar
    55   204   203    1
    56   106   107    1
    57   106   105    1
    58   107   108    2
    59   181   180    1
    60   181   182    1
    61   181   184    1
    62   244   243   ar
    63   244   245    1
    64   105    99   am
    65   183   182    2
    66   182   191   am
    67    97    98    1
    68   184   185    1
    69   228   227    1
    70   191   192    1
    71   193   194    2
    72   193   192    1
    73    99    98    1
    74    99   100    2
    75    85    83    1
    76    98   101    1
    77   192   195    1
    78   101   102    1
    79   101   103    1
    80   117   118    1
    81   227   230    1
    82   227   226    1
    83   185   187   ar
    84   185   186   ar
    85   102   104    1
    86    86    84    1
    87   230   231    1
    88   187   189   ar
    89    82    81    2
    90    83    84    1
    91    83    80    1
    92    27    28   ar
    93    27    25   ar
    94    28    26   ar
    95   186   188   ar
    96   197   196    1
    97   197   198    1
    98   195   196    1
    99   122   121    1
   100   122   123    1
   101   118   121    1
   102   118   119    1
   103    81    80    1
   104   233   231    1
   105   132   130    1
   106   125   119   am
   107   125   126    1
   108   129   130    1
   109   129   126    1
   110    80    79    1
   111    25    23   ar
   112   231   232    1
   113   119   120    2
   114    26    24   ar
   115   189   190   ar
   116   123   124    1
   117   127   126    1
   118   127   128    2
   119   188   190   ar
   120   130   131    1
   121   175   174    2
   122    64    63    1
   123    23    24   ar
   124    23    22    1
   125    79    72   am
   126   174   173    1
   127    63    60    1
   128    62    61    2
   129    68    67    2
   130    67    66    1
   131    47    45   am
   132    73    72    2
   133    72    71    1
   134    69    66    1
   135    22    19    1
   136    45    44    1
   137    45    46    2
   138   176   173    1
   139   176   177    1
   140    44    43    1
   141    61    60    1
   142    60    59    1
   143   173   172    1
   144   133   134    1
   145    66    65    1
   146    19    20    1
   147    19    18    1
   148    21    20    2
   149    37    38    1
   150    37    34    1
   151   178   177    1
   152    43    40    1
   153    36    35    2
   154   177   179    1
   155    40    39    1
   156    40    41    1
   157    70    71    1
   158    71    74    1
   159    35    39   am
   160    35    34    1
   161    59    50   am
   162   135   134    1
   163   135   136    2
   164   134   137    1
   165    74    75    1
   166    42    41    2
   167    18    12   am
   168   147   145    1
   169   145   146    1
   170   145   142    1
   171   137   138    1
   172    34    33    1
   173   138   139    1
   174   138   140    1
   175    51    50    2
   176    50    49    1
   177    77    76   ar
   178    13    12    2
   179    16    14    1
   180    12    11    1
   181   142   141    1
   182   142   143    1
   183    33    31   am
   184    58    56    1
   185    75    76    1
   186    53    52    1
   187    53    54    1
   188    76    78   ar
   189    14    11    1
   190    14    15    1
   191    55    56    2
   192    55    54    1
   193    56    57    1
   194    49    52    1
   195    49    48    1
   196    11    10    1
   197   167   166    2
   198    31    32    2
   199    31    30    1
   200   143   148   am
   201   143   144    2
   202    29    30    1
   203   148   149    1
   204    17    15    1
   205   170   169    1
   206   170   171    1
   207   151   150    2
   208   166   165    1
   209   169   168    1
   210   168   165    1
   211   149   150    1
   212   149   152    1
   213   162   160    1
   214   150   156   am
   215   152   153    1
   216   165   164    1
   217   153   154    1
   218   153   155    1
   219   156   157    1
   220   160   157    1
   221   160   161    1
   222   157   158    1
   223   161   163    1
   224     7     8    1
   225     7     6    1
   226   158   159    2
   227     8     9    1
   228     6     5    1
   229     5     2    1
   230     4     3    2
   231     2     3    1
   232     2     1    1
