@<TRIPOS>MOLECULE
tmp/3qt4A04.pdb
 155 149 0 0 0
SMALL
GASTEIGER

@<TRIPOS>ATOM
      1  N          9.6080  -28.0880   29.7580 N.3    15  HIS15      -0.1226
      2  CA         8.3460  -28.5090   29.1770 C.3    15  HIS15       0.1752
      3  C          7.7720  -29.7490   29.7880 C.2    15  HIS15       0.2596
      4  O          6.9340  -30.4090   29.1790 O.2    15  HIS15      -0.2718
      5  CB         8.4830  -28.6020   27.6850 C.3    15  HIS15       0.0759
      6  CG         8.9130  -27.3160   27.0860 C.ar   15  HIS15       0.0818
      7  ND1        8.1310  -26.1810   27.1490 N.ar   15  HIS15      -0.2268
      8  CD2       10.0610  -26.9550   26.4730 C.ar   15  HIS15       0.1154
      9  CE1        8.7650  -25.1850   26.5620 C.ar   15  HIS15       0.1986
     10  NE2        9.9390  -25.6250   26.1480 N.ar   15  HIS15      -0.2212
     11  N          8.2260  -30.0650   30.9990 N.am   16  LYS16      -0.1966
     12  CA         7.5640  -31.0810   31.8050 C.3    16  LYS16       0.1728
     13  C          7.4930  -32.4090   31.0550 C.2    16  LYS16       0.2616
     14  O          6.5060  -33.1630   31.1800 O.2    16  LYS16      -0.2715
     15  CB         6.1530  -30.5920   32.1550 C.3    16  LYS16       0.0311
     16  CG         6.1510  -29.2850   32.9470 C.3    16  LYS16       0.0038
     17  CD         4.8050  -28.5670   32.9170 C.3    16  LYS16       0.0206
     18  CE         4.8320  -27.3900   31.9530 C.3    16  LYS16       0.1093
     19  NZ         3.7310  -26.4260   32.2280 N.3    16  LYS16      -0.1314
     20  N          8.5370  -32.6950   30.2800 N.am   17  LYS17      -0.1963
     21  CA         8.5610  -33.8960   29.4610 C.3    17  LYS17       0.1728
     22  C          8.8600  -35.1290   30.2910 C.2    17  LYS17       0.2617
     23  O          9.8480  -35.1820   31.0330 O.2    17  LYS17      -0.2715
     24  CB         9.5540  -33.7610   28.2980 C.3    17  LYS17       0.0311
     25  CG         9.1580  -32.7190   27.2590 C.3    17  LYS17       0.0038
     26  CD         7.7420  -32.9590   26.7480 C.3    17  LYS17       0.0206
     27  CE         7.5050  -32.3090   25.4090 C.3    17  LYS17       0.1093
     28  NZ         7.4720  -30.8260   25.4530 N.3    17  LYS17      -0.1314
     29  N          7.9730  -36.1080   30.1730 N.am   18  SER18      -0.1936
     30  CA         8.1720  -37.4090   30.7600 C.3    18  SER18       0.2055
     31  C          7.6590  -38.3330   29.6780 C.2    18  SER18       0.2643
     32  O          6.4460  -38.4590   29.4860 O.2    18  SER18      -0.2714
     33  CB         7.3540  -37.5620   32.0440 C.3    18  SER18       0.2130
     34  OG         7.6540  -38.8000   32.6690 O.3    18  SER18      -0.2179
     35  N          8.5760  -38.9320   28.9240 N.am   19  TYR19      -0.1973
     36  CA         8.1610  -39.7080   27.7680 C.3    19  TYR19       0.1639
     37  C          7.6520  -41.0770   28.1470 C.2    19  TYR19       0.2290
     38  O          8.0060  -41.6170   29.1880 O.2    19  TYR19      -0.2864
     39  CB         9.2760  -39.7830   26.7360 C.3    19  TYR19       0.0560
     40  CG         9.5750  -38.4290   26.1600 C.ar   19  TYR19      -0.0198
     41  CD1        8.7580  -37.8780   25.1710 C.ar   19  TYR19      -0.0009
     42  CD2       10.6480  -37.6690   26.6350 C.ar   19  TYR19      -0.0009
     43  CE1        9.0280  -36.6140   24.6510 C.ar   19  TYR19       0.0417
     44  CE2       10.9370  -36.4190   26.1090 C.ar   19  TYR19       0.0417
     45  CZ        10.1230  -35.8990   25.1250 C.ar   19  TYR19       0.1957
     46  OH        10.4040  -34.6630   24.6160 O.3    19  TYR19      -0.2866
     47  N         11.0920  -43.7290   23.1050 N.3    24  GLU24      -0.1245
     48  CA        10.3710  -42.5120   22.7790 C.3    24  GLU24       0.1567
     49  C         11.2160  -41.2860   23.1050 C.2    24  GLU24       0.2260
     50  O         11.3490  -40.3910   22.2780 O.2    24  GLU24      -0.2867
     51  CB         9.0240  -42.4730   23.4900 C.3    24  GLU24       0.0388
     52  CG         8.1640  -41.2730   23.1150 C.3    24  GLU24       0.1160
     53  CD         7.8130  -41.2060   21.6350 C.2    24  GLU24       0.3649
     54  OE1        7.9300  -42.2340   20.9240 O.co2  24  GLU24      -0.2457
     55  OE2        7.4180  -40.1140   21.1680 O.co2  24  GLU24      -0.2457
     56  N         12.7000  -38.6070   20.4420 N.3    28  ARG28      -0.1245
     57  CA        12.3280  -37.2140   20.6260 C.3    28  ARG28       0.1563
     58  C         13.5570  -36.3470   20.7560 C.2    28  ARG28       0.2260
     59  O         13.6000  -35.2410   20.2450 O.2    28  ARG28      -0.2867
     60  CB        11.4470  -37.0720   21.8580 C.3    28  ARG28       0.0307
     61  CG        10.1250  -37.7690   21.7240 C.3    28  ARG28       0.0489
     62  CD         9.1780  -36.9740   20.8700 C.3    28  ARG28       0.2205
     63  NE         8.1220  -37.8180   20.3250 N.pl3  28  ARG28      -0.0865
     64  CZ         7.4950  -37.5830   19.1770 C.cat  28  ARG28       0.5346
     65  NH1        7.8010  -36.5190   18.4390 N.pl3  28  ARG28       0.1354
     66  NH2        6.5650  -38.4150   18.7620 N.pl3  28  ARG28       0.1354
     67  N          7.7670  -25.7370   23.4630 N.3    59  GLN59      -0.1231
     68  CA         7.3700  -27.0850   23.8380 C.3    59  GLN59       0.1698
     69  C          7.1820  -28.0080   22.6310 C.2    59  GLN59       0.2592
     70  O          7.0960  -29.2260   22.7960 O.2    59  GLN59      -0.2718
     71  CB         6.1620  -27.0950   24.7940 C.3    59  GLN59       0.0381
     72  CG         4.7970  -27.0790   24.1330 C.3    59  GLN59       0.0905
     73  CD         4.2450  -25.6880   23.9860 C.2    59  GLN59       0.2608
     74  OE1        4.8500  -24.8310   23.3380 O.2    59  GLN59      -0.2717
     75  NE2        3.0840  -25.4470   24.5910 N.am   59  GLN59      -0.0878
     76  N          7.1900  -27.4500   21.4170 N.am   60  PHE60      -0.1976
     77  CA         7.1300  -28.2810   20.2060 C.3    60  PHE60       0.1639
     78  C          8.5060  -28.7370   19.7490 C.2    60  PHE60       0.2290
     79  O          8.6620  -29.2900   18.6500 O.2    60  PHE60      -0.2864
     80  CB         6.4280  -27.5390   19.0660 C.3    60  PHE60       0.0560
     81  CG         5.1120  -26.9570   19.4640 C.ar   60  PHE60      -0.0200
     82  CD1        4.1510  -27.7550   20.0740 C.ar   60  PHE60      -0.0042
     83  CD2        4.8310  -25.6130   19.2320 C.ar   60  PHE60      -0.0042
     84  CE1        2.9220  -27.2360   20.4360 C.ar   60  PHE60      -0.0003
     85  CE2        3.5930  -25.0810   19.5920 C.ar   60  PHE60      -0.0003
     86  CZ         2.6460  -25.8910   20.1960 C.ar   60  PHE60      -0.0000
     87  N         10.2280  -31.1480   20.3860 N.3    62  ASP62      -0.1225
     88  CA        10.4190  -32.5700   20.2040 C.3    62  ASP62       0.1805
     89  C          9.4720  -33.1280   19.1500 C.2    62  ASP62       0.2597
     90  O          9.2590  -34.3380   19.0640 O.2    62  ASP62      -0.2718
     91  CB        10.2340  -33.2920   21.5430 C.3    62  ASP62       0.1424
     92  CG         8.8180  -33.1760   22.0860 C.2    62  ASP62       0.3668
     93  OD1        7.9770  -32.4590   21.4950 O.co2  62  ASP62      -0.2456
     94  OD2        8.5440  -33.8200   23.1190 O.co2  62  ASP62      -0.2456
     95  N          8.8900  -32.2270   18.3640 N.am   63  MET63      -0.1979
     96  CA         7.9760  -32.6160   17.3120 C.3    63  MET63       0.1605
     97  C          8.5920  -32.3450   15.9710 C.2    63  MET63       0.2287
     98  O          9.2110  -31.3090   15.7480 O.2    63  MET63      -0.2864
     99  CB         6.6570  -31.8740   17.4210 C.3    63  MET63       0.0413
    100  CG         5.8960  -32.2060   18.6870 C.3    63  MET63       0.0598
    101  SD         4.4630  -31.1240   18.8090 S.3    63  MET63      -0.1393
    102  CE         3.5180  -31.5940   17.3650 C.3    63  MET63       0.0692
    103  N          4.7070  -34.1370   12.4790 N.3    67  GLU67      -0.1245
    104  CA         3.8790  -34.1450   13.6820 C.3    67  GLU67       0.1567
    105  C          3.2940  -32.7900   13.9560 C.2    67  GLU67       0.2260
    106  O          2.1450  -32.6940   14.3260 O.2    67  GLU67      -0.2867
    107  CB         4.6780  -34.5780   14.8850 C.3    67  GLU67       0.0388
    108  CG         5.0370  -36.0410   14.8050 C.3    67  GLU67       0.1160
    109  CD         6.1360  -36.4090   15.7420 C.2    67  GLU67       0.3649
    110  OE1        6.9370  -35.5230   16.1190 O.co2  67  GLU67      -0.2457
    111  OE2        6.1960  -37.5970   16.1020 O.co2  67  GLU67      -0.2457
    112  N         -0.4920  -31.9850   13.9600 N.3    71  TYR71      -0.1241
    113  CA        -1.0360  -31.2850   15.1110 C.3    71  TYR71       0.1605
    114  C         -1.9580  -30.1350   14.7120 C.2    71  TYR71       0.2264
    115  O         -3.1160  -30.0660   15.1570 O.2    71  TYR71      -0.2867
    116  CB         0.1010  -30.7680   15.9750 C.3    71  TYR71       0.0534
    117  CG        -0.3280  -29.9440   17.1540 C.ar   71  TYR71      -0.0201
    118  CD1       -1.3510  -30.3780   18.0070 C.ar   71  TYR71      -0.0009
    119  CD2        0.3130  -28.7420   17.4430 C.ar   71  TYR71      -0.0009
    120  CE1       -1.7250  -29.6230   19.1010 C.ar   71  TYR71       0.0417
    121  CE2       -0.0490  -27.9950   18.5300 C.ar   71  TYR71       0.0417
    122  CZ        -1.0610  -28.4300   19.3510 C.ar   71  TYR71       0.1957
    123  OH        -1.3860  -27.6850   20.4410 O.3    71  TYR71      -0.2866
    124  N         -4.9730  -31.4010   12.8340 N.3    74  ARG74      -0.1245
    125  CA        -5.8710  -32.2670   13.5530 C.3    74  ARG74       0.1563
    126  C         -7.1910  -31.5690   13.8470 C.2    74  ARG74       0.2260
    127  O         -8.2370  -32.2150   13.9270 O.2    74  ARG74      -0.2867
    128  CB        -5.2160  -32.7370   14.8440 C.3    74  ARG74       0.0307
    129  CG        -6.0240  -33.7650   15.5460 C.3    74  ARG74       0.0489
    130  CD        -5.5080  -34.0000   16.9140 C.3    74  ARG74       0.2205
    131  NE        -6.4680  -34.8020   17.6510 N.pl3  74  ARG74      -0.0865
    132  CZ        -6.2800  -35.2070   18.8980 C.cat  74  ARG74       0.5346
    133  NH1       -5.1660  -34.8890   19.5300 N.pl3  74  ARG74       0.1354
    134  NH2       -7.2100  -35.9200   19.5100 N.pl3  74  ARG74       0.1354
    135  N         -3.2970  -22.9540   26.3420 N.3   107  ASP107     -0.1239
    136  CA        -2.5770  -23.9500   25.6200 C.3   107  ASP107      0.1674
    137  C         -3.5290  -25.0930   25.3360 C.2   107  ASP107      0.2266
    138  O         -3.9710  -25.7680   26.2420 O.2   107  ASP107     -0.2867
    139  CB        -1.3810  -24.4260   26.4440 C.3   107  ASP107      0.1410
    140  CG        -0.4420  -25.2940   25.6440 C.2   107  ASP107      0.3668
    141  OD1       -0.8800  -25.9400   24.6590 O.co2 107  ASP107     -0.2456
    142  OD2        0.7530  -25.3100   25.9970 O.co2 107  ASP107     -0.2456
    143  N         -2.8360  -27.7720   24.1180 N.3   109  GLY109     -0.1210
    144  CA        -2.1310  -29.0160   24.3590 C.3   109  GLY109      0.1956
    145  C         -2.2510  -29.9310   23.1620 C.2   109  GLY109      0.2611
    146  O         -2.3350  -29.4590   22.0130 O.2   109  GLY109     -0.2717
    147  N         -2.2800  -31.2330   23.4360 N.am  110  GLN110     -0.1979
    148  CA        -2.3210  -32.2640   22.3980 C.3   110  GLN110      0.1601
    149  C         -3.7660  -32.6040   22.1160 C.2   110  GLN110      0.2287
    150  O         -4.2560  -33.6920   22.4490 O.2   110  GLN110     -0.2864
    151  CB        -1.6280  -33.5350   22.8480 C.3   110  GLN110      0.0394
    152  CG        -0.3100  -33.3750   23.5670 C.3   110  GLN110      0.0908
    153  CD         0.3560  -34.7300   23.8310 C.2   110  GLN110      0.2608
    154  OE1        1.5640  -34.8700   23.6710 O.2   110  GLN110     -0.2717
    155  NE2       -0.4410  -35.7350   24.2130 N.am  110  GLN110     -0.0878
@<TRIPOS>BOND
     1   103   104    1
     2   124   125    1
     3   125   126    1
     4   125   128    1
     5   104   105    1
     6   104   107    1
     7   126   127    2
     8   105   106    2
     9   112   113    1
    10   114   113    1
    11   114   115    2
    12   108   107    1
    13   108   109    1
    14   128   129    1
    15   113   116    1
    16   129   130    1
    17   109   111   ar
    18   109   110   ar
    19    98    97    2
    20    97    96    1
    21   116   117    1
    22   130   131    1
    23   117   119   ar
    24   117   118   ar
    25    96    99    1
    26    96    95    1
    27   102   101    1
    28    99   100    1
    29   119   121   ar
    30   131   132    2
    31   118   120   ar
    32    95    89   am
    33    65    64    1
    34   121   122   ar
    35    79    78    2
    36   100   101    1
    37    66    64    1
    38   132   134    1
    39   132   133    1
    40    90    89    2
    41    80    81    1
    42    80    77    1
    43   120   122   ar
    44    89    88    1
    45    64    63    2
    46    83    81   ar
    47    83    85   ar
    48   122   123    1
    49    81    82   ar
    50    85    86   ar
    51    78    77    1
    52    82    84   ar
    53    86    84   ar
    54    88    87    1
    55    88    91    1
    56    77    76    1
    57    59    58    2
    58    63    62    1
    59    56    57    1
    60    57    58    1
    61    57    60    1
    62    62    61    1
    63    54    53   ar
    64    55    53   ar
    65    76    69   am
    66    93    92   ar
    67    91    92    1
    68    53    52    1
    69    61    60    1
    70   146   145    2
    71    92    94   ar
    72   149   148    1
    73   149   150    2
    74    50    49    2
    75   148   151    1
    76   148   147    1
    77    69    70    2
    78    69    68    1
    79    48    47    1
    80    48    49    1
    81    48    51    1
    82   151   152    1
    83    52    51    1
    84   145   147   am
    85   145   144    1
    86    74    73    2
    87    67    68    1
    88   152   153    1
    89   154   153    2
    90   153   155   am
    91    68    71    1
    92    73    72    1
    93    73    75   am
    94   143   144    1
    95    72    71    1
    96    46    45    1
    97    43    45   ar
    98    43    41   ar
    99   141   140   ar
   100    45    44   ar
   101    41    40   ar
   102   137   136    1
   103   137   138    2
   104    27    28    1
   105    27    26    1
   106   136   135    1
   107   136   139    1
   108   140   142   ar
   109   140   139    1
   110    44    42   ar
   111    10     8   ar
   112    10     9   ar
   113    40    42   ar
   114    40    39    1
   115     8     6   ar
   116     9     7   ar
   117    39    36    1
   118    26    25    1
   119     6     7   ar
   120     6     5    1
   121    25    24    1
   122     5     2    1
   123    36    37    1
   124    36    35    1
   125    37    38    2
   126    24    21    1
   127    35    31   am
   128     2     1    1
   129     2     3    1
   130     4     3    2
   131    21    20    1
   132    21    22    1
   133    32    31    2
   134    31    30    1
   135     3    11   am
   136    29    22   am
   137    29    30    1
   138    20    13   am
   139    22    23    2
   140    30    33    1
   141    11    12    1
   142    13    14    2
   143    13    12    1
   144    12    15    1
   145    18    19    1
   146    18    17    1
   147    33    34    1
   148    15    16    1
   149    17    16    1
