@<TRIPOS>MOLECULE
tmp/3qt4A03.pdb
 82 79 0 0 0
SMALL
GASTEIGER

@<TRIPOS>ATOM
      1  N         20.7420  -28.2020   26.2740 N.3     7  GLN7       -0.1245
      2  CA        19.5330  -27.7460   25.6050 C.3     7  GLN7        0.1566
      3  C         18.4170  -28.7760   25.7690 C.2     7  GLN7        0.2260
      4  O         17.2840  -28.4150   26.0670 O.2     7  GLN7       -0.2867
      5  CB        19.7960  -27.4810   24.1280 C.3     7  GLN7        0.0367
      6  CG        20.6020  -26.2100   23.8720 C.3     7  GLN7        0.0905
      7  CD        21.0980  -26.1300   22.4480 C.2     7  GLN7        0.2608
      8  OE1       21.1890  -27.1430   21.7590 O.2     7  GLN7       -0.2717
      9  NE2       21.4350  -24.9280   21.9990 N.am    7  GLN7       -0.0878
     10  N         17.2420  -28.8610   29.3970 N.3    10  GLN10      -0.1231
     11  CA        16.4060  -27.6830   29.6400 C.3    10  GLN10       0.1698
     12  C         15.0500  -27.8400   28.9700 C.2    10  GLN10       0.2592
     13  O         14.0140  -27.4990   29.5460 O.2    10  GLN10      -0.2718
     14  CB        17.0950  -26.4090   29.1350 C.3    10  GLN10       0.0381
     15  CG        18.4390  -26.1500   29.8160 C.3    10  GLN10       0.0905
     16  CD        19.1440  -24.8960   29.3190 C.2    10  GLN10       0.2608
     17  OE1       18.7020  -24.2480   28.3690 O.2    10  GLN10      -0.2717
     18  NE2       20.2500  -24.5490   29.9710 N.am   10  GLN10      -0.0878
     19  N         15.0610  -28.3670   27.7500 N.am   11  PHE11      -0.1976
     20  CA        13.8250  -28.5880   27.0410 C.3    11  PHE11       0.1639
     21  C         12.8830  -29.5010   27.8300 C.2    11  PHE11       0.2290
     22  O         11.7330  -29.1540   28.0530 O.2    11  PHE11      -0.2864
     23  CB        14.0670  -29.1700   25.6590 C.3    11  PHE11       0.0560
     24  CG        12.8170  -29.6370   25.0160 C.ar   11  PHE11      -0.0200
     25  CD1       11.9800  -28.7320   24.3610 C.ar   11  PHE11      -0.0042
     26  CD2       12.4350  -30.9680   25.1110 C.ar   11  PHE11      -0.0042
     27  CE1       10.8040  -29.1590   23.8000 C.ar   11  PHE11      -0.0003
     28  CE2       11.2640  -31.4040   24.5400 C.ar   11  PHE11      -0.0003
     29  CZ        10.4340  -30.4830   23.8860 C.ar   11  PHE11      -0.0000
     30  N         11.8410  -27.7340   31.3750 N.3    14  THR14      -0.1203
     31  CA        10.9630  -26.6070   31.1030 C.3    14  THR14       0.1994
     32  C          9.6100  -27.0720   30.6090 C.2    14  THR14       0.2617
     33  O          8.5820  -26.5300   30.9940 O.2    14  THR14      -0.2717
     34  CB        11.5810  -25.7130   30.0400 C.3    14  THR14       0.1784
     35  OG1       12.8580  -25.2770   30.5110 O.3    14  THR14      -0.2211
     36  CG2       10.6890  -24.4960   29.7330 C.3    14  THR14       0.0376
     37  N          9.6080  -28.0880   29.7580 N.am   15  HIS15      -0.1975
     38  CA         8.3460  -28.5090   29.1770 C.3    15  HIS15       0.1656
     39  C          7.7720  -29.7490   29.7880 C.2    15  HIS15       0.2291
     40  O          6.9340  -30.4090   29.1790 O.2    15  HIS15      -0.2864
     41  CB         8.4830  -28.6020   27.6850 C.3    15  HIS15       0.0771
     42  CG         8.9130  -27.3160   27.0860 C.ar   15  HIS15       0.0820
     43  ND1        8.1310  -26.1810   27.1490 N.ar   15  HIS15      -0.2267
     44  CD2       10.0610  -26.9550   26.4730 C.ar   15  HIS15       0.1154
     45  CE1        8.7650  -25.1850   26.5620 C.ar   15  HIS15       0.1986
     46  NE2        9.9390  -25.6250   26.1480 N.ar   15  HIS15      -0.2212
     47  N         14.3410  -33.2450   18.5030 N.3    32  PHE32      -0.1241
     48  CA        14.7340  -32.0080   19.1490 C.3    32  PHE32       0.1605
     49  C         16.0320  -31.4850   18.5700 C.2    32  PHE32       0.2264
     50  O         16.1470  -30.3010   18.2810 O.2    32  PHE32      -0.2867
     51  CB        14.8590  -32.2440   20.6570 C.3    32  PHE32       0.0534
     52  CG        15.4660  -31.0980   21.4090 C.ar   32  PHE32      -0.0203
     53  CD1       14.6760  -30.0500   21.8640 C.ar   32  PHE32      -0.0042
     54  CD2       16.8200  -31.0920   21.7170 C.ar   32  PHE32      -0.0042
     55  CE1       15.2320  -29.0020   22.5700 C.ar   32  PHE32      -0.0003
     56  CE2       17.3820  -30.0380   22.4330 C.ar   32  PHE32      -0.0003
     57  CZ        16.5950  -28.9920   22.8530 C.ar   32  PHE32      -0.0000
     58  N         12.5970  -19.8160   18.0680 N.3    56  ALA56      -0.1231
     59  CA        13.1550  -20.2360   19.3320 C.3    56  ALA56       0.1694
     60  C         12.5050  -21.5360   19.7250 C.2    56  ALA56       0.2592
     61  O         11.3830  -21.8410   19.3100 O.2    56  ALA56      -0.2718
     62  CB        12.9450  -19.1850   20.4160 C.3    56  ALA56       0.0304
     63  N         13.2300  -22.2860   20.5420 N.am   57  MET57      -0.1965
     64  CA        12.7440  -23.5300   21.0810 C.3    57  MET57       0.1736
     65  C         11.4860  -23.2680   21.8930 C.2    57  MET57       0.2616
     66  O         11.3220  -22.2210   22.5090 O.2    57  MET57      -0.2715
     67  CB        13.8350  -24.1600   21.9550 C.3    57  MET57       0.0427
     68  CG        13.4920  -25.5530   22.5130 C.3    57  MET57       0.0599
     69  SD        12.9320  -26.6490   21.2210 S.3    57  MET57      -0.1393
     70  CE        14.3240  -26.7420   20.1190 C.3    57  MET57       0.0692
     71  N         10.5770  -24.2170   21.8720 N.am   58  ASN58      -0.1972
     72  CA         9.4080  -24.1150   22.7000 C.3    58  ASN58       0.1688
     73  C          8.9750  -25.5450   22.9490 C.2    58  ASN58       0.2292
     74  O          9.7260  -26.4740   22.6300 O.2    58  ASN58      -0.2864
     75  CB         8.3250  -23.2840   21.9870 C.3    58  ASN58       0.1181
     76  CG         8.0210  -23.8020   20.6180 C.2    58  ASN58       0.2629
     77  OD1        7.9740  -25.0140   20.4100 O.2    58  ASN58      -0.2716
     78  ND2        7.7890  -22.8990   19.6720 N.am   58  ASN58      -0.0877
     79  N          4.7720  -19.8880   26.2280 N.3   276  GLY276     -0.1225
     80  CA         6.1470  -20.2320   25.8470 C.3   276  GLY276      0.1811
     81  C          6.3430  -20.2490   24.3370 C.2   276  GLY276      0.2280
     82  O          7.4570  -20.4550   23.8390 O.2   276  GLY276     -0.2866
@<TRIPOS>BOND
     1    58    59    1
     2    50    49    2
     3    47    48    1
     4    49    48    1
     5    48    51    1
     6    61    60    2
     7    59    60    1
     8    59    62    1
     9    78    76   am
    10    60    63   am
    11    70    69    1
    12    77    76    2
    13    63    64    1
    14    76    75    1
    15    51    52    1
    16    64    65    1
    17    64    67    1
    18    69    68    1
    19    52    54   ar
    20    52    53   ar
    21    54    56   ar
    22     8     7    2
    23    53    55   ar
    24    71    65   am
    25    71    72    1
    26    65    66    2
    27    67    68    1
    28    75    72    1
    29     9     7   am
    30    56    57   ar
    31     7     6    1
    32    55    57   ar
    33    74    73    2
    34    72    73    1
    35    27    29   ar
    36    27    25   ar
    37    82    81    2
    38     6     5    1
    39    29    28   ar
    40     5     2    1
    41    81    80    1
    42    25    24   ar
    43    28    26   ar
    44    24    26   ar
    45    24    23    1
    46     2     3    1
    47     2     1    1
    48    23    20    1
    49     3     4    2
    50    80    79    1
    51    46    44   ar
    52    46    45   ar
    53    44    42   ar
    54    45    43   ar
    55    20    19    1
    56    20    21    1
    57    42    43   ar
    58    42    41    1
    59    41    38    1
    60    19    12   am
    61    21    22    2
    62    17    16    2
    63    12    13    2
    64    12    11    1
    65    14    11    1
    66    14    15    1
    67    38    37    1
    68    38    39    1
    69    40    39    2
    70    16    15    1
    71    16    18   am
    72    10    11    1
    73    36    34    1
    74    37    32   am
    75    34    35    1
    76    34    31    1
    77    32    33    2
    78    32    31    1
    79    31    30    1
