@<TRIPOS>MOLECULE
tmp/3qt6B00.pdb
 161 152 0 0 0
SMALL
GASTEIGER

@<TRIPOS>ATOM
      1  N        -67.0980  -28.3490  -24.0240 N.3    12  ASN12      -0.1225
      2  CA       -66.7090  -27.3620  -23.0320 C.3    12  ASN12       0.1785
      3  C        -65.1910  -27.3380  -22.9590 C.2    12  ASN12       0.2597
      4  O        -64.5240  -28.3330  -23.2760 O.2    12  ASN12      -0.2718
      5  CB       -67.3020  -27.7050  -21.6540 C.3    12  ASN12       0.1169
      6  CG       -66.6040  -28.8910  -21.0110 C.2    12  ASN12       0.2627
      7  OD1      -65.5540  -28.7370  -20.3990 O.2    12  ASN12      -0.2716
      8  ND2      -67.1640  -30.0880  -21.1770 N.am   12  ASN12      -0.0877
      9  N        -64.6460  -26.2000  -22.5500 N.am   13  ILE13      -0.1966
     10  CA       -63.2030  -26.0660  -22.3630 C.3    13  ILE13       0.1727
     11  C        -62.8640  -25.8630  -20.8820 C.2    13  ILE13       0.2616
     12  O        -63.3860  -24.9590  -20.2440 O.2    13  ILE13      -0.2715
     13  CB       -62.6520  -24.8840  -23.1530 C.3    13  ILE13       0.0290
     14  CG1      -63.0870  -24.9650  -24.6280 C.3    13  ILE13       0.0022
     15  CG2      -61.1430  -24.8350  -23.0210 C.3    13  ILE13       0.0023
     16  CD1      -62.5710  -26.2030  -25.3450 C.3    13  ILE13       0.0001
     17  N        -61.9880  -26.7020  -20.3440 N.am   14  ALA14      -0.1977
     18  CA       -61.5550  -26.5640  -18.9480 C.3    14  ALA14       0.1597
     19  C        -60.6490  -25.3540  -18.7860 C.2    14  ALA14       0.2287
     20  O        -59.6220  -25.2520  -19.4600 O.2    14  ALA14      -0.2864
     21  CB       -60.8350  -27.8230  -18.4800 C.3    14  ALA14       0.0319
     22  N        -57.9570  -27.0560  -15.1470 N.3    17  LYS17      -0.1231
     23  CA       -57.8540  -28.3340  -15.8530 C.3    17  LYS17       0.1693
     24  C        -58.1800  -29.5840  -15.0360 C.2    17  LYS17       0.2592
     25  O        -57.7920  -29.7090  -13.8810 O.2    17  LYS17      -0.2718
     26  CB       -56.4520  -28.5060  -16.4410 C.3    17  LYS17       0.0285
     27  CG       -56.0270  -27.4110  -17.4050 C.3    17  LYS17       0.0035
     28  CD       -56.8870  -27.4440  -18.6810 C.3    17  LYS17       0.0206
     29  CE       -56.4860  -26.3350  -19.6370 C.3    17  LYS17       0.1093
     30  NZ       -57.4240  -26.1810  -20.7930 N.3    17  LYS17      -0.1314
     31  N        -58.8770  -30.5110  -15.6910 N.am   18  TYR18      -0.1962
     32  CA       -58.9780  -31.9040  -15.2790 C.3    18  TYR18       0.1771
     33  C        -57.7770  -32.6340  -15.8570 C.2    18  TYR18       0.2619
     34  O        -57.6030  -32.6860  -17.0700 O.2    18  TYR18      -0.2715
     35  CB       -60.2890  -32.4940  -15.8270 C.3    18  TYR18       0.0574
     36  CG       -60.3180  -33.9980  -16.0210 C.ar   18  TYR18      -0.0198
     37  CD1      -59.8850  -34.8670  -15.0240 C.ar   18  TYR18      -0.0009
     38  CD2      -60.8090  -34.5520  -17.1970 C.ar   18  TYR18      -0.0009
     39  CE1      -59.9290  -36.2420  -15.2070 C.ar   18  TYR18       0.0417
     40  CE2      -60.8600  -35.9320  -17.3860 C.ar   18  TYR18       0.0417
     41  CZ       -60.4250  -36.7700  -16.3850 C.ar   18  TYR18       0.1957
     42  OH       -60.4810  -38.1370  -16.5790 O.3    18  TYR18      -0.2866
     43  N        -56.9210  -33.1740  -14.9970 N.am   19  TRP19      -0.1974
     44  CA       -55.7230  -33.8440  -15.4720 C.3    19  TRP19       0.1640
     45  C        -55.2500  -34.8820  -14.4590 C.2    19  TRP19       0.2290
     46  O        -54.6140  -34.5380  -13.4630 O.2    19  TRP19      -0.2864
     47  CB       -54.6150  -32.8110  -15.7670 C.3    19  TRP19       0.0576
     48  CG       -53.5800  -33.2880  -16.7470 C.ar   19  TRP19       0.0006
     49  CD1      -52.2250  -33.4120  -16.5330 C.ar   19  TRP19       0.0946
     50  CD2      -53.8080  -33.7230  -18.1000 C.ar   19  TRP19       0.0152
     51  NE1      -51.6120  -33.8890  -17.6690 N.ar   19  TRP19      -0.2442
     52  CE2      -52.5610  -34.0960  -18.6380 C.ar   19  TRP19       0.0810
     53  CE3      -54.9460  -33.8380  -18.9010 C.ar   19  TRP19       0.0012
     54  CZ2      -52.4220  -34.5650  -19.9520 C.ar   19  TRP19       0.0191
     55  CZ3      -54.8050  -34.2990  -20.1980 C.ar   19  TRP19       0.0001
     56  CH2      -53.5560  -34.6610  -20.7090 C.ar   19  TRP19       0.0015
     57  N        -56.5080  -39.1120  -13.0140 N.3    21  LYS21      -0.1245
     58  CA       -57.6140  -39.8110  -12.3480 C.3    21  LYS21       0.1561
     59  C        -57.1880  -40.4280  -11.0110 C.2    21  LYS21       0.2260
     60  O        -56.1110  -41.0160  -10.9070 O.2    21  LYS21      -0.2867
     61  CB       -58.1200  -40.9470  -13.2410 C.3    21  LYS21       0.0271
     62  CG       -58.8680  -40.5140  -14.5050 C.3    21  LYS21       0.0035
     63  CD       -59.0950  -41.7100  -15.4280 C.3    21  LYS21       0.0206
     64  CE       -59.8460  -41.3180  -16.6900 C.3    21  LYS21       0.1093
     65  NZ       -59.0860  -40.3250  -17.4910 N.3    21  LYS21      -0.1314
     66  N        -63.8390  -43.2840  -13.4510 N.3    27  ILE27      -0.1245
     67  CA       -63.4670  -41.9220  -13.8470 C.3    27  ILE27       0.1561
     68  C        -63.7290  -40.9040  -12.7370 C.2    27  ILE27       0.2260
     69  O        -64.6040  -40.0450  -12.8240 O.2    27  ILE27      -0.2867
     70  CB       -64.1260  -41.5220  -15.1800 C.3    27  ILE27       0.0252
     71  CG1      -63.8370  -42.6060  -16.2100 C.3    27  ILE27       0.0019
     72  CG2      -63.5930  -40.1860  -15.6620 C.3    27  ILE27       0.0019
     73  CD1      -64.2650  -42.2560  -17.6190 C.3    27  ILE27       0.0001
     74  N        -65.3440  -49.0950  -26.7190 N.3    72  LYS72      -0.1245
     75  CA       -65.6640  -48.1490  -25.6590 C.3    72  LYS72       0.1561
     76  C        -67.1700  -47.9000  -25.5590 C.2    72  LYS72       0.2260
     77  O        -67.7090  -47.7720  -24.4620 O.2    72  LYS72      -0.2867
     78  CB       -64.9180  -46.8300  -25.8720 C.3    72  LYS72       0.0271
     79  CG       -65.0370  -45.8520  -24.7080 C.3    72  LYS72       0.0035
     80  CD       -64.3170  -44.5380  -25.0130 C.3    72  LYS72       0.0206
     81  CE       -64.5450  -43.5120  -23.9100 C.3    72  LYS72       0.1093
     82  NZ       -63.9580  -42.1780  -24.2620 N.3    72  LYS72      -0.1314
     83  N        -64.8830  -35.9060  -26.8440 N.3   107  SER107     -0.1217
     84  CA       -65.5270  -36.8970  -26.0320 C.3   107  SER107      0.1889
     85  C        -66.5660  -36.2180  -25.1320 C.2   107  SER107      0.2288
     86  O        -67.6080  -36.8000  -24.8520 O.2   107  SER107     -0.2866
     87  CB       -64.5050  -37.6890  -25.2290 C.3   107  SER107      0.2089
     88  OG       -63.6540  -36.8270  -24.4930 O.3   107  SER107     -0.2183
     89  N        -66.8050  -40.2120  -20.3030 N.3   139  SER139     -0.1202
     90  CA       -65.6450  -39.3350  -20.4120 C.3   139  SER139      0.2020
     91  C        -65.7640  -38.3350  -19.2800 C.2   139  SER139      0.2619
     92  O        -66.8310  -37.7360  -19.0750 O.2   139  SER139     -0.2717
     93  CB       -65.6690  -38.5840  -21.7350 C.3   139  SER139      0.2103
     94  OG       -64.4210  -37.9670  -21.9740 O.3   139  SER139     -0.2182
     95  N        -64.6840  -38.1510  -18.5300 N.am  140  GLY140     -0.1942
     96  CA       -64.7380  -37.2380  -17.4120 C.3   140  GLY140      0.2014
     97  C        -65.2290  -35.8620  -17.7900 C.2   140  GLY140      0.2639
     98  O        -66.0690  -35.2840  -17.0900 O.2   140  GLY140     -0.2714
     99  N        -64.7160  -35.3360  -18.9010 N.am  141  SER141     -0.1949
    100  CA       -65.1120  -34.0030  -19.3530 C.3   141  SER141      0.1924
    101  C        -66.5950  -33.9130  -19.7220 C.2   141  SER141      0.2314
    102  O        -67.1820  -32.8300  -19.6760 O.2   141  SER141     -0.2863
    103  CB       -64.2110  -33.4990  -20.4980 C.3   141  SER141      0.2116
    104  OG       -64.2900  -34.3050  -21.6640 O.3   141  SER141     -0.2180
    105  N        -69.2920  -32.3030  -17.4450 N.3   144  ARG144     -0.1245
    106  CA       -69.5050  -30.8600  -17.3840 C.3   144  ARG144      0.1563
    107  C        -70.4240  -30.3340  -18.4790 C.2   144  ARG144      0.2260
    108  O        -71.0560  -29.2940  -18.2980 O.2   144  ARG144     -0.2867
    109  CB       -68.1760  -30.0980  -17.3900 C.3   144  ARG144      0.0307
    110  CG       -67.2830  -30.4020  -16.1940 C.3   144  ARG144      0.0489
    111  CD       -65.9500  -29.6150  -16.2500 C.3   144  ARG144      0.2205
    112  NE       -65.3440  -29.6950  -17.5800 N.pl3 144  ARG144     -0.0865
    113  CZ       -64.2120  -30.3320  -17.8620 C.cat 144  ARG144      0.5346
    114  NH1      -63.5260  -30.9300  -16.9050 N.pl3 144  ARG144      0.1354
    115  NH2      -63.7580  -30.3620  -19.1130 N.pl3 144  ARG144      0.1354
    116  N        -55.7980  -38.0990  -24.7300 N.3   186  SER186     -0.1202
    117  CA       -55.6250  -37.4600  -23.4300 C.3   186  SER186      0.2020
    118  C        -55.6180  -38.4670  -22.2790 C.2   186  SER186      0.2618
    119  O        -54.7680  -38.3870  -21.4070 O.2   186  SER186     -0.2717
    120  CB       -56.6960  -36.3910  -23.1980 C.3   186  SER186      0.2103
    121  OG       -57.9900  -36.8920  -23.4780 O.3   186  SER186     -0.2182
    122  N        -56.5650  -39.4090  -22.2880 N.am  187  ARG187     -0.1979
    123  CA       -56.6340  -40.4630  -21.2710 C.3   187  ARG187      0.1597
    124  C        -55.2650  -41.1510  -21.0840 C.2   187  ARG187      0.2287
    125  O        -54.9070  -41.5610  -19.9760 O.2   187  ARG187     -0.2864
    126  CB       -57.7170  -41.4940  -21.6460 C.3   187  ARG187      0.0334
    127  CG       -57.9260  -42.6240  -20.6210 C.3   187  ARG187      0.0492
    128  CD       -59.1400  -43.5120  -20.9570 C.3   187  ARG187      0.2205
    129  NE       -60.4180  -42.8190  -20.7610 N.pl3 187  ARG187     -0.0865
    130  CZ       -61.6110  -43.3420  -21.0420 C.cat 187  ARG187      0.5346
    131  NH1      -61.6980  -44.5720  -21.5340 N.pl3 187  ARG187      0.1354
    132  NH2      -62.7180  -42.6340  -20.8370 N.pl3 187  ARG187      0.1354
    133  N        -52.5650  -38.1600  -19.8560 N.3   190  MET190     -0.1196
    134  CA       -52.8430  -37.8290  -18.4550 C.3   190  MET190      0.1786
    135  C        -52.5310  -39.0100  -17.5260 C.2   190  MET190      0.2306
    136  O        -52.1570  -38.8290  -16.3640 O.2   190  MET190     -0.2863
    137  CB       -54.2850  -37.3040  -18.2620 C.2   190  MET190      0.0070
    138  CG       -55.3340  -38.3250  -17.8080 C.2   190  MET190      0.0282
    139  SD       -56.9460  -37.6390  -17.3060 S.3   190  MET190     -0.1125
    140  CE       -57.4060  -36.6890  -18.7580 C.3   190  MET190      0.0742
    141  N        -50.3680  -27.3610  -16.0390 N.3   237  MET237     -0.1245
    142  CA       -50.7980  -28.6550  -16.5430 C.3   237  MET237      0.1570
    143  C        -49.8160  -29.1790  -17.5830 C.2   237  MET237      0.2261
    144  O        -49.4170  -30.3410  -17.5350 O.2   237  MET237     -0.2867
    145  CB       -52.1980  -28.5310  -17.1510 C.3   237  MET237      0.0387
    146  CG       -52.9000  -29.8530  -17.4050 C.3   237  MET237      0.0595
    147  SD       -53.7960  -29.8680  -18.9800 S.3   237  MET237     -0.1393
    148  CE       -52.5130  -30.4980  -20.0740 C.3   237  MET237      0.0692
    149  N        -55.3700  -27.5580  -24.5230 N.3   277  ASP277     -0.1225
    150  CA       -55.7920  -28.8690  -24.0320 C.3   277  ASP277      0.1805
    151  C        -54.8150  -29.9330  -24.5130 C.2   277  ASP277      0.2597
    152  O        -53.6140  -29.6790  -24.5750 O.2   277  ASP277     -0.2718
    153  CB       -57.2290  -29.1790  -24.4740 C.3   277  ASP277      0.1424
    154  CG       -58.2490  -28.2900  -23.7940 C.2   277  ASP277      0.3668
    155  OD1      -58.1190  -28.0460  -22.5690 O.co2 277  ASP277     -0.2456
    156  OD2      -59.1750  -27.8180  -24.4810 O.co2 277  ASP277     -0.2456
    157  N        -55.3200  -31.1150  -24.8600 N.am  278  ALA278     -0.1979
    158  CA       -54.4480  -32.2120  -25.2670 C.3   278  ALA278      0.1597
    159  C        -54.0560  -32.1150  -26.7450 C.2   278  ALA278      0.2287
    160  O        -54.2000  -33.0710  -27.5000 O.2   278  ALA278     -0.2864
    161  CB       -55.1030  -33.5720  -24.9600 C.3   278  ALA278      0.0319
@<TRIPOS>BOND
     1   160   159    2
     2    83    84    1
     3   159   158    1
     4    74    75    1
     5    84    87    1
     6    84    85    1
     7    78    75    1
     8    78    79    1
     9    75    76    1
    10    76    77    2
    11    16    14    1
    12   158   161    1
    13   158   157    1
    14    87    88    1
    15    85    86    2
    16    80    79    1
    17    80    81    1
    18   157   151   am
    19   116   117    1
    20    14    13    1
    21   152   151    2
    22   149   150    1
    23   151   150    1
    24   156   154   ar
    25   153   150    1
    26   153   154    1
    27    82    81    1
    28     1     2    1
    29   154   155   ar
    30   121   120    1
    31   117   120    1
    32   117   118    1
    33     4     3    2
    34    13    15    1
    35    13    10    1
    36     2     3    1
    37     2     5    1
    38     3     9   am
    39     9    10    1
    40    10    11    1
    41   122   118   am
    42   122   123    1
    43   118   119    2
    44    94    93    1
    45    93    90    1
    46   104   103    1
    47     5     6    1
    48   126   123    1
    49   126   127    1
    50   131   130    1
    51   123   124    1
    52     8     6   am
    53   124   125    2
    54   130   132    1
    55   130   129    2
    56     6     7    2
    57   128   129    1
    58   128   127    1
    59    11    17   am
    60    11    12    2
    61    30    29    1
    62    56    55   ar
    63    56    54   ar
    64   103   100    1
    65    90    89    1
    66    90    91    1
    67    17    18    1
    68    55    53   ar
    69   148   147    1
    70    54    52   ar
    71   133   134    1
    72   101   102    2
    73   101   100    1
    74    29    28    1
    75    20    19    2
    76   100    99    1
    77    91    92    2
    78    91    95   am
    79   115   113    1
    80   147   146    1
    81    18    19    1
    82    18    21    1
    83    99    97   am
    84    53    50   ar
    85   140   139    1
    86    28    27    1
    87    52    50   ar
    88    52    51   ar
    89    95    96    1
    90   107   108    2
    91   107   106    1
    92   134   137    1
    93   134   135    1
    94   137   138    2
    95    50    48   ar
    96   113   112    2
    97   113   114    1
    98   138   139    1
    99    97    96    1
   100    97    98    2
   101    51    49   ar
   102    73    71    1
   103   143   144    2
   104   143   142    1
   105   112   111    1
   106   135   136    2
   107    65    64    1
   108   105   106    1
   109    27    26    1
   110   146   145    1
   111   109   106    1
   112   109   110    1
   113    40    38   ar
   114    40    41   ar
   115    38    36   ar
   116   145   142    1
   117    34    33    2
   118    48    49   ar
   119    48    47    1
   120    64    63    1
   121    42    41    1
   122   142   141    1
   123    26    23    1
   124    41    39   ar
   125   111   110    1
   126    71    70    1
   127    36    35    1
   128    36    37   ar
   129    33    32    1
   130    33    43   am
   131    23    22    1
   132    23    24    1
   133    35    32    1
   134    47    44    1
   135    31    32    1
   136    31    24   am
   137    72    70    1
   138    44    43    1
   139    44    45    1
   140    63    62    1
   141    39    37   ar
   142    70    67    1
   143    24    25    2
   144    62    61    1
   145    45    46    2
   146    67    66    1
   147    67    68    1
   148    61    58    1
   149    57    58    1
   150    69    68    2
   151    58    59    1
   152    59    60    2
