@<TRIPOS>MOLECULE
tmp/3qtbA00.pdb
 153 148 0 0 0
SMALL
GASTEIGER

@<TRIPOS>ATOM
      1  N         12.5510   21.2100   -9.2190 N.3     7  ALA7       -0.1231
      2  CA        12.5320   19.7450   -9.0780 C.3     7  ALA7        0.1694
      3  C         13.0700   19.3740   -7.7020 C.2     7  ALA7        0.2592
      4  O         14.1750   19.7710   -7.3490 O.2     7  ALA7       -0.2718
      5  CB        13.3580   19.0980  -10.1510 C.3     7  ALA7        0.0304
      6  N         12.2820   18.6260   -6.9340 N.am    8  VAL8       -0.1966
      7  CA        12.6550   18.2310   -5.5820 C.3     8  VAL8        0.1727
      8  C         12.6350   16.7040   -5.4900 C.2     8  VAL8        0.2616
      9  O         11.7500   16.0580   -6.0350 O.2     8  VAL8       -0.2715
     10  CB        11.6940   18.8340   -4.5370 C.3     8  VAL8        0.0290
     11  CG1       11.7700   20.3430   -4.5830 C.3     8  VAL8        0.0023
     12  CG2       10.2480   18.3520   -4.7990 C.3     8  VAL8        0.0023
     13  N         13.6230   16.1490   -4.8170 N.am    9  ASP9       -0.1971
     14  CA        13.7300   14.6970   -4.6120 C.3     9  ASP9        0.1709
     15  C         13.3030   14.3310   -3.1930 C.2     9  ASP9        0.2293
     16  O         12.5050   13.4180   -2.9820 O.2     9  ASP9       -0.2864
     17  CB        15.1810   14.2500   -4.8410 C.3     9  ASP9        0.1436
     18  CG        15.3070   12.7590   -5.0480 C.2     9  ASP9        0.3671
     19  OD1       14.3040   12.1230   -5.4490 O.co2   9  ASP9       -0.2456
     20  OD2       16.4110   12.2160   -4.8170 O.co2   9  ASP9       -0.2456
     21  N         19.9040   21.1990    0.9520 N.3    14  ARG14      -0.1231
     22  CA        20.0700   21.5660   -0.4710 C.3    14  ARG14       0.1694
     23  C         18.7350   21.8920   -1.1390 C.2    14  ARG14       0.2591
     24  O         18.6020   22.9380   -1.8000 O.2    14  ARG14      -0.2718
     25  CB        20.8130   20.4990   -1.2810 C.3    14  ARG14       0.0321
     26  CG        21.2130   20.9900   -2.6840 C.3    14  ARG14       0.0489
     27  CD        21.8610   19.8990   -3.5150 C.3    14  ARG14       0.2205
     28  NE        20.9000   18.8290   -3.8030 N.pl3  14  ARG14      -0.0865
     29  CZ        21.2000   17.6410   -4.3340 C.cat  14  ARG14       0.5346
     30  NH1       20.2270   16.7500   -4.5290 N.pl3  14  ARG14       0.1354
     31  NH2       22.4580   17.3330   -4.6750 N.pl3  14  ARG14       0.1354
     32  N         17.7550   21.0080   -0.9740 N.am   15  ALA15      -0.1980
     33  CA        16.3710   21.2740   -1.4600 C.3    15  ALA15       0.1597
     34  C         15.8080   22.6090   -0.9810 C.2    15  ALA15       0.2287
     35  O         15.1000   23.2870   -1.7260 O.2    15  ALA15      -0.2864
     36  CB        15.4120   20.1410   -1.0570 C.3    15  ALA15       0.0319
     37  N         17.4750   25.3800   -2.9360 N.3    18  VAL18      -0.1245
     38  CA        16.9110   25.3490   -4.2790 C.3    18  VAL18       0.1561
     39  C         15.5330   25.9920   -4.2760 C.2    18  VAL18       0.2260
     40  O         15.2380   26.8160   -5.1530 O.2    18  VAL18      -0.2867
     41  CB        16.7560   23.8840   -4.8160 C.3    18  VAL18       0.0252
     42  CG1       15.8540   23.8490   -6.1080 C.3    18  VAL18       0.0019
     43  CG2       18.1240   23.2290   -5.0660 C.3    18  VAL18       0.0019
     44  N          7.9550   20.0300   -8.5620 N.3    36  VAL36      -0.1231
     45  CA         7.7120   18.7340   -9.1810 C.3    36  VAL36       0.1692
     46  C          8.5190   17.6390   -8.5500 C.2    36  VAL36       0.2592
     47  O          9.6710   17.8140   -8.1260 O.2    36  VAL36      -0.2718
     48  CB         7.9300   18.7000  -10.7500 C.3    36  VAL36       0.0266
     49  CG1        6.8320   19.4670  -11.4150 C.3    36  VAL36       0.0020
     50  CG2        9.3220   19.2380  -11.1560 C.3    36  VAL36       0.0020
     51  N          7.8750   16.5020   -8.4630 N.am   37  HIS37      -0.1962
     52  CA         8.5610   15.2570   -8.1260 C.3    37  HIS37       0.1787
     53  C          8.0280   14.2090   -9.0850 C.2    37  HIS37       0.2621
     54  O          6.8280   14.1820   -9.3920 O.2    37  HIS37      -0.2715
     55  CB         8.3370   14.8690   -6.6730 C.3    37  HIS37       0.0785
     56  CG         9.0960   13.6470   -6.2520 C.ar   37  HIS37       0.0821
     57  ND1       10.4270   13.6780   -5.8890 N.ar   37  HIS37      -0.2267
     58  CD2        8.6970   12.3630   -6.1150 C.ar   37  HIS37       0.1154
     59  CE1       10.8140   12.4610   -5.5480 C.ar   37  HIS37       0.1986
     60  NE2        9.7800   11.6470   -5.6720 N.ar   37  HIS37      -0.2212
     61  N          8.9310   13.3820   -9.6070 N.am   38  SER38      -0.1936
     62  CA         8.5620   12.4100  -10.6120 C.3    38  SER38       0.2055
     63  C          8.6970   11.0320  -10.0470 C.2    38  SER38       0.2642
     64  O          9.6800   10.7610   -9.3820 O.2    38  SER38      -0.2714
     65  CB         9.5010   12.5000  -11.8200 C.3    38  SER38       0.2130
     66  OG         9.3340   11.3860  -12.6820 O.3    38  SER38      -0.2179
     67  N          7.7430   10.1650  -10.3620 N.am   39  LEU39      -0.1977
     68  CA         7.8450    8.7130  -10.0990 C.3    39  LEU39       0.1596
     69  C          7.4720    7.9500  -11.3580 C.2    39  LEU39       0.2287
     70  O          6.6890    8.4300  -12.1590 O.2    39  LEU39      -0.2864
     71  CB         6.8730    8.2800   -9.0020 C.3    39  LEU39       0.0297
     72  CG         7.0030    8.8880   -7.6040 C.3    39  LEU39       0.0022
     73  CD1        5.7250    8.6170   -6.8010 C.3    39  LEU39       0.0001
     74  CD2        8.2410    8.3750   -6.8830 C.3    39  LEU39       0.0001
     75  N         12.8800   10.4430  -14.0400 N.3    82  PRO82      -0.2116
     76  CA        12.8420   11.8260  -13.5730 C.3    82  PRO82       0.1372
     77  C         13.2480   12.9040  -14.5940 C.2    82  PRO82       0.2244
     78  O         12.4730   13.7960  -14.8040 O.2    82  PRO82      -0.2868
     79  CB        13.7490   11.7990  -12.3360 C.3    82  PRO82       0.0268
     80  CG        13.5480   10.3590  -11.7900 C.3    82  PRO82       0.0207
     81  CD        13.3970    9.5140  -13.0130 C.3    82  PRO82       0.0892
     82  N         10.8850   15.9140  -15.8950 N.3    86  ILE86      -0.1245
     83  CA        11.0860   17.2940  -15.4710 C.3    86  ILE86       0.1561
     84  C         11.1340   18.1890  -16.6990 C.2    86  ILE86       0.2260
     85  O         10.5420   19.2520  -16.7210 O.2    86  ILE86      -0.2867
     86  CB        12.4170   17.4400  -14.6550 C.3    86  ILE86       0.0252
     87  CG1       12.2600   16.8380  -13.2430 C.3    86  ILE86       0.0019
     88  CG2       12.8380   18.8880  -14.5810 C.3    86  ILE86       0.0019
     89  CD1       13.5840   16.5210  -12.5510 C.3    86  ILE86       0.0001
     90  N         17.1850   23.2760  -10.1090 N.3   100  ILE100     -0.1231
     91  CA        17.5340   21.9650   -9.6130 C.3   100  ILE100      0.1692
     92  C         18.7540   22.0630   -8.6920 C.2   100  ILE100      0.2593
     93  O         19.5560   22.9780   -8.8060 O.2   100  ILE100     -0.2718
     94  CB        17.8570   20.9950  -10.7590 C.3   100  ILE100      0.0266
     95  CG1       19.0360   21.5040  -11.6290 C.3   100  ILE100      0.0019
     96  CG2       16.6320   20.7500  -11.6150 C.3   100  ILE100      0.0020
     97  CD1       19.8420   20.3560  -12.3370 C.3   100  ILE100      0.0001
     98  N         18.8920   21.1020   -7.7970 N.am  101  GLY101     -0.1942
     99  CA        20.0560   21.0310   -6.9410 C.3   101  GLY101      0.2014
    100  C         21.1010   20.1610   -7.5900 C.2   101  GLY101      0.2639
    101  O         20.7630   19.2070   -8.2690 O.2   101  GLY101     -0.2714
    102  N         22.3650   20.4980   -7.4100 N.am  102  ILE102     -0.1963
    103  CA        23.4380   19.5910   -7.8040 C.3   102  ILE102      0.1727
    104  C         24.4540   19.4110   -6.6730 C.2   102  ILE102      0.2616
    105  O         24.6000   20.2740   -5.8150 O.2   102  ILE102     -0.2715
    106  CB        24.1310   20.0390   -9.0890 C.3   102  ILE102      0.0290
    107  CG1       24.8570   21.3560   -8.8700 C.3   102  ILE102      0.0022
    108  CG2       23.1200   20.1660  -10.2560 C.3   102  ILE102      0.0023
    109  CD1       25.5120   21.8590  -10.1080 C.3   102  ILE102      0.0001
    110  N         25.1540   18.2880   -6.7170 N.am  103  ARG103     -0.1977
    111  CA        26.0410   17.8430   -5.6410 C.3   103  ARG103      0.1597
    112  C         27.5000   17.9760   -6.0580 C.2   103  ARG103      0.2287
    113  O         27.8230   18.7100   -6.9940 O.2   103  ARG103     -0.2864
    114  CB        25.7370   16.3870   -5.2940 C.3   103  ARG103      0.0334
    115  CG        26.4080   15.3370   -6.1610 C.3   103  ARG103      0.0492
    116  CD        26.1830   13.9150   -5.6090 C.3   103  ARG103      0.2205
    117  NE        24.8050   13.4600   -5.8020 N.pl3 103  ARG103     -0.0865
    118  CZ        23.8550   13.4940   -4.8680 C.cat 103  ARG103      0.5346
    119  NH1       24.1210   13.9510   -3.6460 N.pl3 103  ARG103      0.1354
    120  NH2       22.6170   13.1230   -5.1700 N.pl3 103  ARG103      0.1354
    121  N         27.8950   15.7730  -11.4780 N.3   104  PHE104     -0.1227
    122  CA        26.5920   16.4500  -11.5180 C.3   104  PHE104      0.1736
    123  C         25.5520   15.8010  -10.6080 C.2   104  PHE104      0.2596
    124  O         24.8540   16.4760   -9.8300 O.2   104  PHE104     -0.2718
    125  CB        26.0330   16.4590  -12.9560 C.3   104  PHE104      0.0547
    126  CG        26.7050   17.4410  -13.8660 C.ar  104  PHE104     -0.0202
    127  CD1       26.5780   18.8040  -13.6540 C.ar  104  PHE104     -0.0042
    128  CD2       27.4600   17.0060  -14.9370 C.ar  104  PHE104     -0.0042
    129  CE1       27.2010   19.7150  -14.4970 C.ar  104  PHE104     -0.0003
    130  CE2       28.0770   17.9080  -15.7770 C.ar  104  PHE104     -0.0003
    131  CZ        27.9490   19.2700  -15.5520 C.ar  104  PHE104     -0.0000
    132  N         25.4920   14.4740  -10.7090 N.am  105  GLY105     -0.1942
    133  CA        24.3100   13.7140  -10.3570 C.3   105  GLY105      0.2014
    134  C         23.6470   13.3900  -11.6820 C.2   105  GLY105      0.2640
    135  O         23.6030   14.2310  -12.5690 O.2   105  GLY105     -0.2714
    136  N         23.1290   12.1770  -11.8150 N.am  106  SER106     -0.1935
    137  CA        22.6050   11.7060  -13.0950 C.3   106  SER106      0.2055
    138  C         21.3800   12.4930  -13.5430 C.2   106  SER106      0.2643
    139  O         21.3490   12.9550  -14.6800 O.2   106  SER106     -0.2714
    140  CB        22.2410   10.2210  -13.0300 C.3   106  SER106      0.2130
    141  OG        20.8990   10.0400  -12.6140 O.3   106  SER106     -0.2179
    142  N         20.3730   12.6400  -12.6660 N.am  107  VAL107     -0.1963
    143  CA        19.1760   13.3730  -13.0340 C.3   107  VAL107      0.1727
    144  C         19.5690   14.7700  -13.5330 C.2   107  VAL107      0.2616
    145  O         19.1120   15.2250  -14.5860 O.2   107  VAL107     -0.2715
    146  CB        18.1560   13.4910  -11.8570 C.3   107  VAL107      0.0290
    147  CG1       16.9470   14.3990  -12.2570 C.3   107  VAL107      0.0023
    148  CG2       17.6890   12.1070  -11.4050 C.3   107  VAL107      0.0023
    149  N         20.4660   15.4320  -12.8090 N.am  108  ALA108     -0.1977
    150  CA        20.7970   16.8270  -13.1060 C.3   108  ALA108      0.1597
    151  C         21.4420   16.9420  -14.4750 C.2   108  ALA108      0.2287
    152  O         21.1770   17.8790  -15.2080 O.2   108  ALA108     -0.2864
    153  CB        21.7130   17.4160  -12.0270 C.3   108  ALA108      0.0319
@<TRIPOS>BOND
     1    85    84    2
     2    84    83    1
     3    82    83    1
     4   130   131   ar
     5   130   128   ar
     6   131   129   ar
     7    83    86    1
     8   152   151    2
     9   128   126   ar
    10    78    77    2
    11   139   138    2
    12    86    88    1
    13    86    87    1
    14    77    76    1
    15   145   144    2
    16   129   127   ar
    17   151   150    1
    18    75    76    1
    19    75    81    1
    20   126   127   ar
    21   126   125    1
    22    76    79    1
    23   138   137    1
    24   138   142   am
    25   144   143    1
    26   144   149   am
    27    87    89    1
    28   150   149    1
    29   150   153    1
    30   137   140    1
    31   137   136    1
    32   143   142    1
    33   143   146    1
    34   140   141    1
    35    81    80    1
    36   125   122    1
    37    66    65    1
    38   135   134    2
    39    97    95    1
    40    79    80    1
    41   147   146    1
    42    70    69    2
    43   146   148    1
    44    65    62    1
    45   136   134   am
    46   134   133    1
    47    95    94    1
    48    96    94    1
    49   122   121    1
    50   122   123    1
    51    49    48    1
    52    69    68    1
    53    50    48    1
    54    94    91    1
    55    48    45    1
    56   132   123   am
    57   132   133    1
    58    62    63    1
    59    62    61    1
    60   123   124    2
    61    67    68    1
    62    67    63   am
    63   108   106    1
    64     5     2    1
    65    90    91    1
    66   109   107    1
    67    68    71    1
    68    63    64    2
    69    91    92    1
    70    61    53   am
    71    54    53    2
    72     1     2    1
    73    45    44    1
    74    45    46    1
    75   106   107    1
    76   106   103    1
    77    53    52    1
    78     2     3    1
    79    71    72    1
    80    93    92    2
    81    92    98   am
    82    46    51   am
    83    46    47    2
    84    51    52    1
    85   101   100    2
    86    52    55    1
    87   103   102    1
    88   103   104    1
    89    98    99    1
    90     3     4    2
    91     3     6   am
    92    72    74    1
    93    72    73    1
    94   100   102   am
    95   100    99    1
    96   113   112    2
    97     6     7    1
    98   110   104   am
    99   110   111    1
   100   104   105    2
   101    55    56    1
   102    56    58   ar
   103    56    57   ar
   104   115   116    1
   105   115   114    1
   106    58    60   ar
   107    42    41    1
   108   112   111    1
   109     9     8    2
   110    57    59   ar
   111   117   116    1
   112   117   118    2
   113    60    59   ar
   114   111   114    1
   115     7     8    1
   116     7    10    1
   117     8    13   am
   118    19    18   ar
   119   120   118    1
   120    40    39    2
   121    43    41    1
   122    18    17    1
   123    18    20   ar
   124   118   119    1
   125    17    14    1
   126    13    14    1
   127    41    38    1
   128    12    10    1
   129    31    29    1
   130    14    15    1
   131    11    10    1
   132    30    29    1
   133    29    28    2
   134    38    39    1
   135    38    37    1
   136    28    27    1
   137    27    26    1
   138    15    16    2
   139    26    25    1
   140    24    23    2
   141    35    34    2
   142    33    36    1
   143    33    34    1
   144    33    32    1
   145    25    22    1
   146    23    32   am
   147    23    22    1
   148    22    21    1
