@<TRIPOS>MOLECULE
tmp/3qtcA00.pdb
 123 119 0 0 0
SMALL
GASTEIGER

@<TRIPOS>ATOM
      1  N         -8.4280  -51.9400   13.6030 N.3    85  MET85      -0.1245
      2  CA        -7.8270  -50.9760   12.6870 C.3    85  MET85       0.1570
      3  C         -6.7120  -50.1820   13.3760 C.2    85  MET85       0.2261
      4  O         -6.1280  -49.2900   12.7730 O.2    85  MET85      -0.2867
      5  CB        -8.8840  -50.0070   12.1350 C.3    85  MET85       0.0387
      6  CG        -9.7760  -50.5980   11.0420 C.3    85  MET85       0.0595
      7  SD        -8.8460  -51.0930    9.5760 S.3    85  MET85      -0.1393
      8  CE        -8.1190  -49.5270    9.1000 C.3    85  MET85       0.0692
      9  N        -15.0180  -45.3170    8.2900 N.3   109  MET109     -0.1230
     10  CA       -14.2160  -45.5660    7.0910 C.3   109  MET109      0.1702
     11  C        -14.6670  -46.8720    6.4530 C.2   109  MET109      0.2592
     12  O        -15.3450  -47.6790    7.0940 O.2   109  MET109     -0.2718
     13  CB       -12.7170  -45.6380    7.4420 C.3   109  MET109      0.0401
     14  CG       -12.3760  -46.6990    8.4430 C.3   109  MET109      0.0596
     15  SD       -10.8730  -46.3290    9.3730 S.3   109  MET109     -0.1393
     16  CE       -11.2910  -47.1670   10.8790 C.3   109  MET109      0.0692
     17  N        -14.2800  -47.0840    5.1960 N.am  110  LEU110     -0.1966
     18  CA       -14.6490  -48.2820    4.4430 C.3   110  LEU110      0.1728
     19  C        -13.6210  -49.3880    4.6580 C.2   110  LEU110      0.2616
     20  O        -13.8620  -50.5560    4.3470 O.2   110  LEU110     -0.2715
     21  CB       -14.7410  -47.9490    2.9520 C.3   110  LEU110      0.0311
     22  CG       -16.0870  -47.5000    2.3730 C.3   110  LEU110      0.0022
     23  CD1      -16.9830  -46.9330    3.4640 C.3   110  LEU110      0.0001
     24  CD2      -15.8810  -46.4870    1.2550 C.3   110  LEU110      0.0001
     25  N        -12.4460  -48.9840    5.1310 N.am  111  THR111     -0.1951
     26  CA       -11.2630  -49.8520    5.1980 C.3   111  THR111      0.1897
     27  C        -11.4510  -51.2530    5.7910 C.2   111  THR111      0.2313
     28  O        -11.0890  -52.2290    5.1390 O.2   111  THR111     -0.2863
     29  CB       -10.1220  -49.1690    5.9540 C.3   111  THR111      0.1794
     30  OG1      -10.3020  -47.7620    5.8900 O.3   111  THR111     -0.2208
     31  CG2       -8.7900  -49.5470    5.3320 C.3   111  THR111      0.0378
     32  N        -18.4970  -39.5950   11.2070 N.3   139  ARG139     -0.1245
     33  CA       -17.4920  -39.1450   12.1740 C.3   139  ARG139      0.1563
     34  C        -18.0170  -37.9270   12.9230 C.2   139  ARG139      0.2260
     35  O        -18.5740  -37.0200   12.3210 O.2   139  ARG139     -0.2867
     36  CB       -16.1840  -38.7620   11.4760 C.3   139  ARG139      0.0307
     37  CG       -15.4560  -39.9310   10.8430 C.3   139  ARG139      0.0489
     38  CD       -14.2050  -39.4780   10.1250 C.3   139  ARG139      0.2205
     39  NE       -13.6840  -40.5690    9.2990 N.pl3 139  ARG139     -0.0865
     40  CZ       -12.5250  -40.5410    8.6500 C.cat 139  ARG139      0.5346
     41  NH1      -11.7090  -39.4870    8.7530 N.pl3 139  ARG139      0.1354
     42  NH2      -12.1740  -41.5890    7.9150 N.pl3 139  ARG139      0.1354
     43  N        -17.8540  -41.6600    1.2360 N.3   153  MET153     -0.1245
     44  CA       -16.4640  -41.9110    0.8230 C.3   153  MET153      0.1570
     45  C        -16.4180  -42.8910   -0.3400 C.2   153  MET153      0.2261
     46  O        -17.2460  -43.8020   -0.4390 O.2   153  MET153     -0.2867
     47  CB       -15.6010  -42.4500    1.9810 C.3   153  MET153      0.0387
     48  CG       -14.0800  -42.1290    1.7980 C.3   153  MET153      0.0595
     49  SD       -13.0140  -42.9960    2.9600 S.3   153  MET153     -0.1393
     50  CE       -13.3180  -42.0400    4.4610 C.3   153  MET153      0.0692
     51  N        -13.5640  -45.5300   -1.7600 N.3   155  VAL155     -0.1231
     52  CA       -12.2330  -46.1220   -1.6520 C.3   155  VAL155      0.1692
     53  C        -12.0520  -47.0280   -2.8420 C.2   155  VAL155      0.2592
     54  O        -12.9260  -47.8510   -3.1190 O.2   155  VAL155     -0.2718
     55  CB       -12.0370  -46.9280   -0.3390 C.3   155  VAL155      0.0266
     56  CG1      -10.7020  -47.7430   -0.3820 C.3   155  VAL155      0.0020
     57  CG2      -12.0360  -45.9670    0.8820 C.3   155  VAL155      0.0020
     58  N        -10.9170  -46.9000   -3.5300 N.am  156  PHE156     -0.1962
     59  CA       -10.5010  -47.9570   -4.4490 C.3   156  PHE156      0.1771
     60  C         -9.2220  -48.6210   -3.9110 C.2   156  PHE156      0.2619
     61  O         -8.4460  -47.9900   -3.1870 O.2   156  PHE156     -0.2715
     62  CB       -10.3340  -47.4290   -5.8790 C.3   156  PHE156      0.0574
     63  CG        -9.1840  -46.4700   -6.0650 C.ar  156  PHE156     -0.0200
     64  CD1       -9.3950  -45.0920   -6.0340 C.ar  156  PHE156     -0.0042
     65  CD2       -7.8900  -46.9500   -6.3000 C.ar  156  PHE156     -0.0042
     66  CE1       -8.3370  -44.2010   -6.2140 C.ar  156  PHE156     -0.0003
     67  CE2       -6.8170  -46.0680   -6.4820 C.ar  156  PHE156     -0.0003
     68  CZ        -7.0390  -44.6910   -6.4390 C.ar  156  PHE156     -0.0000
     69  N         -9.0300  -49.8930   -4.2420 N.am  157  TRP157     -0.1974
     70  CA        -7.9570  -50.6750   -3.6240 C.3   157  TRP157      0.1640
     71  C         -7.5590  -51.7990   -4.5710 C.2   157  TRP157      0.2290
     72  O         -8.3900  -52.6210   -4.9700 O.2   157  TRP157     -0.2864
     73  CB        -8.4620  -51.2670   -2.3040 C.3   157  TRP157      0.0576
     74  CG        -7.4250  -51.6120   -1.2440 C.ar  157  TRP157      0.0006
     75  CD1       -6.0930  -51.9240   -1.4300 C.ar  157  TRP157      0.0946
     76  CD2       -7.6680  -51.7250    0.1640 C.ar  157  TRP157      0.0152
     77  NE1       -5.5000  -52.2090   -0.2130 N.ar  157  TRP157     -0.2442
     78  CE2       -6.4400  -52.0940    0.7780 C.ar  157  TRP157      0.0810
     79  CE3       -8.8070  -51.5570    0.9690 C.ar  157  TRP157      0.0012
     80  CZ2       -6.3180  -52.2780    2.1600 C.ar  157  TRP157      0.0191
     81  CZ3       -8.6940  -51.7510    2.3470 C.ar  157  TRP157      0.0001
     82  CH2       -7.4470  -52.0890    2.9320 C.ar  157  TRP157      0.0015
     83  N         -6.6670  -39.0730    0.8170 N.3   202  SER202     -0.1217
     84  CA        -5.4400  -39.6780    1.3210 C.3   202  SER202      0.1889
     85  C         -5.2360  -40.9890    0.5740 C.2   202  SER202      0.2288
     86  O         -6.1770  -41.7820    0.4390 O.2   202  SER202     -0.2866
     87  CB        -5.5510  -39.9470    2.8170 C.3   202  SER202      0.2089
     88  OG        -4.3670  -40.5330    3.3290 O.3   202  SER202     -0.2183
     89  N         -2.3790  -44.4010   -0.1840 N.3   204  LEU204     -0.1245
     90  CA        -1.3040  -45.1740    0.4520 C.3   204  LEU204      0.1561
     91  C         -0.8120  -46.3050   -0.4360 C.2   204  LEU204      0.2260
     92  O         -1.5730  -46.8620   -1.2320 O.2   204  LEU204     -0.2867
     93  CB        -1.7710  -45.7600    1.8000 C.3   204  LEU204      0.0270
     94  CG        -2.2870  -44.8140    2.8940 C.3   204  LEU204      0.0019
     95  CD1       -3.1140  -45.5700    3.9180 C.3   204  LEU204      0.0001
     96  CD2       -1.1400  -44.1080    3.5890 C.3   204  LEU204      0.0001
     97  N         -0.0120  -53.5310   -2.1520 N.3   220  TRP220     -0.1241
     98  CA        -1.3040  -52.9350   -2.5240 C.3   220  TRP220      0.1605
     99  C         -1.1730  -51.4360   -2.6820 C.2   220  TRP220      0.2264
    100  O         -0.2080  -50.8390   -2.2070 O.2   220  TRP220     -0.2867
    101  CB        -2.4120  -53.3110   -1.5210 C.3   220  TRP220      0.0550
    102  CG        -2.1720  -52.9180   -0.0870 C.ar  220  TRP220      0.0003
    103  CD1       -1.7040  -53.7300    0.9090 C.ar  220  TRP220      0.0946
    104  CD2       -2.3980  -51.6310    0.5210 C.ar  220  TRP220      0.0152
    105  NE1       -1.6160  -53.0340    2.0910 N.ar  220  TRP220     -0.2442
    106  CE2       -2.0330  -51.7470    1.8860 C.ar  220  TRP220      0.0810
    107  CE3       -2.8630  -50.3940    0.0450 C.ar  220  TRP220      0.0012
    108  CZ2       -2.1280  -50.6720    2.7870 C.ar  220  TRP220      0.0191
    109  CZ3       -2.9500  -49.3250    0.9330 C.ar  220  TRP220      0.0001
    110  CH2       -2.5860  -49.4700    2.2920 C.ar  220  TRP220      0.0015
    111  N         -4.0230  -47.8830   -2.7520 N.3   222  GLY222     -0.1210
    112  CA        -5.4370  -47.4840   -2.6490 C.3   222  GLY222      0.1956
    113  C         -5.5750  -46.0480   -2.2150 C.2   222  GLY222      0.2612
    114  O         -4.5890  -45.3900   -1.9010 O.2   222  GLY222     -0.2717
    115  N         -6.8090  -45.5450   -2.1870 N.am  223  ALA223     -0.1965
    116  CA        -7.0190  -44.1500   -1.8030 C.3   223  ALA223      0.1728
    117  C         -8.4610  -43.9820   -1.3910 C.2   223  ALA223      0.2616
    118  O         -9.3250  -44.7110   -1.8730 O.2   223  ALA223     -0.2715
    119  CB        -6.7270  -43.2200   -2.9730 C.3   223  ALA223      0.0334
    120  N         -8.7050  -43.0090   -0.5180 N.am  224  GLY224     -0.1955
    121  CA       -10.0730  -42.6810   -0.0900 C.3   224  GLY224      0.1869
    122  C        -10.3860  -41.2410   -0.4180 C.2   224  GLY224      0.2309
    123  O         -9.5830  -40.3500   -0.1140 O.2   224  GLY224     -0.2863
@<TRIPOS>BOND
     1    67    68   ar
     2    67    65   ar
     3    68    66   ar
     4    65    63   ar
     5    66    64   ar
     6    63    64   ar
     7    63    62    1
     8    62    59    1
     9    72    71    2
    10    71    70    1
    11    59    60    1
    12    59    58    1
    13    69    60   am
    14    69    70    1
    15    60    61    2
    16    70    73    1
    17    58    53   am
    18    54    53    2
    19   119   116    1
    20    53    52    1
    21   111   112    1
    22    99    98    1
    23    99   100    2
    24   112   113    1
    25    98    97    1
    26    98   101    1
    27    73    74    1
    28   113   115   am
    29   113   114    2
    30   115   116    1
    31   118   117    2
    32   116   117    1
    33    51    52    1
    34    52    55    1
    35   101   102    1
    36    75    74   ar
    37    75    77   ar
    38   117   120   am
    39    74    76   ar
    40    92    91    2
    41   120   121    1
    42    46    45    2
    43    91    90    1
    44   122   123    2
    45   122   121    1
    46    56    55    1
    47    45    44    1
    48    55    57    1
    49    77    78   ar
    50    89    90    1
    51   102   104   ar
    52   102   103   ar
    53   107   104   ar
    54   107   109   ar
    55    76    78   ar
    56    76    79   ar
    57    86    85    2
    58    90    93    1
    59   104   106   ar
    60    85    84    1
    61    78    80   ar
    62    83    84    1
    63    44    43    1
    64    44    47    1
    65   103   105   ar
    66   109   110   ar
    67    79    81   ar
    68    24    22    1
    69    84    87    1
    70    48    47    1
    71    48    49    1
    72    93    94    1
    73   106   105   ar
    74   106   108   ar
    75    80    82   ar
    76   110   108   ar
    77    81    82   ar
    78    22    21    1
    79    22    23    1
    80    87    88    1
    81    94    96    1
    82    94    95    1
    83    21    18    1
    84    49    50    1
    85    20    19    2
    86    18    19    1
    87    18    17    1
    88    19    25   am
    89    25    26    1
    90    28    27    2
    91    17    11   am
    92    26    27    1
    93    26    29    1
    94    31    29    1
    95    30    29    1
    96    11    10    1
    97    11    12    2
    98    10    13    1
    99    10     9    1
   100    13    14    1
   101    42    40    1
   102    14    15    1
   103    40    41    1
   104    40    39    2
   105     8     7    1
   106    39    38    1
   107    15    16    1
   108     7     6    1
   109    38    37    1
   110    37    36    1
   111     6     5    1
   112    32    33    1
   113    36    33    1
   114     5     2    1
   115    33    34    1
   116    35    34    2
   117     2     3    1
   118     2     1    1
   119     4     3    2
