@<TRIPOS>MOLECULE
tmp/3qtiA00.pdb
 163 154 0 0 0
SMALL
GASTEIGER

@<TRIPOS>ATOM
      1  N         16.8050   32.8780  -18.3580 N.3    33  ILE33      -0.1231
      2  CA        16.6950   32.0920  -17.1150 C.3    33  ILE33       0.1692
      3  C         17.4570   30.7590  -17.2050 C.2    33  ILE33       0.2593
      4  O         17.6580   30.0830  -16.1960 O.2    33  ILE33      -0.2718
      5  CB        15.2090   31.9040  -16.6750 C.3    33  ILE33       0.0266
      6  CG1       14.3820   31.1280  -17.7380 C.3    33  ILE33       0.0019
      7  CG2       14.5800   33.2540  -16.3170 C.3    33  ILE33       0.0020
      8  CD1       12.9630   30.7140  -17.3280 C.3    33  ILE33       0.0001
      9  N         17.8400   30.3910  -18.4220 N.am   34  GLY34      -0.1942
     10  CA        18.5810   29.1720  -18.7030 C.3    34  GLY34       0.2014
     11  C         19.3150   29.2600  -20.0220 C.2    34  GLY34       0.2638
     12  O         18.8250   29.8840  -20.9720 O.2    34  GLY34      -0.2714
     13  N         20.4960   28.6230  -20.0810 N.am   35  ARG35      -0.1977
     14  CA        21.3460   28.6020  -21.2690 C.3    35  ARG35       0.1597
     15  C         21.8490   27.1980  -21.5690 C.2    35  ARG35       0.2287
     16  O         22.3920   26.5250  -20.6950 O.2    35  ARG35      -0.2864
     17  CB        22.5490   29.5440  -21.1050 C.3    35  ARG35       0.0334
     18  CG        22.2360   31.0200  -21.2150 C.3    35  ARG35       0.0492
     19  CD        23.4590   31.8480  -20.8580 C.3    35  ARG35       0.2205
     20  NE        23.1040   33.2220  -20.4920 N.pl3  35  ARG35      -0.0865
     21  CZ        22.8880   33.6380  -19.2460 C.cat  35  ARG35       0.5346
     22  NH1       22.9900   32.7920  -18.2270 N.pl3  35  ARG35       0.1354
     23  NH2       22.5700   34.9040  -19.0100 N.pl3  35  ARG35       0.1354
     24  N         16.7740   29.7220  -22.6280 N.3    41  VAL41      -0.1245
     25  CA        15.4760   29.6010  -21.9600 C.3    41  VAL41       0.1561
     26  C         15.1210   31.0060  -21.4570 C.2    41  VAL41       0.2260
     27  O         15.9720   31.6950  -20.8730 O.2    41  VAL41      -0.2867
     28  CB        15.4510   28.5480  -20.8270 C.3    41  VAL41       0.0252
     29  CG1       14.0170   28.2330  -20.4080 C.3    41  VAL41       0.0019
     30  CG2       16.1770   27.2690  -21.2400 C.3    41  VAL41       0.0019
     31  N          8.5250   28.8260  -18.8150 N.3    53  ALA53      -0.1245
     32  CA         9.9000   28.8830  -19.2930 C.3    53  ALA53       0.1562
     33  C          9.8530   28.4890  -20.7630 C.2    53  ALA53       0.2260
     34  O          9.3230   27.4280  -21.1110 O.2    53  ALA53      -0.2867
     35  CB        10.7750   27.9170  -18.5100 C.3    53  ALA53       0.0290
     36  N          9.2160   16.9040  -15.2370 N.3    85  LEU85      -0.1245
     37  CA         8.9130   18.1780  -15.8990 C.3    85  LEU85       0.1561
     38  C          7.9320   17.9330  -17.0520 C.2    85  LEU85       0.2260
     39  O          8.2260   17.1430  -17.9470 O.2    85  LEU85      -0.2867
     40  CB        10.2000   18.8820  -16.3920 C.3    85  LEU85       0.0270
     41  CG        10.0450   20.3360  -16.8610 C.3    85  LEU85       0.0019
     42  CD1        9.7640   21.2480  -15.6990 C.3    85  LEU85       0.0001
     43  CD2       11.2890   20.7890  -17.5450 C.3    85  LEU85       0.0001
     44  N          7.5890   25.2280  -21.3330 N.3   102  LEU102     -0.1231
     45  CA         7.7290   24.4020  -20.1340 C.3   102  LEU102      0.1678
     46  C          7.2110   25.1290  -18.9100 C.2   102  LEU102      0.2434
     47  O          7.2770   26.3480  -18.8900 O.2   102  LEU102     -0.2733
     48  CB         9.2130   24.0350  -19.9330 C.3   102  LEU102      0.0284
     49  CG         9.9550   23.4010  -21.1120 C.3   102  LEU102      0.0019
     50  CD1       11.4440   23.4460  -20.8860 C.3   102  LEU102      0.0001
     51  CD2        9.5060   21.9820  -21.3560 C.3   102  LEU102      0.0001
     52  N          6.7120   24.4410  -17.8560 N.am  103  PRO103     -0.2718
     53  CA         6.3090   25.1790  -16.6510 C.3   103  PRO103      0.1535
     54  C          7.5220   25.8500  -16.0110 C.2   103  PRO103      0.2599
     55  O          8.6230   25.2920  -16.0480 O.2   103  PRO103     -0.2715
     56  CB         5.7280   24.0960  -15.7260 C.3   103  PRO103      0.0310
     57  CG         6.3120   22.8360  -16.1840 C.3   103  PRO103      0.0237
     58  CD         6.6120   22.9830  -17.6560 C.3   103  PRO103      0.0939
     59  N          7.3230   27.0490  -15.4560 N.am  104  TYR104     -0.1960
     60  CA         8.3610   27.8140  -14.7730 C.3   104  TYR104      0.1771
     61  C          8.6900   27.1410  -13.4390 C.2   104  TYR104      0.2619
     62  O          7.7850   26.7970  -12.6800 O.2   104  TYR104     -0.2715
     63  CB         7.8850   29.2660  -14.5300 C.3   104  TYR104      0.0574
     64  CG         8.9390   30.1680  -13.9280 C.ar  104  TYR104     -0.0198
     65  CD1        9.9610   30.6970  -14.7090 C.ar  104  TYR104     -0.0009
     66  CD2        8.9040   30.5120  -12.5800 C.ar  104  TYR104     -0.0009
     67  CE1       10.9420   31.5200  -14.1570 C.ar  104  TYR104      0.0417
     68  CE2        9.8700   31.3500  -12.0210 C.ar  104  TYR104      0.0417
     69  CZ        10.8900   31.8470  -12.8140 C.ar  104  TYR104      0.1957
     70  OH        11.8420   32.6740  -12.2740 O.3   104  TYR104     -0.2866
     71  N          9.9780   26.9810  -13.1480 N.am  105  MET105     -0.1977
     72  CA        10.4420   26.3630  -11.9080 C.3   105  MET105      0.1605
     73  C         11.0330   27.4470  -11.0110 C.2   105  MET105      0.2287
     74  O         12.2050   27.7860  -11.1540 O.2   105  MET105     -0.2864
     75  CB        11.4450   25.2230  -12.2060 C.3   105  MET105      0.0413
     76  CG        10.8570   24.0960  -13.0600 C.3   105  MET105      0.0598
     77  SD         9.7390   23.0590  -12.0900 S.3   105  MET105     -0.1393
     78  CE         8.1670   23.4520  -12.8230 C.3   105  MET105      0.0692
     79  N         14.4410   26.9290   -9.5300 N.3   108  GLY108     -0.1210
     80  CA        15.4680   26.4700  -10.4660 C.3   108  GLY108      0.1956
     81  C         15.9300   25.0360  -10.2790 C.2   108  GLY108      0.2611
     82  O         15.1650   24.1770   -9.8280 O.2   108  GLY108     -0.2717
     83  N         17.1920   24.7510  -10.6440 N.am  109  ASP109     -0.1973
     84  CA        17.7190   23.3960  -10.5160 C.3   109  ASP109      0.1709
     85  C         17.9940   23.0300   -9.0670 C.2   109  ASP109      0.2293
     86  O         18.3540   23.8860   -8.2640 O.2   109  ASP109     -0.2864
     87  CB        18.9330   23.1490  -11.4080 C.3   109  ASP109      0.1436
     88  CG        20.1780   23.8190  -10.8950 C.2   109  ASP109      0.3671
     89  OD1       20.3040   25.0440  -11.0790 O.co2 109  ASP109     -0.2456
     90  OD2       20.9950   23.1330  -10.2570 O.co2 109  ASP109     -0.2456
     91  N         21.6550   23.8470   -7.4370 N.3   112  ASN112     -0.1240
     92  CA        21.8690   25.2200   -6.9530 C.3   112  ASN112      0.1653
     93  C         20.9880   25.5190   -5.7430 C.2   112  ASN112      0.2266
     94  O         21.4490   26.1970   -4.8380 O.2   112  ASN112     -0.2867
     95  CB        21.6950   26.2610   -8.0570 C.3   112  ASN112      0.1155
     96  CG        22.8510   26.3240   -9.0080 C.2   112  ASN112      0.2627
     97  OD1       24.0170   26.3640   -8.6040 O.2   112  ASN112     -0.2716
     98  ND2       22.5470   26.3580  -10.2950 N.am  112  ASN112     -0.0877
     99  N         21.7080   18.6660  -10.9170 N.3   153  ARG153     -0.1231
    100  CA        21.6740   19.8220  -11.8300 C.3   153  ARG153      0.1694
    101  C         20.5620   19.6600  -12.9040 C.2   153  ARG153      0.2592
    102  O         20.1720   20.6500  -13.5390 O.2   153  ARG153     -0.2718
    103  CB        23.0450   19.9910  -12.5290 C.3   153  ARG153      0.0321
    104  CG        23.3090   18.9270  -13.5850 C.3   153  ARG153      0.0489
    105  CD        24.6550   18.9840  -14.2640 C.3   153  ARG153      0.2205
    106  NE        24.9050   17.7280  -14.9800 N.pl3 153  ARG153     -0.0865
    107  CZ        25.5330   16.6760  -14.4670 C.cat 153  ARG153      0.5346
    108  NH1       25.9910   16.7110  -13.2240 N.pl3 153  ARG153      0.1354
    109  NH2       25.6840   15.5710  -15.1840 N.pl3 153  ARG153      0.1354
    110  N         20.0800   18.4100  -13.1100 N.am  154  ASN154     -0.1974
    111  CA        19.0910   18.0610  -14.1410 C.3   154  ASN154      0.1688
    112  C         17.6950   17.8290  -13.6230 C.2   154  ASN154      0.2292
    113  O         16.8110   17.4410  -14.3910 O.2   154  ASN154     -0.2864
    114  CB        19.6000   16.9210  -15.0200 C.3   154  ASN154      0.1181
    115  CG        20.7150   17.4000  -15.9170 C.2   154  ASN154      0.2629
    116  OD1       20.7190   18.5420  -16.3760 O.2   154  ASN154     -0.2716
    117  ND2       21.7070   16.5770  -16.1280 N.am  154  ASN154     -0.0877
    118  N         14.5460   19.8540  -11.3750 N.3   156  MET156     -0.1245
    119  CA        14.0720   21.2130  -11.1150 C.3   156  MET156      0.1570
    120  C         13.1880   21.2710   -9.8830 C.2   156  MET156      0.2261
    121  O         12.6600   20.2310   -9.4670 O.2   156  MET156     -0.2867
    122  CB        13.3250   21.7660  -12.3360 C.3   156  MET156      0.0387
    123  CG        14.1320   21.7860  -13.6200 C.3   156  MET156      0.0595
    124  SD        15.5730   22.8630  -13.5760 S.3   156  MET156     -0.1393
    125  CE        14.8120   24.4460  -13.8770 C.3   156  MET156      0.0692
    126  N         14.0640   16.4620  -14.9150 N.3   166  ALA166     -0.1231
    127  CA        13.9720   17.2440  -16.1380 C.3   166  ALA166      0.1694
    128  C         15.0720   16.8510  -17.1220 C.2   166  ALA166      0.2592
    129  O         15.4940   15.6970  -17.1010 O.2   166  ALA166     -0.2718
    130  CB        14.0030   18.7250  -15.7970 C.3   166  ALA166      0.0304
    131  N         15.5040   17.7740  -17.9950 N.am  167  ASP167     -0.1974
    132  CA        16.5450   17.5320  -18.9970 C.3   167  ASP167      0.1709
    133  C         16.2950   16.2740  -19.8730 C.2   167  ASP167      0.2293
    134  O         17.1260   15.3690  -19.9220 O.2   167  ASP167     -0.2864
    135  CB        17.9340   17.5030  -18.3300 C.3   167  ASP167      0.1436
    136  CG        19.0570   17.2840  -19.3120 C.2   167  ASP167      0.3671
    137  OD1       19.0010   17.8750  -20.4070 O.co2 167  ASP167     -0.2456
    138  OD2       19.9280   16.4290  -19.0340 O.co2 167  ASP167     -0.2456
    139  N         13.5570   19.3480  -24.1050 N.3   171  ALA171     -0.1245
    140  CA        14.2960   20.1420  -23.1230 C.3   171  ALA171      0.1562
    141  C         15.7250   19.5950  -22.8740 C.2   171  ALA171      0.2260
    142  O         16.4460   20.1360  -22.0280 O.2   171  ALA171     -0.2867
    143  CB        13.5190   20.1990  -21.8220 C.3   171  ALA171      0.0290
    144  N         23.0230   22.1800  -19.6240 N.3   175  TYR175     -0.1227
    145  CA        22.6950   23.4750  -19.0080 C.3   175  TYR175      0.1736
    146  C         23.7730   23.9950  -18.0670 C.2   175  TYR175      0.2595
    147  O         23.7400   25.1710  -17.6910 O.2   175  TYR175     -0.2718
    148  CB        21.3380   23.4290  -18.2920 C.3   175  TYR175      0.0548
    149  CG        20.1540   23.2260  -19.2070 C.ar  175  TYR175     -0.0200
    150  CD1       19.6590   24.2730  -19.9870 C.ar  175  TYR175     -0.0009
    151  CD2       19.5120   21.9970  -19.2800 C.ar  175  TYR175     -0.0009
    152  CE1       18.5590   24.0940  -20.8230 C.ar  175  TYR175      0.0417
    153  CE2       18.4160   21.8040  -20.1160 C.ar  175  TYR175      0.0417
    154  CZ        17.9270   22.8620  -20.8670 C.ar  175  TYR175      0.1957
    155  OH        16.8330   22.6710  -21.6660 O.3   175  TYR175     -0.2866
    156  N         24.7070   23.1190  -17.6690 N.am  176  ASP176     -0.1974
    157  CA        25.8340   23.4690  -16.8130 C.3   176  ASP176      0.1709
    158  C         27.0710   23.6640  -17.7080 C.2   176  ASP176      0.2293
    159  O         27.6710   22.6820  -18.1610 O.2   176  ASP176     -0.2864
    160  CB        26.0520   22.3800  -15.7430 C.3   176  ASP176      0.1436
    161  CG        27.1650   22.6340  -14.7370 C.2   176  ASP176      0.3671
    162  OD1       27.7580   23.7450  -14.7620 O.co2 176  ASP176     -0.2456
    163  OD2       27.4440   21.7250  -13.9220 O.co2 176  ASP176     -0.2456
@<TRIPOS>BOND
     1   139   140    1
     2   140   141    1
     3   140   143    1
     4   141   142    2
     5    24    25    1
     6    25    26    1
     7    25    28    1
     8   155   154    1
     9    15    14    1
    10    15    16    2
    11    26    27    2
    12    51    49    1
    13    44    45    1
    14    14    17    1
    15    14    13    1
    16    30    28    1
    17    18    17    1
    18    18    19    1
    19    49    50    1
    20    49    48    1
    21    34    33    2
    22    12    11    2
    23   154   152   ar
    24   154   153   ar
    25    19    20    1
    26    28    29    1
    27   152   150   ar
    28    33    32    1
    29    20    21    2
    30   137   136   ar
    31    45    48    1
    32    45    46    1
    33   153   151   ar
    34    13    11   am
    35    11    10    1
    36   150   149   ar
    37   134   133    2
    38   133   132    1
    39   144   145    1
    40   136   138   ar
    41   136   135    1
    42    32    31    1
    43    32    35    1
    44   151   149   ar
    45    21    23    1
    46    21    22    1
    47   149   148    1
    48   145   148    1
    49   145   146    1
    50   132   135    1
    51   132   131    1
    52    46    47    2
    53    46    52   am
    54    10     9    1
    55     9     3   am
    56     1     2    1
    57   159   158    2
    58   146   147    2
    59   146   156   am
    60   131   128   am
    61    39    38    2
    62    52    58    1
    63    52    53    1
    64     6     8    1
    65     6     5    1
    66   158   157    1
    67   156   157    1
    68    58    57    1
    69    43    41    1
    70     3     2    1
    71     3     4    2
    72   128   129    2
    73   128   127    1
    74     2     5    1
    75    38    37    1
    76    41    40    1
    77    41    42    1
    78   157   160    1
    79     5     7    1
    80    53    54    1
    81    53    56    1
    82    40    37    1
    83   116   115    2
    84    57    56    1
    85   127   130    1
    86   127   126    1
    87   117   115   am
    88    55    54    2
    89    54    59   am
    90   115   114    1
    91    37    36    1
    92   160   161    1
    93    59    60    1
    94   109   107    1
    95   114   111    1
    96   106   107    2
    97   106   105    1
    98    60    63    1
    99    60    61    1
   100   162   161   ar
   101   161   163   ar
   102    65    67   ar
   103    65    64   ar
   104    63    64    1
   105   107   108    1
   106   113   112    2
   107   105   104    1
   108    67    69   ar
   109   111   112    1
   110   111   110    1
   111    64    66   ar
   112   125   124    1
   113   123   124    1
   114   123   122    1
   115   104   103    1
   116   102   101    2
   117    61    71   am
   118    61    62    2
   119    71    72    1
   120   110   101   am
   121    76    75    1
   122    76    77    1
   123   101   100    1
   124    78    77    1
   125    69    70    1
   126    69    68   ar
   127    66    68   ar
   128   103   100    1
   129   122   119    1
   130    75    72    1
   131    72    73    1
   132   100    99    1
   133    87    88    1
   134    87    84    1
   135   118   119    1
   136    74    73    2
   137   119   120    1
   138    89    88   ar
   139    88    90   ar
   140    83    84    1
   141    83    81   am
   142    84    85    1
   143    80    81    1
   144    80    79    1
   145    98    96   am
   146    81    82    2
   147   120   121    2
   148    85    86    2
   149    96    97    2
   150    96    95    1
   151    95    92    1
   152    91    92    1
   153    92    93    1
   154    93    94    2
