@<TRIPOS>MOLECULE
tmp/3qtpB00.pdb
 122 114 0 0 0
SMALL
GASTEIGER

@<TRIPOS>ATOM
      1  N          1.2210   -1.2440  -14.8970 N.3    41  GLY41      -0.1210
      2  CA         1.7740   -0.8510  -13.6080 C.3    41  GLY41       0.1956
      3  C          1.9380   -1.9730  -12.5940 C.2    41  GLY41       0.2612
      4  O          1.1040   -2.8670  -12.5210 O.2    41  GLY41      -0.2717
      5  N          3.0090   -1.9230  -11.8000 N.am   42  ALA42      -0.1965
      6  CA         3.2620   -2.9570  -10.7920 C.3    42  ALA42       0.1728
      7  C          2.1750   -2.9140   -9.7370 C.2    42  ALA42       0.2616
      8  O          1.5990   -3.9400   -9.3720 O.2    42  ALA42      -0.2715
      9  CB         4.6310   -2.7700  -10.1460 C.3    42  ALA42       0.0334
     10  N          1.9130   -1.7120   -9.2410 N.am   43  SER43      -0.1950
     11  CA         0.7910   -1.4720   -8.3480 C.3    43  SER43       0.1924
     12  C         -0.0760   -0.4020   -8.9930 C.2    43  SER43       0.2314
     13  O          0.4330    0.5110   -9.6490 O.2    43  SER43      -0.2863
     14  CB         1.2740   -1.0240   -6.9690 C.3    43  SER43       0.2116
     15  OG         1.8030    0.2870   -7.0150 O.3    43  SER43      -0.2180
     16  N          8.5260   -1.2390   -2.7120 N.3   159  HIS159     -0.1241
     17  CA         9.4940   -1.6110   -3.7410 C.3   159  HIS159      0.1621
     18  C         10.8860   -1.9100   -3.1980 C.2   159  HIS159      0.2264
     19  O         11.8150   -2.1590   -3.9590 O.2   159  HIS159     -0.2867
     20  CB         9.5780   -0.5150   -4.8140 C.3   159  HIS159      0.0745
     21  CG         8.2950   -0.3020   -5.5560 C.ar  159  HIS159      0.0817
     22  ND1        8.1390    0.6800   -6.5110 N.ar  159  HIS159     -0.2268
     23  CD2        7.1060   -0.9480   -5.4820 C.ar  159  HIS159      0.1154
     24  CE1        6.9090    0.6300   -6.9930 C.ar  159  HIS159      0.1986
     25  NE2        6.2620   -0.3490   -6.3860 N.ar  159  HIS159     -0.2212
     26  N          7.7720    5.7530   -1.9270 N.3   167  GLN167     -0.1231
     27  CA         7.9820    4.8200   -3.0180 C.3   167  GLN167      0.1698
     28  C          9.1910    5.1800   -3.8670 C.2   167  GLN167      0.2592
     29  O          9.9610    4.3030   -4.2670 O.2   167  GLN167     -0.2718
     30  CB         6.7360    4.7510   -3.8930 C.3   167  GLN167      0.0381
     31  CG         6.7790    3.6530   -4.9300 C.3   167  GLN167      0.0905
     32  CD         5.3940    3.1110   -5.2180 C.2   167  GLN167      0.2608
     33  OE1        4.8020    2.3980   -4.3960 O.2   167  GLN167     -0.2717
     34  NE2        4.8600    3.4650   -6.3730 N.am  167  GLN167     -0.0878
     35  N          9.3630    6.4620   -4.1620 N.am  168  GLU168     -0.1979
     36  CA        10.5440    6.8510   -4.9190 C.3   168  GLU168      0.1602
     37  C         10.9780    8.2990   -4.7400 C.2   168  GLU168      0.2287
     38  O         10.1750    9.1800   -4.4140 O.2   168  GLU168     -0.2864
     39  CB        10.3430    6.5540   -6.4060 C.3   168  GLU168      0.0415
     40  CG         9.4760    7.5640   -7.1180 C.3   168  GLU168      0.1163
     41  CD         8.5880    6.9400   -8.1750 C.2   168  GLU168      0.3649
     42  OE1        8.2740    7.6260   -9.1760 O.co2 168  GLU168     -0.2457
     43  OE2        8.1870    5.7700   -7.9980 O.co2 168  GLU168     -0.2457
     44  N         12.4290    0.3270  -12.4220 N.3   211  GLU211     -0.1245
     45  CA        12.5550    1.5560  -13.1940 C.3   211  GLU211      0.1567
     46  C         13.9970    2.0430  -13.3360 C.2   211  GLU211      0.2260
     47  O         14.2420    3.1200  -13.8770 O.2   211  GLU211     -0.2867
     48  CB        11.6520    2.6390  -12.6020 C.3   211  GLU211      0.0388
     49  CG        10.1830    2.2470  -12.6070 C.3   211  GLU211      0.1160
     50  CD         9.2800    3.3630  -12.1210 C.2   211  GLU211      0.3649
     51  OE1        9.7860    4.3280  -11.5040 O.co2 211  GLU211     -0.2457
     52  OE2        8.0680    3.2810  -12.3740 O.co2 211  GLU211     -0.2457
     53  N          7.7830   10.7490   -4.6250 N.3   246  ASP246     -0.1239
     54  CA         6.5010   10.0760   -4.8040 C.3   246  ASP246      0.1674
     55  C          6.3250    9.2590   -3.5490 C.2   246  ASP246      0.2266
     56  O          7.0030    8.2520   -3.3610 O.2   246  ASP246     -0.2867
     57  CB         6.4810    9.1650   -6.0290 C.3   246  ASP246      0.1410
     58  CG         5.1710    8.3840   -6.1640 C.2   246  ASP246      0.3668
     59  OD1        4.1940    8.6720   -5.4310 O.co2 246  ASP246     -0.2456
     60  OD2        5.1170    7.4800   -7.0200 O.co2 246  ASP246     -0.2456
     61  N          4.4210   13.8140   -4.8920 N.3   299  GLU299     -0.1245
     62  CA         3.3370   13.0740   -5.5150 C.3   299  GLU299      0.1567
     63  C          2.6590   12.1640   -4.4890 C.2   299  GLU299      0.2260
     64  O          3.3330   11.5630   -3.6460 O.2   299  GLU299     -0.2867
     65  CB         3.9120   12.2420   -6.6750 C.3   299  GLU299      0.0388
     66  CG         2.9260   11.3290   -7.3630 C.3   299  GLU299      0.1160
     67  CD         3.6040   10.4460   -8.4240 C.2   299  GLU299      0.3649
     68  OE1        4.6800   10.8290   -8.9470 O.co2 299  GLU299     -0.2457
     69  OE2        3.0580    9.3670   -8.7150 O.co2 299  GLU299     -0.2457
     70  N         -1.7520   11.2870   -8.2520 N.3   325  ASP325     -0.1239
     71  CA        -1.5300   10.0820   -9.0500 C.3   325  ASP325      0.1674
     72  C         -2.6340    9.0790   -8.7150 C.2   325  ASP325      0.2266
     73  O         -3.6490    9.0270   -9.4040 O.2   325  ASP325     -0.2867
     74  CB        -0.1300    9.4940   -8.8030 C.3   325  ASP325      0.1410
     75  CG         0.0920    8.1550   -9.5250 C.2   325  ASP325      0.3668
     76  OD1       -0.7270    7.7720  -10.3830 O.co2 325  ASP325     -0.2456
     77  OD2        1.0920    7.4830   -9.2320 O.co2 325  ASP325     -0.2456
     78  N         -1.0730    8.9220  -16.9540 N.3   350  LYS350     -0.1245
     79  CA        -0.7890    7.5350  -17.3110 C.3   350  LYS350      0.1561
     80  C         -1.8630    7.0700  -18.2860 C.2   350  LYS350      0.2260
     81  O         -2.9610    6.6890  -17.8670 O.2   350  LYS350     -0.2867
     82  CB        -0.7860    6.6370  -16.0720 C.3   350  LYS350      0.0271
     83  CG         0.3820    6.8720  -15.1200 C.3   350  LYS350      0.0035
     84  CD         0.2210    6.0790  -13.8330 C.3   350  LYS350      0.0206
     85  CE         1.4700    6.1920  -12.9620 C.3   350  LYS350      0.1093
     86  NZ         1.2830    5.6000  -11.6100 N.3   350  LYS350     -0.1314
     87  N          5.5500    7.0590  -17.1790 N.3   378  HIS378     -0.1226
     88  CA         5.6780    5.6480  -17.5060 C.3   378  HIS378      0.1752
     89  C          4.8860    4.7890  -16.5330 C.2   378  HIS378      0.2596
     90  O          4.2910    5.2990  -15.5710 O.2   378  HIS378     -0.2718
     91  CB         7.1610    5.2210  -17.5190 C.3   378  HIS378      0.0759
     92  CG         7.8840    5.4150  -16.2150 C.ar  378  HIS378      0.0818
     93  ND1        7.3410    6.0890  -15.1400 N.ar  378  HIS378     -0.2268
     94  CD2        9.1230    5.0230  -15.8220 C.ar  378  HIS378      0.1154
     95  CE1        8.2150    6.1090  -14.1460 C.ar  378  HIS378      0.1986
     96  NE2        9.3020    5.4630  -14.5340 N.ar  378  HIS378     -0.2212
     97  N          4.8590    3.4840  -16.7930 N.am  379  ARG379     -0.1966
     98  CA         4.4210    2.5120  -15.7990 C.3   379  ARG379      0.1729
     99  C          5.6300    1.6470  -15.4130 C.2   379  ARG379      0.2616
    100  O          6.6500    1.6420  -16.1150 O.2   379  ARG379     -0.2715
    101  CB         3.3060    1.5990  -16.3360 C.3   379  ARG379      0.0348
    102  CG         2.0810    2.3150  -16.8890 C.3   379  ARG379      0.0492
    103  CD         1.4570    3.2700  -15.8590 C.3   379  ARG379      0.2205
    104  NE         1.1520    2.6180  -14.5820 N.pl3 379  ARG379     -0.0865
    105  CZ        -0.0360    2.1260  -14.2420 C.cat 379  ARG379      0.5346
    106  NH1       -1.0580    2.1960  -15.0810 N.pl3 379  ARG379      0.1354
    107  NH2       -0.2030    1.5560  -13.0550 N.pl3 379  ARG379      0.1354
    108  N          5.4990    0.8990  -14.3200 N.am  380  SER380     -0.1950
    109  CA         6.5880    0.0470  -13.8520 C.3   380  SER380      0.1924
    110  C          6.9350   -1.0000  -14.9000 C.2   380  SER380      0.2314
    111  O          8.1110   -1.3160  -15.0990 O.2   380  SER380     -0.2863
    112  CB         6.2260   -0.6330  -12.5300 C.3   380  SER380      0.2116
    113  OG         5.2190   -1.6060  -12.7300 O.3   380  SER380     -0.2180
    114  N          8.0750   11.9060  -16.2150 N.3   401  LYS401     -0.1245
    115  CA         8.8790   10.9320  -15.4860 C.3   401  LYS401      0.1561
    116  C          8.7990    9.5950  -16.2100 C.2   401  LYS401      0.2260
    117  O          7.7230    9.0390  -16.4200 O.2   401  LYS401     -0.2867
    118  CB         8.5040   10.8280  -13.9990 C.3   401  LYS401      0.0271
    119  CG         7.1840   10.1490  -13.6950 C.3   401  LYS401      0.0035
    120  CD         6.9690   10.0620  -12.1740 C.3   401  LYS401      0.0206
    121  CE         5.9250    8.9990  -11.8310 C.3   401  LYS401      0.1093
    122  NZ         5.8370    8.7410  -10.3500 N.3   401  LYS401     -0.1314
@<TRIPOS>BOND
     1    80    81    2
     2    80    79    1
     3    91    88    1
     4    91    92    1
     5    88    87    1
     6    88    89    1
     7    79    78    1
     8    79    82    1
     9   102   101    1
    10   102   103    1
    11    97    89   am
    12    97    98    1
    13    89    90    2
    14   117   116    2
    15   101    98    1
    16   114   115    1
    17    92    94   ar
    18    92    93   ar
    19   116   115    1
    20   100    99    2
    21    82    83    1
    22   103   104    1
    23    94    96   ar
    24    98    99    1
    25   115   118    1
    26    99   108   am
    27    93    95   ar
    28    83    84    1
    29   111   110    2
    30   106   105    1
    31   110   109    1
    32     1     2    1
    33   104   105    2
    34    96    95   ar
    35   108   109    1
    36   105   107    1
    37   118   119    1
    38    47    46    2
    39   109   112    1
    40    84    85    1
    41   119   120    1
    42     2     3    1
    43    46    45    1
    44    45    48    1
    45    45    44    1
    46    85    86    1
    47   113   112    1
    48    49    48    1
    49    49    50    1
    50     3     4    2
    51     3     5   am
    52    52    50   ar
    53   120   121    1
    54    50    51   ar
    55   121   122    1
    56     5     6    1
    57     6     9    1
    58     6     7    1
    59    76    75   ar
    60     7     8    2
    61     7    10   am
    62    13    12    2
    63    75    77   ar
    64    75    74    1
    65    73    72    2
    66    10    11    1
    67    42    41   ar
    68    71    74    1
    69    71    72    1
    70    71    70    1
    71    12    11    1
    72    68    67   ar
    73    69    67   ar
    74    67    66    1
    75    11    14    1
    76    41    43   ar
    77    41    40    1
    78    66    65    1
    79    40    39    1
    80    60    58   ar
    81    15    14    1
    82    24    22   ar
    83    24    25   ar
    84    65    62    1
    85    22    21   ar
    86    39    36    1
    87    25    23   ar
    88    34    32   am
    89    58    57    1
    90    58    59   ar
    91    57    54    1
    92    21    23   ar
    93    21    20    1
    94    62    61    1
    95    62    63    1
    96    32    31    1
    97    32    33    2
    98    31    30    1
    99    36    37    1
   100    36    35    1
   101    20    17    1
   102    54    53    1
   103    54    55    1
   104    37    38    2
   105    63    64    2
   106    29    28    2
   107    35    28   am
   108    19    18    2
   109    30    27    1
   110    28    27    1
   111    17    18    1
   112    17    16    1
   113    55    56    2
   114    27    26    1
