@<TRIPOS>MOLECULE
tmp/3qtqA00.pdb
 144 137 0 0 0
SMALL
GASTEIGER

@<TRIPOS>ATOM
      1  N        -67.5820  -85.2350  -78.3620 N.3    10  ILE10      -0.1245
      2  CA       -66.4610  -84.3540  -78.6620 C.3    10  ILE10       0.1561
      3  C        -66.7450  -82.8970  -78.3270 C.2    10  ILE10       0.2260
      4  O        -66.0490  -81.9920  -78.7980 O.2    10  ILE10      -0.2867
      5  CB       -66.0480  -84.4700  -80.1450 C.3    10  ILE10       0.0252
      6  CG1      -67.2390  -84.1730  -81.0520 C.3    10  ILE10       0.0019
      7  CG2      -65.5290  -85.8710  -80.4220 C.3    10  ILE10       0.0019
      8  CD1      -66.9360  -84.3140  -82.5270 C.3    10  ILE10       0.0001
      9  N        -71.5120  -78.1740  -77.7590 N.3    13  GLY13      -0.1225
     10  CA       -71.7160  -76.9810  -78.5670 C.3    13  GLY13       0.1811
     11  C        -72.6700  -75.9540  -77.9870 C.2    13  GLY13       0.2280
     12  O        -73.2430  -76.1540  -76.9130 O.2    13  GLY13      -0.2866
     13  N        -72.1840  -82.4950  -79.2410 N.3    18  VAL18      -0.1245
     14  CA       -71.5100  -82.9500  -80.4490 C.3    18  VAL18       0.1561
     15  C        -70.7890  -84.2540  -80.1620 C.2    18  VAL18       0.2260
     16  O        -70.0360  -84.3640  -79.1940 O.2    18  VAL18      -0.2867
     17  CB       -70.4880  -81.9270  -80.9580 C.3    18  VAL18       0.0252
     18  CG1      -69.9060  -82.4020  -82.2950 C.3    18  VAL18       0.0019
     19  CG2      -71.1470  -80.5740  -81.1250 C.3    18  VAL18       0.0019
     20  N        -68.9210  -85.8060  -87.3920 N.3    31  ALA31      -0.1245
     21  CA       -69.2150  -85.0730  -86.1610 C.3    31  ALA31       0.1562
     22  C        -70.7330  -84.9430  -86.2180 C.2    31  ALA31       0.2260
     23  O        -71.2650  -84.3460  -87.1550 O.2    31  ALA31      -0.2867
     24  CB       -68.5930  -83.6800  -86.1860 C.3    31  ALA31       0.0290
     25  N        -74.0620  -83.4240  -84.4980 N.3    33  LYS33      -0.1245
     26  CA       -74.5550  -82.4700  -83.5230 C.3    33  LYS33       0.1561
     27  C        -76.0580  -82.6540  -83.3420 C.2    33  LYS33       0.2260
     28  O        -76.8090  -82.6440  -84.3180 O.2    33  LYS33      -0.2867
     29  CB       -74.2580  -81.0500  -83.9820 C.3    33  LYS33       0.0271
     30  CG       -74.6460  -79.9780  -82.9790 C.3    33  LYS33       0.0035
     31  CD       -73.9950  -78.6800  -83.3810 C.3    33  LYS33       0.0206
     32  CE       -73.9890  -77.6740  -82.2570 C.3    33  LYS33       0.1093
     33  NZ       -73.0130  -76.6150  -82.6130 N.3    33  LYS33      -0.1314
     34  N        -66.2480  -76.0830  -92.6610 N.3    60  VAL60      -0.1245
     35  CA       -66.5530  -77.4850  -92.3550 C.3    60  VAL60       0.1561
     36  C        -67.8030  -77.9330  -93.1350 C.2    60  VAL60       0.2260
     37  O        -68.8740  -77.3250  -93.0390 O.2    60  VAL60      -0.2867
     38  CB       -66.7650  -77.7090  -90.8260 C.3    60  VAL60       0.0252
     39  CG1      -67.1150  -79.1480  -90.5380 C.3    60  VAL60       0.0019
     40  CG2      -65.4730  -77.3770  -90.0860 C.3    60  VAL60       0.0019
     41  N        -71.6260  -83.3740  -89.8150 N.3    76  PHE76      -0.1227
     42  CA       -70.5160  -82.6400  -90.4070 C.3    76  PHE76       0.1736
     43  C        -69.3250  -83.5480  -90.6640 C.2    76  PHE76       0.2595
     44  O        -69.1560  -84.5870  -90.0180 O.2    76  PHE76      -0.2718
     45  CB       -70.0200  -81.5450  -89.4350 C.3    76  PHE76       0.0547
     46  CG       -71.0320  -80.4840  -89.1330 C.ar   76  PHE76      -0.0202
     47  CD1      -71.2440  -79.4380  -90.0210 C.ar   76  PHE76      -0.0042
     48  CD2      -71.7590  -80.5240  -87.9510 C.ar   76  PHE76      -0.0042
     49  CE1      -72.1750  -78.4310  -89.7300 C.ar   76  PHE76      -0.0003
     50  CE2      -72.7000  -79.5150  -87.6500 C.ar   76  PHE76      -0.0003
     51  CZ       -72.8970  -78.4700  -88.5520 C.ar   76  PHE76      -0.0000
     52  N        -68.4900  -83.1260  -91.6050 N.am   77  GLU77      -0.1965
     53  CA       -67.2540  -83.8310  -91.8780 C.3    77  GLU77       0.1733
     54  C        -66.4670  -83.6960  -90.5590 C.2    77  GLU77       0.2616
     55  O        -66.5240  -82.6580  -89.8830 O.2    77  GLU77      -0.2715
     56  CB       -66.4970  -83.1560  -93.0380 C.3    77  GLU77       0.0429
     57  CG       -66.1430  -81.6960  -92.8010 C.3    77  GLU77       0.1163
     58  CD       -65.0870  -81.1500  -93.7690 C.2    77  GLU77       0.3649
     59  OE1      -64.0250  -81.7860  -93.9640 O.co2  77  GLU77      -0.2457
     60  OE2      -65.3090  -80.0620  -94.3300 O.co2  77  GLU77      -0.2457
     61  N        -65.7460  -84.7370  -90.1810 N.am   78  PHE78      -0.1960
     62  CA       -65.0120  -84.7190  -88.9230 C.3    78  PHE78       0.1771
     63  C        -63.5930  -84.1910  -89.0980 C.2    78  PHE78       0.2619
     64  O        -62.9410  -84.5080  -90.1030 O.2    78  PHE78      -0.2715
     65  CB       -64.9610  -86.1460  -88.3610 C.3    78  PHE78       0.0574
     66  CG       -64.1810  -86.2800  -87.0870 C.ar   78  PHE78      -0.0200
     67  CD1      -62.8390  -86.6500  -87.1100 C.ar   78  PHE78      -0.0042
     68  CD2      -64.7800  -86.0010  -85.8660 C.ar   78  PHE78      -0.0042
     69  CE1      -62.1090  -86.7360  -85.9420 C.ar   78  PHE78      -0.0003
     70  CE2      -64.0490  -86.0840  -84.6710 C.ar   78  PHE78      -0.0003
     71  CZ       -62.7150  -86.4520  -84.7120 C.ar   78  PHE78      -0.0000
     72  N        -63.1430  -83.3570  -88.1570 N.am   79  LEU79      -0.1963
     73  CA       -61.7480  -82.8720  -88.1630 C.3    79  LEU79       0.1728
     74  C        -61.1830  -83.2830  -86.8230 C.2    79  LEU79       0.2616
     75  O        -61.9080  -83.3270  -85.8450 O.2    79  LEU79      -0.2715
     76  CB       -61.6630  -81.3570  -88.3870 C.3    79  LEU79       0.0311
     77  CG       -61.5380  -81.0520  -89.8850 C.3    79  LEU79       0.0022
     78  CD1      -62.9300  -80.8880  -90.4780 C.3    79  LEU79       0.0001
     79  CD2      -60.6940  -79.7890  -90.1200 C.3    79  LEU79       0.0001
     80  N        -59.8830  -83.5710  -86.7590 N.am   80  HIS80      -0.1959
     81  CA       -59.3080  -84.0770  -85.5200 C.3    80  HIS80       0.1787
     82  C        -58.9550  -83.1650  -84.3800 C.2    80  HIS80       0.2620
     83  O        -58.7840  -83.6320  -83.2460 O.2    80  HIS80      -0.2715
     84  CB       -58.0790  -84.9300  -85.8530 C.3    80  HIS80       0.0785
     85  CG       -58.4270  -86.2520  -86.4510 C.ar   80  HIS80       0.0821
     86  ND1      -58.8760  -86.3890  -87.7450 N.ar   80  HIS80      -0.2267
     87  CD2      -58.4460  -87.4950  -85.9110 C.ar   80  HIS80       0.1154
     88  CE1      -59.1570  -87.6600  -87.9770 C.ar   80  HIS80       0.1986
     89  NE2      -58.9020  -88.3500  -86.8810 N.ar   80  HIS80      -0.2212
     90  N        -58.8310  -81.8700  -84.6480 N.am   81  GLN81      -0.1963
     91  CA       -58.4660  -80.9770  -83.5600 C.3    81  GLN81       0.1733
     92  C        -58.9910  -79.5790  -83.8020 C.2    81  GLN81       0.2616
     93  O        -59.2310  -79.1950  -84.9400 O.2    81  GLN81      -0.2715
     94  CB       -56.9440  -80.9360  -83.4320 C.3    81  GLN81       0.0408
     95  CG       -56.4340  -80.3340  -82.1080 C.3    81  GLN81       0.0908
     96  CD       -55.0430  -80.8320  -81.7930 C.2    81  GLN81       0.2608
     97  OE1      -54.8700  -81.9830  -81.3890 O.2    81  GLN81      -0.2717
     98  NE2      -54.0390  -79.9890  -82.0130 N.am   81  GLN81      -0.0878
     99  N        -59.1980  -78.8330  -82.7220 N.am   82  ASP82      -0.1971
    100  CA       -59.6470  -77.4560  -82.8720 C.3    82  ASP82       0.1709
    101  C        -58.4830  -76.5340  -82.5310 C.2    82  ASP82       0.2293
    102  O        -57.4670  -76.9600  -81.9450 O.2    82  ASP82      -0.2864
    103  CB       -60.8780  -77.1540  -82.0100 C.3    82  ASP82       0.1436
    104  CG       -60.6190  -77.3130  -80.5320 C.2    82  ASP82       0.3671
    105  OD1      -59.7130  -76.6410  -80.0030 O.co2  82  ASP82      -0.2456
    106  OD2      -61.3380  -78.1110  -79.9080 O.co2  82  ASP82      -0.2456
    107  N        -62.2070  -72.5980  -80.4000 N.3   127  GLN127     -0.1231
    108  CA       -62.8980  -73.8890  -80.3020 C.3   127  GLN127      0.1698
    109  C        -63.7480  -74.2380  -81.5350 C.2   127  GLN127      0.2592
    110  O        -64.0270  -75.4180  -81.7550 O.2   127  GLN127     -0.2718
    111  CB       -63.8030  -73.9260  -79.0620 C.3   127  GLN127      0.0381
    112  CG       -63.0720  -73.8820  -77.7580 C.3   127  GLN127      0.0905
    113  CD       -63.9950  -73.5630  -76.6050 C.2   127  GLN127      0.2608
    114  OE1      -64.3450  -72.4050  -76.3770 O.2   127  GLN127     -0.2717
    115  NE2      -64.4070  -74.5920  -75.8790 N.am  127  GLN127     -0.0878
    116  N        -64.1530  -73.2380  -82.3260 N.am  128  ASN128     -0.1974
    117  CA       -64.9530  -73.4700  -83.5290 C.3   128  ASN128      0.1688
    118  C        -64.1380  -73.4430  -84.8220 C.2   128  ASN128      0.2292
    119  O        -64.7150  -73.4400  -85.9070 O.2   128  ASN128     -0.2864
    120  CB       -66.0550  -72.4190  -83.6760 C.3   128  ASN128      0.1181
    121  CG       -67.0830  -72.5330  -82.6160 C.2   128  ASN128      0.2629
    122  OD1      -67.2490  -73.6100  -82.0020 O.2   128  ASN128     -0.2716
    123  ND2      -67.8100  -71.4370  -82.3840 N.am  128  ASN128     -0.0877
    124  N        -61.4710  -75.5590  -86.8410 N.3   130  LEU130     -0.1245
    125  CA       -60.9380  -76.9200  -86.8690 C.3   130  LEU130      0.1561
    126  C        -59.7720  -77.0650  -87.8100 C.2   130  LEU130      0.2260
    127  O        -59.7580  -76.4560  -88.8850 O.2   130  LEU130     -0.2867
    128  CB       -62.0710  -77.8750  -87.2660 C.3   130  LEU130      0.0270
    129  CG       -63.3460  -77.5770  -86.4750 C.3   130  LEU130      0.0019
    130  CD1      -64.4060  -78.5890  -86.8470 C.3   130  LEU130      0.0001
    131  CD2      -63.0670  -77.6450  -84.9440 C.3   130  LEU130      0.0001
    132  N        -66.3000  -73.7190  -88.3000 N.3   140  ALA140     -0.1231
    133  CA       -67.3040  -74.6860  -87.8770 C.3   140  ALA140      0.1694
    134  C        -68.2820  -74.0110  -86.9280 C.2   140  ALA140      0.2592
    135  O        -68.0620  -72.8820  -86.5050 O.2   140  ALA140     -0.2718
    136  CB       -66.6570  -75.8660  -87.1640 C.3   140  ALA140      0.0304
    137  N        -69.3680  -74.7110  -86.6290 N.am  141  ASP141     -0.1974
    138  CA       -70.3780  -74.2470  -85.6840 C.3   141  ASP141      0.1709
    139  C        -70.8890  -72.8320  -85.9130 C.2   141  ASP141      0.2293
    140  O        -70.9070  -72.0030  -84.9920 O.2   141  ASP141     -0.2864
    141  CB       -69.8310  -74.3800  -84.2640 C.3   141  ASP141      0.1436
    142  CG       -70.8930  -74.1700  -83.2010 C.2   141  ASP141      0.3671
    143  OD1      -72.0440  -74.6090  -83.3960 O.co2 141  ASP141     -0.2456
    144  OD2      -70.5670  -73.5910  -82.1570 O.co2 141  ASP141     -0.2456
@<TRIPOS>BOND
     1    60    58   ar
     2    59    58   ar
     3    58    57    1
     4    36    37    2
     5    36    35    1
     6    56    57    1
     7    56    53    1
     8    34    35    1
     9    35    38    1
    10    53    52    1
    11    53    54    1
    12    52    43   am
    13    38    39    1
    14    38    40    1
    15    43    42    1
    16    43    44    2
    17    54    61   am
    18    54    55    2
    19    78    77    1
    20    42    41    1
    21    42    45    1
    22    61    62    1
    23    79    77    1
    24    64    63    2
    25    47    49   ar
    26    47    46   ar
    27    77    76    1
    28    49    51   ar
    29    45    46    1
    30    46    48   ar
    31    63    62    1
    32    63    72   am
    33    62    65    1
    34   127   126    2
    35    51    50   ar
    36    76    73    1
    37    65    66    1
    38   132   133    1
    39    73    72    1
    40    73    74    1
    41    88    86   ar
    42    88    89   ar
    43    48    50   ar
    44   133   136    1
    45   133   134    1
    46   126   125    1
    47    86    85   ar
    48    20    21    1
    49   128   125    1
    50   128   129    1
    51    23    22    2
    52    67    66   ar
    53    67    69   ar
    54    66    68   ar
    55   134   137   am
    56   134   135    2
    57    89    87   ar
    58   125   124    1
    59   130   129    1
    60    74    80   am
    61    74    75    2
    62    80    81    1
    63   137   138    1
    64   129   131    1
    65    85    87   ar
    66    85    84    1
    67    22    21    1
    68    24    21    1
    69    69    71   ar
    70   139   138    1
    71   139   140    2
    72   119   118    2
    73    68    70   ar
    74    84    81    1
    75   138   141    1
    76    81    82    1
    77    93    92    2
    78   118   117    1
    79    71    70   ar
    80    90    82   am
    81    90    91    1
    82    25    26    1
    83    82    83    2
    84    28    27    2
    85   141   142    1
    86    29    26    1
    87    29    30    1
    88    92    91    1
    89    92    99   am
    90   120   117    1
    91   120   121    1
    92    91    94    1
    93   117   116    1
    94    26    27    1
    95    94    95    1
    96   143   142   ar
    97    31    30    1
    98    31    32    1
    99   142   144   ar
   100   100    99    1
   101   100   101    1
   102   100   103    1
   103   121   123   am
   104   121   122    2
   105    33    32    1
   106   101   102    2
   107     8     6    1
   108   116   109   am
   109    18    17    1
   110    95    96    1
   111    98    96   am
   112   103   104    1
   113    96    97    2
   114   110   109    2
   115   109   108    1
   116    19    17    1
   117     6     5    1
   118    17    14    1
   119   104   105   ar
   120   104   106   ar
   121    14    15    1
   122    14    13    1
   123     7     5    1
   124   107   108    1
   125   108   111    1
   126    15    16    2
   127     5     2    1
   128   111   112    1
   129     4     3    2
   130     2     1    1
   131     2     3    1
   132    10    11    1
   133    10     9    1
   134    11    12    2
   135   112   113    1
   136   113   114    2
   137   113   115   am
