@<TRIPOS>MOLECULE
tmp/3qtsA00.pdb
 173 166 0 0 0
SMALL
GASTEIGER

@<TRIPOS>ATOM
      1  N         94.5400   85.2940  -43.1360 N.3    10  ILE10      -0.1231
      2  CA        93.3880   84.4210  -43.2740 C.3    10  ILE10       0.1692
      3  C         93.5710   83.1200  -42.5100 C.2    10  ILE10       0.2593
      4  O         92.6440   82.3130  -42.4180 O.2    10  ILE10      -0.2718
      5  CB        93.0180   84.1520  -44.7680 C.3    10  ILE10       0.0266
      6  CG1       94.2610   83.9670  -45.6270 C.3    10  ILE10       0.0019
      7  CG2       92.2140   85.3220  -45.3100 C.3    10  ILE10       0.0020
      8  CD1       93.9430   83.9140  -47.1260 C.3    10  ILE10       0.0001
      9  N         94.7630   82.9290  -41.9440 N.am   11  GLY11      -0.1942
     10  CA        95.0150   81.7280  -41.1690 C.3    11  GLY11       0.2014
     11  C         96.3890   81.0740  -41.2210 C.2    11  GLY11       0.2639
     12  O         97.3420   81.5820  -41.8270 O.2    11  GLY11      -0.2714
     13  N         96.4710   79.9220  -40.5590 N.am   12  GLU12      -0.1963
     14  CA        97.6880   79.1290  -40.4960 C.3    12  GLU12       0.1733
     15  C         97.5600   78.0090  -41.5030 C.2    12  GLU12       0.2617
     16  O         96.6190   77.2230  -41.4450 O.2    12  GLU12      -0.2715
     17  CB        97.8730   78.5130  -39.1080 C.3    12  GLU12       0.0429
     18  CG        97.8930   79.5040  -37.9590 C.3    12  GLU12       0.1163
     19  CD        98.9710   80.5600  -38.1090 C.2    12  GLU12       0.3649
     20  OE1      100.1460   80.1890  -38.3420 O.co2  12  GLU12      -0.2457
     21  OE2       98.6380   81.7620  -37.9850 O.co2  12  GLU12      -0.2457
     22  N         98.5040   77.9380  -42.4300 N.am   13  GLY13      -0.1940
     23  CA        98.4660   76.8820  -43.4180 C.3    13  GLY13       0.2014
     24  C         99.4200   75.7790  -43.0130 C.2    13  GLY13       0.2639
     25  O        100.0860   75.8760  -41.9880 O.2    13  GLY13      -0.2714
     26  N         99.4960   74.7310  -43.8220 N.am   14  THR14      -0.1950
     27  CA       100.3850   73.6130  -43.5370 C.3    14  THR14       0.1897
     28  C        101.8480   74.0370  -43.4460 C.2    14  THR14       0.2313
     29  O        102.5680   73.5750  -42.5550 O.2    14  THR14      -0.2863
     30  CB       100.2640   72.5310  -44.6140 C.3    14  THR14       0.1794
     31  OG1       98.9020   72.1030  -44.7000 O.3    14  THR14      -0.2208
     32  CG2      101.1530   71.3310  -44.2790 C.3    14  THR14       0.0378
     33  N         99.0630   82.3200  -43.9900 N.3    18  VAL18      -0.1245
     34  CA        98.4520   82.6620  -45.2710 C.3    18  VAL18       0.1561
     35  C         97.6950   83.9600  -45.0830 C.2    18  VAL18       0.2260
     36  O         96.8790   84.0850  -44.1720 O.2    18  VAL18      -0.2867
     37  CB        97.4770   81.5810  -45.7390 C.3    18  VAL18       0.0252
     38  CG1       96.9170   81.9490  -47.1280 C.3    18  VAL18       0.0019
     39  CG2       98.1990   80.2340  -45.7830 C.3    18  VAL18       0.0019
     40  N         95.7420   85.1250  -52.3050 N.3    31  ALA31      -0.1245
     41  CA        96.0180   84.4100  -51.0740 C.3    31  ALA31       0.1562
     42  C         97.5230   84.2450  -51.1520 C.2    31  ALA31       0.2260
     43  O         98.0310   83.5590  -52.0360 O.2    31  ALA31      -0.2867
     44  CB        95.3430   83.0640  -51.0710 C.3    31  ALA31       0.0290
     45  N        100.8430   82.8670  -49.4440 N.3    33  LYS33      -0.1245
     46  CA       101.2660   81.9010  -48.4450 C.3    33  LYS33       0.1561
     47  C        102.7710   81.9430  -48.2360 C.2    33  LYS33       0.2260
     48  O        103.5560   81.7370  -49.1680 O.2    33  LYS33      -0.2867
     49  CB       100.8560   80.4830  -48.8610 C.3    33  LYS33       0.0271
     50  CG        99.5280   80.4170  -49.6010 C.3    33  LYS33       0.0035
     51  CD        98.9960   78.9800  -49.7460 C.3    33  LYS33       0.0206
     52  CE        97.5270   78.9930  -50.1770 C.3    33  LYS33       0.1093
     53  NZ        96.9120   77.6250  -50.2910 N.3    33  LYS33      -0.1314
     54  N         92.7070   75.7350  -57.6720 N.3    56  VAL56      -0.1245
     55  CA        93.0250   77.1320  -57.3370 C.3    56  VAL56       0.1561
     56  C         94.3240   77.4520  -58.0980 C.2    56  VAL56       0.2260
     57  O         95.3160   76.7380  -57.9780 O.2    56  VAL56      -0.2867
     58  CB        93.2630   77.2970  -55.8170 C.3    56  VAL56       0.0252
     59  CG1       93.6900   78.7330  -55.4950 C.3    56  VAL56       0.0019
     60  CG2       91.9960   76.9440  -55.0500 C.3    56  VAL56       0.0019
     61  N         98.4720   82.7310  -54.7210 N.3    72  PHE72      -0.1227
     62  CA        97.3510   81.9690  -55.2710 C.3    72  PHE72       0.1736
     63  C         96.1580   82.8610  -55.5780 C.2    72  PHE72       0.2595
     64  O         95.9850   83.8960  -54.9540 O.2    72  PHE72      -0.2718
     65  CB        96.9070   80.9380  -54.2410 C.3    72  PHE72       0.0547
     66  CG        97.7990   79.7480  -54.1410 C.ar   72  PHE72      -0.0202
     67  CD1       97.6120   78.6550  -54.9860 C.ar   72  PHE72      -0.0042
     68  CD2       98.7940   79.6880  -53.1680 C.ar   72  PHE72      -0.0042
     69  CE1       98.4040   77.5040  -54.8570 C.ar   72  PHE72      -0.0003
     70  CE2       99.5950   78.5430  -53.0340 C.ar   72  PHE72      -0.0003
     71  CZ        99.3960   77.4530  -53.8780 C.ar   72  PHE72      -0.0000
     72  N         95.3200   82.4580  -56.5220 N.am   73  GLU73      -0.1965
     73  CA        94.1300   83.2550  -56.7970 C.3    73  GLU73       0.1733
     74  C         93.3030   83.1580  -55.5160 C.2    73  GLU73       0.2616
     75  O         93.2980   82.1270  -54.8380 O.2    73  GLU73      -0.2715
     76  CB        93.3270   82.6780  -57.9620 C.3    73  GLU73       0.0429
     77  CG        92.7670   81.3210  -57.6700 C.3    73  GLU73       0.1163
     78  CD        91.7160   80.8860  -58.6820 C.2    73  GLU73       0.3649
     79  OE1       90.6300   81.5070  -58.7550 O.co2  73  GLU73      -0.2457
     80  OE2       91.9750   79.9180  -59.3980 O.co2  73  GLU73      -0.2457
     81  N         92.5980   84.2300  -55.1990 N.am   74  PHE74      -0.1960
     82  CA        91.8000   84.2990  -53.9980 C.3    74  PHE74       0.1771
     83  C         90.3610   83.8200  -54.1990 C.2    74  PHE74       0.2619
     84  O         89.6780   84.2470  -55.1410 O.2    74  PHE74      -0.2715
     85  CB        91.8140   85.7590  -53.5140 C.3    74  PHE74       0.0574
     86  CG        91.1430   85.9690  -52.2050 C.ar   74  PHE74      -0.0200
     87  CD1       89.8530   86.4680  -52.1510 C.ar   74  PHE74      -0.0042
     88  CD2       91.8000   85.6500  -51.0190 C.ar   74  PHE74      -0.0042
     89  CE1       89.2090   86.6480  -50.9280 C.ar   74  PHE74      -0.0003
     90  CE2       91.1730   85.8240  -49.8010 C.ar   74  PHE74      -0.0003
     91  CZ        89.8630   86.3270  -49.7580 C.ar   74  PHE74      -0.0000
     92  N         89.9120   82.9160  -53.3370 N.am   75  LEU75      -0.1963
     93  CA        88.5410   82.4380  -53.4230 C.3    75  LEU75       0.1728
     94  C         87.7410   82.9570  -52.2610 C.2    75  LEU75       0.2616
     95  O         88.2960   83.3390  -51.2360 O.2    75  LEU75      -0.2715
     96  CB        88.4740   80.9130  -53.5430 C.3    75  LEU75       0.0311
     97  CG        88.5260   80.6610  -55.0570 C.3    75  LEU75       0.0022
     98  CD1       89.8820   80.1300  -55.4230 C.3    75  LEU75       0.0001
     99  CD2       87.4340   79.7100  -55.5080 C.3    75  LEU75       0.0001
    100  N         86.4280   82.9710  -52.4470 N.am   76  HIS76      -0.1959
    101  CA        85.4750   83.5290  -51.4950 C.3    76  HIS76       0.1787
    102  C         85.3520   82.9510  -50.0900 C.2    76  HIS76       0.2620
    103  O         85.2440   83.7070  -49.1310 O.2    76  HIS76      -0.2715
    104  CB        84.0870   83.5660  -52.1640 C.3    76  HIS76       0.0785
    105  CG        84.0860   84.1640  -53.5460 C.ar   76  HIS76       0.0821
    106  ND1       85.2180   84.6950  -54.1320 N.ar   76  HIS76      -0.2267
    107  CD2       83.1010   84.2670  -54.4740 C.ar   76  HIS76       0.1154
    108  CE1       84.9320   85.0970  -55.3600 C.ar   76  HIS76       0.1986
    109  NE2       83.6540   84.8480  -55.5930 N.ar   76  HIS76      -0.2212
    110  N         85.4050   81.6280  -49.9540 N.am   77  GLN77      -0.1963
    111  CA        85.2350   80.9700  -48.6520 C.3    77  GLN77       0.1733
    112  C         85.7490   79.5370  -48.7520 C.2    77  GLN77       0.2616
    113  O         85.8940   79.0160  -49.8450 O.2    77  GLN77      -0.2715
    114  CB        83.7400   80.9640  -48.3070 C.3    77  GLN77       0.0408
    115  CG        83.3220   80.3440  -46.9590 C.3    77  GLN77       0.0908
    116  CD        81.8870   80.7500  -46.5920 C.2    77  GLN77       0.2608
    117  OE1       80.9730   79.9230  -46.5570 O.2    77  GLN77      -0.2717
    118  NE2       81.6900   82.0390  -46.3400 N.am   77  GLN77      -0.0878
    119  N         86.0550   78.9140  -47.6170 N.am   78  ASP78      -0.1971
    120  CA        86.5220   77.5280  -47.6360 C.3    78  ASP78       0.1709
    121  C         85.3560   76.6270  -47.2560 C.2    78  ASP78       0.2293
    122  O         84.4150   77.0530  -46.5980 O.2    78  ASP78      -0.2864
    123  CB        87.6870   77.3230  -46.6620 C.3    78  ASP78       0.1436
    124  CG        87.3150   77.6620  -45.2370 C.2    78  ASP78       0.3671
    125  OD1       87.0550   76.7420  -44.4440 O.co2  78  ASP78      -0.2456
    126  OD2       87.2560   78.8670  -44.9160 O.co2  78  ASP78      -0.2456
    127  N         84.2370   76.3850  -43.4630 N.3    81  LYS81      -0.1245
    128  CA        83.3610   77.4370  -42.9660 C.3    81  LYS81       0.1561
    129  C         81.9560   77.2850  -43.5230 C.2    81  LYS81       0.2260
    130  O         80.9650   77.5050  -42.8200 O.2    81  LYS81      -0.2867
    131  CB        83.9390   78.8140  -43.3170 C.3    81  LYS81       0.0271
    132  CG        85.2760   79.0220  -42.6610 C.3    81  LYS81       0.0035
    133  CD        85.9500   80.3310  -43.0370 C.3    81  LYS81       0.0206
    134  CE        87.3660   80.3390  -42.5010 C.3    81  LYS81       0.1093
    135  NZ        87.3310   80.2540  -41.0020 N.3    81  LYS81      -0.1314
    136  N         89.4770   72.5590  -45.2440 N.3   123  GLN123     -0.1231
    137  CA        90.1810   73.8380  -45.1860 C.3   123  GLN123      0.1698
    138  C         90.8060   74.2530  -46.5210 C.2   123  GLN123      0.2592
    139  O         90.9020   75.4500  -46.8030 O.2   123  GLN123     -0.2718
    140  CB        91.2840   73.8270  -44.1160 C.3   123  GLN123      0.0381
    141  CG        91.9900   75.1920  -43.9990 C.3   123  GLN123      0.0905
    142  CD        93.3500   75.1510  -43.2860 C.2   123  GLN123      0.2608
    143  OE1       94.2820   74.4510  -43.7140 O.2   123  GLN123     -0.2717
    144  NE2       93.4740   75.9290  -42.2090 N.am  123  GLN123     -0.0878
    145  N         91.2540   73.2930  -47.3350 N.am  124  ASN124     -0.1974
    146  CA        91.8550   73.6650  -48.6150 C.3   124  ASN124      0.1688
    147  C         90.9810   73.4400  -49.8540 C.2   124  ASN124      0.2292
    148  O         91.4950   73.3380  -50.9800 O.2   124  ASN124     -0.2864
    149  CB        93.2450   73.0330  -48.8200 C.3   124  ASN124      0.1181
    150  CG        93.2590   71.5460  -48.5920 C.2   124  ASN124      0.2629
    151  OD1       92.3690   70.8290  -49.0370 O.2   124  ASN124     -0.2716
    152  ND2       94.2860   71.0670  -47.9040 N.am  124  ASN124     -0.0877
    153  N         88.0990   75.3630  -51.6740 N.3   126  LEU126     -0.1245
    154  CA        87.5550   76.7040  -51.6980 C.3   126  LEU126      0.1561
    155  C         86.3820   76.8620  -52.6530 C.2   126  LEU126      0.2260
    156  O         86.3920   76.3150  -53.7410 O.2   126  LEU126     -0.2867
    157  CB        88.6710   77.6650  -52.0910 C.3   126  LEU126      0.0270
    158  CG        89.8880   77.4410  -51.1860 C.3   126  LEU126      0.0019
    159  CD1       91.0600   78.1240  -51.7760 C.3   126  LEU126      0.0001
    160  CD2       89.5730   77.9690  -49.7740 C.3   126  LEU126      0.0001
    161  N         92.9850   73.5060  -53.4050 N.3   136  ALA136     -0.1231
    162  CA        94.1850   74.3210  -53.2600 C.3   136  ALA136      0.1694
    163  C         95.2950   73.4860  -52.6400 C.2   136  ALA136      0.2592
    164  O         95.0240   72.6060  -51.8150 O.2   136  ALA136     -0.2718
    165  CB        93.8980   75.5170  -52.3820 C.3   136  ALA136      0.0304
    166  N         96.5330   73.7800  -53.0490 N.am  137  ASP137     -0.1974
    167  CA        97.7600   73.1470  -52.5510 C.3   137  ASP137      0.1709
    168  C         98.1840   71.8060  -53.1360 C.2   137  ASP137      0.2293
    169  O         98.9590   71.0880  -52.5270 O.2   137  ASP137     -0.2864
    170  CB        97.7210   73.0710  -51.0240 C.3   137  ASP137      0.1436
    171  CG        97.6320   74.4630  -50.3800 C.2   137  ASP137      0.3671
    172  OD1       98.0360   75.4600  -51.0410 O.co2 137  ASP137     -0.2456
    173  OD2       97.1800   74.5660  -49.2180 O.co2 137  ASP137     -0.2456
@<TRIPOS>BOND
     1    80    78   ar
     2    79    78   ar
     3    78    77    1
     4    56    57    2
     5    56    55    1
     6    76    77    1
     7    76    73    1
     8    54    55    1
     9    55    58    1
    10    73    72    1
    11    73    74    1
    12    72    63   am
    13    58    59    1
    14    58    60    1
    15   109   108   ar
    16   109   107   ar
    17    63    62    1
    18    63    64    2
    19    74    81   am
    20    74    75    2
    21    99    97    1
    22    98    97    1
    23   108   106   ar
    24    62    61    1
    25    62    65    1
    26    81    82    1
    27    84    83    2
    28    97    96    1
    29    67    69   ar
    30    67    66   ar
    31    69    71   ar
    32   107   105   ar
    33    65    66    1
    34    83    82    1
    35    83    92   am
    36    66    68   ar
    37   106   105   ar
    38    82    85    1
    39    71    70   ar
    40   156   155    2
    41   105   104    1
    42    96    93    1
    43    85    86    1
    44    93    92    1
    45    93    94    1
    46   161   162    1
    47   162   163    1
    48   162   165    1
    49    68    70   ar
    50   168   167    1
    51   168   169    2
    52   166   163   am
    53   166   167    1
    54   155   154    1
    55   163   164    2
    56   167   170    1
    57   100    94   am
    58   100   101    1
    59    40    41    1
    60    94    95    2
    61    86    87   ar
    62    86    88   ar
    63   104   101    1
    64    87    89   ar
    65   157   154    1
    66   157   158    1
    67    43    42    2
    68   159   158    1
    69   154   153    1
    70   101   102    1
    71   158   160    1
    72    42    41    1
    73    41    44    1
    74   172   171   ar
    75   170   171    1
    76    88    90   ar
    77   148   147    2
    78    89    91   ar
    79   171   173   ar
    80    53    52    1
    81    52    51    1
    82   102   110   am
    83   102   103    2
    84   110   111    1
    85   147   146    1
    86   113   112    2
    87    90    91   ar
    88    51    50    1
    89    50    49    1
    90    45    46    1
    91    48    47    2
    92   151   150    2
    93    49    46    1
    94   149   146    1
    95   149   150    1
    96   112   111    1
    97   112   119   am
    98   111   114    1
    99   146   145    1
   100   150   152   am
   101    46    47    1
   102   114   115    1
   103   120   119    1
   104   120   121    1
   105   120   123    1
   106   145   138   am
   107   121   122    2
   108    38    37    1
   109     8     6    1
   110   115   116    1
   111   139   138    2
   112   123   124    1
   113   116   117    2
   114   116   118   am
   115   138   137    1
   116    39    37    1
   117    37    34    1
   118     6     5    1
   119     7     5    1
   120    34    35    1
   121    34    33    1
   122   136   137    1
   123   124   126   ar
   124   124   125   ar
   125   137   140    1
   126    35    36    2
   127     5     2    1
   128    31    30    1
   129    30    32    1
   130    30    27    1
   131   140   141    1
   132   141   142    1
   133    26    27    1
   134    26    24   am
   135   143   142    2
   136    27    28    1
   137   129   128    1
   138   129   130    2
   139   127   128    1
   140    28    29    2
   141    23    24    1
   142    23    22    1
   143   131   128    1
   144   131   132    1
   145   142   144   am
   146     2     1    1
   147     2     3    1
   148   133   132    1
   149   133   134    1
   150    24    25    2
   151     3     4    2
   152     3     9   am
   153   134   135    1
   154    22    15   am
   155     9    10    1
   156    12    11    2
   157    15    16    2
   158    15    14    1
   159    11    10    1
   160    11    13   am
   161    13    14    1
   162    14    17    1
   163    17    18    1
   164    20    19   ar
   165    19    21   ar
   166    19    18    1
