@<TRIPOS>MOLECULE
tmp/3qttB01.pdb
 173 168 0 0 0
SMALL
GASTEIGER

@<TRIPOS>ATOM
      1  N         14.8820   33.1950  166.5680 N.3    26  VAL26      -0.1231
      2  CA        14.4630   34.2900  165.7250 C.3    26  VAL26       0.1678
      3  C         13.5160   35.1800  166.5400 C.2    26  VAL26       0.2434
      4  O         12.3410   34.8690  166.7040 O.2    26  VAL26      -0.2733
      5  CB        13.8040   33.7860  164.4140 C.3    26  VAL26       0.0265
      6  CG1       13.4810   34.9550  163.4760 C.3    26  VAL26       0.0020
      7  CG2       14.7250   32.8150  163.7190 C.3    26  VAL26       0.0020
      8  N         14.0550   36.2340  167.1540 N.am   27  PRO27      -0.2718
      9  CA        13.1780   37.1940  167.8250 C.3    27  PRO27       0.1535
     10  C         12.3300   38.0320  166.8580 C.2    27  PRO27       0.2599
     11  O         12.8360   38.5440  165.8770 O.2    27  PRO27      -0.2715
     12  CB        14.1780   38.0860  168.5680 C.3    27  PRO27       0.0310
     13  CG        15.4150   38.0280  167.7310 C.3    27  PRO27       0.0237
     14  CD        15.4770   36.5940  167.2950 C.3    27  PRO27       0.0939
     15  N         11.0510   38.1950  167.1810 N.am   28  THR28      -0.1951
     16  CA        10.1390   38.9730  166.3480 C.3    28  THR28       0.1897
     17  C          9.1110   39.7600  167.1660 C.2    28  THR28       0.2313
     18  O          8.7630   39.3840  168.2870 O.2    28  THR28      -0.2863
     19  CB         9.3870   38.0670  165.3620 C.3    28  THR28       0.1794
     20  OG1       10.3120   37.1620  164.7470 O.3    28  THR28      -0.2208
     21  CG2        8.7010   38.8970  164.2920 C.3    28  THR28       0.0378
     22  N          6.1180   40.1090  165.8920 N.3    29  GLY29      -0.1225
     23  CA         4.8560   39.6200  165.3860 C.3    29  GLY29       0.1811
     24  C          4.5350   40.2450  164.0380 C.2    29  GLY29       0.2280
     25  O          5.3650   40.9320  163.4570 O.2    29  GLY29      -0.2866
     26  N          5.8100   38.7230  158.0570 N.3    32  HIS32      -0.1241
     27  CA         5.8680   38.7920  156.6130 C.3    32  HIS32       0.1621
     28  C          7.0220   37.9300  156.0870 C.2    32  HIS32       0.2264
     29  O          7.6790   37.2120  156.8570 O.2    32  HIS32      -0.2867
     30  CB         6.0640   40.2390  156.1700 C.3    32  HIS32       0.0745
     31  CG         7.1640   40.9540  156.8980 C.ar   32  HIS32       0.0817
     32  ND1        8.4970   40.6020  156.7720 N.ar   32  HIS32      -0.2268
     33  CD2        7.1300   41.9920  157.7720 C.ar   32  HIS32       0.1154
     34  CE1        9.2300   41.4040  157.5220 C.ar   32  HIS32       0.1986
     35  NE2        8.4270   42.2610  158.1310 N.ar   32  HIS32      -0.2212
     36  N          9.9960   38.6720  154.9910 N.3    34  GLY34      -0.1210
     37  CA        11.2460   38.9680  155.6500 C.3    34  GLY34       0.1956
     38  C         11.4290   38.0230  156.8290 C.2    34  GLY34       0.2611
     39  O         12.4340   37.3180  156.9190 O.2    34  GLY34      -0.2717
     40  N         10.4420   37.9780  157.7200 N.am   35  HIS35      -0.1975
     41  CA        10.5100   37.1020  158.8840 C.3    35  HIS35       0.1656
     42  C         10.7170   35.6410  158.4950 C.2    35  HIS35       0.2291
     43  O         11.5860   34.9590  159.0640 O.2    35  HIS35      -0.2864
     44  CB         9.2440   37.2240  159.7450 C.3    35  HIS35       0.0771
     45  CG         9.0390   38.5800  160.3370 C.ar   35  HIS35       0.0820
     46  ND1        7.9700   39.3810  160.0070 N.ar   35  HIS35      -0.2267
     47  CD2        9.7650   39.2740  161.2480 C.ar   35  HIS35       0.1154
     48  CE1        8.0470   40.5110  160.6860 C.ar   35  HIS35       0.1986
     49  NE2        9.1280   40.4740  161.4410 N.ar   35  HIS35      -0.2212
     50  N         14.2460   34.5380  157.4280 N.3    38  LEU38      -0.1245
     51  CA        15.0070   34.2510  158.6470 C.3    38  LEU38       0.1561
     52  C         14.7140   32.8560  159.2280 C.2    38  LEU38       0.2260
     53  O         15.6170   32.0760  159.5740 O.2    38  LEU38      -0.2867
     54  CB        14.7010   35.3120  159.6920 C.3    38  LEU38       0.0270
     55  CG        15.6720   36.4970  159.7210 C.3    38  LEU38       0.0019
     56  CD1       15.6770   37.1910  158.3840 C.3    38  LEU38       0.0001
     57  CD2       15.3280   37.4890  160.8280 C.3    38  LEU38       0.0001
     58  N          0.7810   49.6040  166.3680 N.3    69  TYR69      -0.1241
     59  CA         1.5780   48.4810  165.9120 C.3    69  TYR69       0.1605
     60  C          0.7330   47.2590  165.6920 C.2    69  TYR69       0.2264
     61  O         -0.0450   46.8810  166.5460 O.2    69  TYR69      -0.2867
     62  CB         2.7570   48.1830  166.8540 C.3    69  TYR69       0.0534
     63  CG         3.8190   47.4040  166.1280 C.ar   69  TYR69      -0.0201
     64  CD1        4.8250   48.0590  165.4080 C.ar   69  TYR69      -0.0009
     65  CD2        3.7840   46.0170  166.0980 C.ar   69  TYR69      -0.0009
     66  CE1        5.7890   47.3400  164.7010 C.ar   69  TYR69       0.0417
     67  CE2        4.7330   45.2950  165.3990 C.ar   69  TYR69       0.0417
     68  CZ         5.7310   45.9550  164.7010 C.ar   69  TYR69       0.1957
     69  OH         6.6610   45.2140  164.0100 O.3    69  TYR69      -0.2866
     70  N         19.2480   34.8170  164.6070 N.3   143  TYR143     -0.1227
     71  CA        19.0290   35.2400  163.2270 C.3   143  TYR143      0.1736
     72  C         18.4520   36.6400  163.1920 C.2   143  TYR143      0.2595
     73  O         17.3990   36.9040  163.7410 O.2   143  TYR143     -0.2718
     74  CB        18.1820   34.2190  162.4460 C.3   143  TYR143      0.0548
     75  CG        18.8730   32.8680  162.3410 C.ar  143  TYR143     -0.0200
     76  CD1       19.6050   32.5200  161.2080 C.ar  143  TYR143     -0.0009
     77  CD2       18.8360   31.9650  163.4050 C.ar  143  TYR143     -0.0009
     78  CE1       20.2520   31.3110  161.1250 C.ar  143  TYR143      0.0417
     79  CE2       19.4900   30.7700  163.3410 C.ar  143  TYR143      0.0417
     80  CZ        20.1930   30.4310  162.2000 C.ar  143  TYR143      0.1957
     81  OH        20.8340   29.2080  162.1460 O.3   143  TYR143     -0.2866
     82  N         19.1990   37.5330  162.5590 N.am  144  LEU144     -0.1966
     83  CA        18.8800   38.9330  162.4970 C.3   144  LEU144      0.1728
     84  C         18.8820   39.3690  161.0260 C.2   144  LEU144      0.2616
     85  O         19.6250   38.8040  160.2100 O.2   144  LEU144     -0.2715
     86  CB        19.9520   39.6860  163.2560 C.3   144  LEU144      0.0311
     87  CG        20.1540   39.4120  164.7460 C.3   144  LEU144      0.0022
     88  CD1       21.2900   40.2850  165.2790 C.3   144  LEU144      0.0001
     89  CD2       18.8860   39.7410  165.4740 C.3   144  LEU144      0.0001
     90  N         18.0200   40.3300  160.6750 N.am  145  GLY145     -0.1955
     91  CA        18.0020   40.9100  159.3410 C.3   145  GLY145      0.1869
     92  C         18.9770   42.0630  159.1210 C.2   145  GLY145      0.2309
     93  O         19.1300   42.9510  159.9650 O.2   145  GLY145     -0.2863
     94  N         18.4660   44.4160  157.5620 N.3   147  LYS147     -0.1231
     95  CA        17.6830   45.6300  157.4070 C.3   147  LYS147      0.1693
     96  C         17.8660   46.5490  158.5790 C.2   147  LYS147      0.2592
     97  O         17.8790   47.7510  158.3860 O.2   147  LYS147     -0.2718
     98  CB        16.1970   45.3500  157.1990 C.3   147  LYS147      0.0285
     99  CG        15.5240   46.4060  156.3890 C.3   147  LYS147      0.0035
    100  CD        14.3220   46.9340  157.0800 C.3   147  LYS147      0.0206
    101  CE        13.3320   45.8590  157.2630 C.3   147  LYS147      0.1093
    102  NZ        12.2510   46.2890  158.1690 N.3   147  LYS147     -0.1314
    103  N         18.0010   46.0160  159.7960 N.am  148  ASP148     -0.1974
    104  CA        18.3020   46.9290  160.8790 C.3   148  ASP148      0.1709
    105  C         19.7570   46.7690  161.1850 C.2   148  ASP148      0.2293
    106  O         20.1640   45.9680  162.0350 O.2   148  ASP148     -0.2864
    107  CB        17.4730   46.5260  162.0880 C.3   148  ASP148      0.1436
    108  CG        15.9900   46.5160  161.7850 C.2   148  ASP148      0.3671
    109  OD1       15.3410   47.5100  162.1470 O.co2 148  ASP148     -0.2456
    110  OD2       15.4780   45.5420  161.1720 O.co2 148  ASP148     -0.2456
    111  N         21.1730   47.9170  164.6240 N.3   151  GLN151     -0.1245
    112  CA        20.7600   47.0180  165.6540 C.3   151  GLN151      0.1566
    113  C         21.6540   45.8070  165.5580 C.2   151  GLN151      0.2260
    114  O         22.1340   45.2860  166.5790 O.2   151  GLN151     -0.2867
    115  CB        19.3130   46.6350  165.4720 C.3   151  GLN151      0.0367
    116  CG        18.9380   45.3420  166.1530 C.3   151  GLN151      0.0905
    117  CD        17.4410   45.0980  166.1010 C.2   151  GLN151      0.2608
    118  OE1       16.9750   44.1930  165.3880 O.2   151  GLN151     -0.2717
    119  NE2       16.6700   45.9230  166.8350 N.am  151  GLN151     -0.0878
    120  N         19.7660   38.7860  154.5460 N.3   171  PRO171     -0.2102
    121  CA        19.5380   39.8360  153.5510 C.3   171  PRO171      0.1504
    122  C         18.1150   40.3450  153.5610 C.2   171  PRO171      0.2576
    123  O         17.2120   39.5490  153.7650 O.2   171  PRO171     -0.2718
    124  CB        19.8080   39.1260  152.2300 C.3   171  PRO171      0.0282
    125  CG        19.5500   37.6930  152.5080 C.3   171  PRO171      0.0208
    126  CD        20.0350   37.4810  153.9160 C.3   171  PRO171      0.0893
    127  N         17.9390   41.6480  153.3350 N.am  172  THR172     -0.1939
    128  CA        16.6300   42.2850  153.3130 C.3   172  THR172      0.2028
    129  C         15.7490   41.7280  152.1950 C.2   172  THR172      0.2642
    130  O         16.1450   41.7000  151.0290 O.2   172  THR172     -0.2714
    131  CB        16.7840   43.8160  153.1310 C.3   172  THR172      0.1808
    132  OG1       17.5080   44.3650  154.2460 O.3   172  THR172     -0.2208
    133  CG2       15.4200   44.5180  152.9740 C.3   172  THR172      0.0379
    134  N         14.5500   41.2920  152.5550 N.am  173  GLN173     -0.1976
    135  CA        13.5790   40.8480  151.5610 C.3   173  GLN173      0.1601
    136  C         12.7750   42.0340  151.0620 C.2   173  GLN173      0.2287
    137  O         12.3040   42.8330  151.8600 O.2   173  GLN173     -0.2864
    138  CB        12.6480   39.8090  152.1670 C.3   173  GLN173      0.0394
    139  CG        13.3700   38.6240  152.7450 C.3   173  GLN173      0.0908
    140  CD        14.1190   37.8310  151.6950 C.2   173  GLN173      0.2608
    141  OE1       13.5160   37.2680  150.7840 O.2   173  GLN173     -0.2717
    142  NE2       15.4410   37.7840  151.8180 N.am  173  GLN173     -0.0878
    143  N         10.3440   44.5560  152.7700 N.3   181  LEU181     -0.1231
    144  CA         9.2370   44.0090  153.5180 C.3   181  LEU181      0.1693
    145  C          9.2730   44.4910  154.9580 C.2   181  LEU181      0.2593
    146  O         10.3220   44.5070  155.5850 O.2   181  LEU181     -0.2718
    147  CB         9.2920   42.4980  153.4700 C.3   181  LEU181      0.0284
    148  CG         8.7970   42.0130  152.1170 C.3   181  LEU181      0.0019
    149  CD1        9.0620   40.5560  152.0500 C.3   181  LEU181      0.0001
    150  CD2        7.3020   42.3190  151.9560 C.3   181  LEU181      0.0001
    151  N          8.1230   44.8910  155.4780 N.am  182  SER182     -0.1938
    152  CA         8.0740   45.4960  156.7970 C.3   182  SER182      0.2055
    153  C          6.7360   45.2520  157.5160 C.2   182  SER182      0.2644
    154  O          5.6820   45.1490  156.8900 O.2   182  SER182     -0.2714
    155  CB         8.3700   46.9910  156.6880 C.3   182  SER182      0.2130
    156  OG         8.7410   47.5130  157.9450 O.3   182  SER182     -0.2179
    157  N          6.7730   45.1490  158.8340 N.am  183  SER183     -0.1935
    158  CA         5.5270   45.0460  159.5460 C.3   183  SER183      0.2055
    159  C          4.6770   46.3180  159.4570 C.2   183  SER183      0.2642
    160  O          3.4710   46.2270  159.2580 O.2   183  SER183     -0.2714
    161  CB         5.7250   44.5800  160.9900 C.3   183  SER183      0.2130
    162  OG         5.6660   43.1570  161.0860 O.3   183  SER183     -0.2179
    163  N          5.2710   47.5000  159.5740 N.am  184  ARG184     -0.1977
    164  CA         4.4330   48.7080  159.6260 C.3   184  ARG184      0.1597
    165  C          3.7050   48.9760  158.3190 C.2   184  ARG184      0.2287
    166  O          2.7150   49.7060  158.2780 O.2   184  ARG184     -0.2864
    167  CB         5.2250   49.9350  160.0820 C.3   184  ARG184      0.0334
    168  CG         5.4490   49.9600  161.5780 C.3   184  ARG184      0.0492
    169  CD         6.7290   50.7310  161.9120 C.3   184  ARG184      0.2205
    170  NE         6.9440   50.9210  163.3440 N.pl3 184  ARG184     -0.0865
    171  CZ         7.9250   50.3430  164.0320 C.cat 184  ARG184      0.5346
    172  NH1        8.7870   49.5540  163.4150 N.pl3 184  ARG184      0.1354
    173  NH2        8.0530   50.5620  165.3340 N.pl3 184  ARG184      0.1354
@<TRIPOS>BOND
     1   141   140    2
     2   130   129    2
     3   136   135    1
     4   136   137    2
     5   135   138    1
     6   135   134    1
     7   140   142   am
     8   140   139    1
     9   150   148    1
    10   149   148    1
    11   148   147    1
    12   138   139    1
    13   129   134   am
    14   129   128    1
    15   124   125    1
    16   124   121    1
    17   125   126    1
    18   143   144    1
    19   133   131    1
    20   131   128    1
    21   131   132    1
    22   128   127    1
    23   127   122   am
    24   147   144    1
    25   144   145    1
    26   121   122    1
    27   121   120    1
    28   122   123    2
    29   126   120    1
    30   145   151   am
    31   145   146    2
    32    36    37    1
    33   151   152    1
    34    37    38    1
    35    28    27    1
    36    28    29    2
    37    30    27    1
    38    30    31    1
    39    99   100    1
    40    99    98    1
    41    27    26    1
    42   155   152    1
    43   155   156    1
    44    32    31   ar
    45    32    34   ar
    46   152   153    1
    47    38    39    2
    48    38    40   am
    49   154   153    2
    50    31    33   ar
    51   100   101    1
    52    98    95    1
    53   101   102    1
    54    95    94    1
    55    95    96    1
    56    50    51    1
    57   153   157   am
    58    34    35   ar
    59    40    41    1
    60    33    35   ar
    61   166   165    2
    62   165   164    1
    63    56    55    1
    64    97    96    2
    65    42    41    1
    66    42    43    2
    67    96   103   am
    68    51    52    1
    69    51    54    1
    70   157   158    1
    71    41    44    1
    72    92    91    1
    73    92    93    2
    74    52    53    2
    75   160   159    2
    76    91    90    1
    77   159   158    1
    78   159   163   am
    79   158   161    1
    80   163   164    1
    81   164   167    1
    82    54    55    1
    83    55    57    1
    84    44    45    1
    85   103   104    1
    86    46    45   ar
    87    46    48   ar
    88   167   168    1
    89    85    84    2
    90    45    47   ar
    91    90    84   am
    92    48    49   ar
    93   104   105    1
    94   104   107    1
    95   161   162    1
    96    84    83    1
    97    78    76   ar
    98    78    80   ar
    99   110   108   ar
   100   105   106    2
   101    76    75   ar
   102    47    49   ar
   103   168   169    1
   104   108   107    1
   105   108   109   ar
   106   169   170    1
   107    81    80    1
   108    80    79   ar
   109    75    74    1
   110    75    77   ar
   111    74    71    1
   112    83    82    1
   113    83    86    1
   114    82    72   am
   115    72    71    1
   116    72    73    2
   117    71    70    1
   118    86    87    1
   119    79    77   ar
   120   170   171    2
   121   172   171    1
   122    25    24    2
   123     6     5    1
   124     7     5    1
   125    69    68    1
   126   171   173    1
   127    24    23    1
   128    21    19    1
   129     5     2    1
   130   111   112    1
   131    68    66   ar
   132    68    67   ar
   133    66    64   ar
   134    87    88    1
   135    87    89    1
   136    20    19    1
   137    19    16    1
   138    23    22    1
   139   118   117    2
   140    67    65   ar
   141    64    63   ar
   142   115   112    1
   143   115   116    1
   144   113   112    1
   145   113   114    2
   146    60    59    1
   147    60    61    2
   148     2     3    1
   149     2     1    1
   150    11    10    2
   151    59    58    1
   152    59    62    1
   153    65    63   ar
   154   117   116    1
   155   117   119   am
   156    63    62    1
   157    16    17    1
   158    16    15    1
   159     3     4    2
   160     3     8   am
   161    10    15   am
   162    10     9    1
   163     8    14    1
   164     8     9    1
   165    17    18    2
   166    14    13    1
   167    13    12    1
   168     9    12    1
