@<TRIPOS>MOLECULE
tmp/3qttB00.pdb
 89 82 0 0 0
SMALL
GASTEIGER

@<TRIPOS>ATOM
      1  N         14.0550   36.2340  167.1540 N.3    27  PRO27      -0.2102
      2  CA        13.1780   37.1940  167.8250 C.3    27  PRO27       0.1504
      3  C         12.3300   38.0320  166.8580 C.2    27  PRO27       0.2576
      4  O         12.8360   38.5440  165.8770 O.2    27  PRO27      -0.2718
      5  CB        14.1780   38.0860  168.5680 C.3    27  PRO27       0.0282
      6  CG        15.4150   38.0280  167.7310 C.3    27  PRO27       0.0208
      7  CD        15.4770   36.5940  167.2950 C.3    27  PRO27       0.0893
      8  N         11.0510   38.1950  167.1810 N.am   28  THR28      -0.1953
      9  CA        10.1390   38.9730  166.3480 C.3    28  THR28       0.1897
     10  C          9.1110   39.7600  167.1660 C.2    28  THR28       0.2313
     11  O          8.7630   39.3840  168.2870 O.2    28  THR28      -0.2863
     12  CB         9.3870   38.0670  165.3620 C.3    28  THR28       0.1794
     13  OG1       10.3120   37.1620  164.7470 O.3    28  THR28      -0.2208
     14  CG2        8.7010   38.8970  164.2920 C.3    28  THR28       0.0378
     15  N          7.0910   39.0720  170.6290 N.3    54  PHE54      -0.1241
     16  CA         6.8460   39.9790  171.7080 C.3    54  PHE54       0.1605
     17  C          6.9240   41.3940  171.2210 C.2    54  PHE54       0.2264
     18  O          7.9720   41.8430  170.7980 O.2    54  PHE54      -0.2867
     19  CB         7.9060   39.7830  172.7790 C.3    54  PHE54       0.0534
     20  CG         7.7340   40.6740  173.9650 C.ar   54  PHE54      -0.0203
     21  CD1        8.7430   41.5720  174.3300 C.ar   54  PHE54      -0.0042
     22  CD2        6.5690   40.6130  174.7280 C.ar   54  PHE54      -0.0042
     23  CE1        8.6060   42.3920  175.4460 C.ar   54  PHE54      -0.0003
     24  CE2        6.4130   41.4340  175.8500 C.ar   54  PHE54      -0.0003
     25  CZ         7.4370   42.3230  176.2130 C.ar   54  PHE54      -0.0000
     26  N          7.8400   44.6500  172.2260 N.3    56  ASN56      -0.1240
     27  CA         8.4860   45.2370  173.4060 C.3    56  ASN56       0.1653
     28  C          8.2370   46.7360  173.5260 C.2    56  ASN56       0.2266
     29  O          8.7740   47.5200  172.7610 O.2    56  ASN56      -0.2867
     30  CB         9.9920   44.9730  173.3920 C.3    56  ASN56       0.1155
     31  CG        10.7240   45.7100  174.4990 C.2    56  ASN56       0.2627
     32  OD1       10.1520   45.9840  175.5480 O.2    56  ASN56      -0.2716
     33  ND2       11.9860   46.0530  174.2580 N.am   56  ASN56      -0.0877
     34  N         11.0300   49.6100  173.5760 N.3    59  GLN59      -0.1245
     35  CA        11.7360   50.0790  172.3630 C.3    59  GLN59       0.1566
     36  C         10.9990   51.1740  171.6340 C.2    59  GLN59       0.2260
     37  O         11.5470   51.8330  170.7590 O.2    59  GLN59      -0.2867
     38  CB        11.9220   48.9440  171.3590 C.3    59  GLN59       0.0367
     39  CG        12.5580   47.7190  171.9100 C.3    59  GLN59       0.0905
     40  CD        12.4430   46.5600  170.9630 C.2    59  GLN59       0.2608
     41  OE1       12.5470   45.4120  171.3780 O.2    59  GLN59      -0.2717
     42  NE2       12.2410   46.8470  169.6750 N.am   59  GLN59      -0.0878
     43  N         15.6700   44.1630  175.9740 N.3   129  VAL129     -0.1231
     44  CA        14.8080   43.0240  175.6740 C.3   129  VAL129      0.1692
     45  C         15.5820   41.8760  175.0230 C.2   129  VAL129      0.2591
     46  O         15.4180   40.7230  175.4170 O.2   129  VAL129     -0.2718
     47  CB        13.5040   43.4260  174.8750 C.3   129  VAL129      0.0266
     48  CG1       13.7550   43.5510  173.3920 C.3   129  VAL129      0.0020
     49  CG2       12.3960   42.4230  175.1090 C.3   129  VAL129      0.0020
     50  N         16.4390   42.1870  174.0530 N.am  130  VAL130     -0.1980
     51  CA        17.2670   41.1600  173.4270 C.3   130  VAL130      0.1595
     52  C         18.1580   40.4590  174.4350 C.2   130  VAL130      0.2287
     53  O         18.4390   39.2690  174.3190 O.2   130  VAL130     -0.2864
     54  CB        18.1730   41.7260  172.3160 C.3   130  VAL130      0.0276
     55  CG1       18.9590   40.5980  171.6540 C.3   130  VAL130      0.0022
     56  CG2       17.3410   42.4250  171.3010 C.3   130  VAL130      0.0022
     57  N         15.7640   38.2400  176.2580 N.3   133  LEU133     -0.1245
     58  CA        15.3400   37.1650  175.3700 C.3   133  LEU133      0.1561
     59  C         16.4360   36.1300  175.2160 C.2   133  LEU133      0.2260
     60  O         16.1650   34.9290  175.2260 O.2   133  LEU133     -0.2867
     61  CB        14.9550   37.7250  174.0130 C.3   133  LEU133      0.0270
     62  CG        13.5630   38.3540  174.0160 C.3   133  LEU133      0.0019
     63  CD1       13.1580   38.7880  172.6500 C.3   133  LEU133      0.0001
     64  CD2       12.6220   37.3260  174.5160 C.3   133  LEU133      0.0001
     65  N         19.1990   37.5330  162.5590 N.3   144  LEU144     -0.1245
     66  CA        18.8800   38.9330  162.4970 C.3   144  LEU144      0.1561
     67  C         18.8820   39.3690  161.0260 C.2   144  LEU144      0.2260
     68  O         19.6250   38.8040  160.2100 O.2   144  LEU144     -0.2867
     69  CB        19.9520   39.6860  163.2560 C.3   144  LEU144      0.0270
     70  CG        20.1540   39.4120  164.7460 C.3   144  LEU144      0.0019
     71  CD1       21.2900   40.2850  165.2790 C.3   144  LEU144      0.0001
     72  CD2       18.8860   39.7410  165.4740 C.3   144  LEU144      0.0001
     73  N         21.1730   47.9170  164.6240 N.3   151  GLN151     -0.1245
     74  CA        20.7600   47.0180  165.6540 C.3   151  GLN151      0.1566
     75  C         21.6540   45.8070  165.5580 C.2   151  GLN151      0.2260
     76  O         22.1340   45.2860  166.5790 O.2   151  GLN151     -0.2867
     77  CB        19.3130   46.6350  165.4720 C.3   151  GLN151      0.0367
     78  CG        18.9380   45.3420  166.1530 C.3   151  GLN151      0.0905
     79  CD        17.4410   45.0980  166.1010 C.2   151  GLN151      0.2608
     80  OE1       16.9750   44.1930  165.3880 O.2   151  GLN151     -0.2717
     81  NE2       16.6700   45.9230  166.8350 N.am  151  GLN151     -0.0878
     82  N         23.8990   44.3430  168.6210 N.3   154  ILE154     -0.1245
     83  CA        23.6140   43.0690  169.2330 C.3   154  ILE154      0.1561
     84  C         24.8780   42.2730  169.1710 C.2   154  ILE154      0.2260
     85  O         25.1310   41.4610  170.0430 O.2   154  ILE154     -0.2867
     86  CB        22.4610   42.3290  168.5110 C.3   154  ILE154      0.0252
     87  CG1       21.1290   43.0160  168.7790 C.3   154  ILE154      0.0019
     88  CG2       22.3340   40.9120  168.9990 C.3   154  ILE154      0.0019
     89  CD1       19.9950   42.3980  168.0100 C.3   154  ILE154      0.0001
@<TRIPOS>BOND
     1    68    67    2
     2    67    66    1
     3    66    65    1
     4    66    69    1
     5    69    70    1
     6    14    12    1
     7    73    74    1
     8    70    71    1
     9    70    72    1
    10    13    12    1
    11    12     9    1
    12    80    79    2
    13    77    74    1
    14    77    78    1
    15    75    74    1
    16    75    76    2
    17     4     3    2
    18    79    78    1
    19    79    81   am
    20     9    10    1
    21     9     8    1
    22     3     8   am
    23     3     2    1
    24     1     7    1
    25     1     2    1
    26    10    11    2
    27     7     6    1
    28     6     5    1
    29     2     5    1
    30    89    87    1
    31    86    87    1
    32    86    88    1
    33    86    83    1
    34    82    83    1
    35    84    83    1
    36    84    85    2
    37    42    40   am
    38    15    16    1
    39    37    36    2
    40    18    17    2
    41    40    41    2
    42    40    39    1
    43    17    16    1
    44    56    54    1
    45    38    39    1
    46    38    35    1
    47    36    35    1
    48    55    54    1
    49    16    19    1
    50    26    27    1
    51    54    51    1
    52    35    34    1
    53    63    62    1
    54    29    28    2
    55    19    20    1
    56    30    27    1
    57    30    31    1
    58    48    47    1
    59    27    28    1
    60    51    50    1
    61    51    52    1
    62    20    21   ar
    63    20    22   ar
    64    61    62    1
    65    61    58    1
    66    62    64    1
    67    50    45   am
    68    33    31   am
    69    53    52    2
    70    21    23   ar
    71    31    32    2
    72    22    24   ar
    73    47    49    1
    74    47    44    1
    75    45    46    2
    76    45    44    1
    77    59    60    2
    78    59    58    1
    79    58    57    1
    80    23    25   ar
    81    44    43    1
    82    24    25   ar
