@<TRIPOS>MOLECULE
tmp/3qtuA00.pdb
 190 181 0 0 0
SMALL
GASTEIGER

@<TRIPOS>ATOM
      1  N        121.4560   13.1800  -42.7650 N.3    10  ILE10      -0.1231
      2  CA       120.4030   12.2180  -43.0660 C.3    10  ILE10       0.1692
      3  C        120.5920   10.9380  -42.2630 C.2    10  ILE10       0.2593
      4  O        119.8790   10.6840  -41.2940 O.2    10  ILE10      -0.2718
      5  CB       120.4220   11.7900  -44.5460 C.3    10  ILE10       0.0266
      6  CG1      120.1760   12.9730  -45.4720 C.3    10  ILE10       0.0019
      7  CG2      119.3730   10.7240  -44.7730 C.3    10  ILE10       0.0020
      8  CD1      120.3080   12.5720  -46.9600 C.3    10  ILE10       0.0001
      9  N        121.5670   10.1360  -42.6880 N.am   11  GLY11      -0.1942
     10  CA       121.8320    8.8660  -42.0350 C.3    11  GLY11       0.2014
     11  C        123.2190    8.6960  -41.4480 C.2    11  GLY11       0.2639
     12  O        124.1260    9.4910  -41.7020 O.2    11  GLY11      -0.2714
     13  N        123.3680    7.6400  -40.6550 N.am   12  GLU12      -0.1963
     14  CA       124.6230    7.3100  -39.9890 C.3    12  GLU12       0.1733
     15  C        125.0760    5.9380  -40.4790 C.2    12  GLU12       0.2617
     16  O        125.3850    5.0490  -39.6830 O.2    12  GLU12      -0.2715
     17  CB       124.4040    7.2770  -38.4710 C.3    12  GLU12       0.0429
     18  CG       125.6500    7.0230  -37.6420 C.3    12  GLU12       0.1163
     19  CD       126.6660    8.1380  -37.7690 C.2    12  GLU12       0.3649
     20  OE1      126.3070    9.3020  -37.4860 O.co2  12  GLU12      -0.2457
     21  OE2      127.8200    7.8480  -38.1500 O.co2  12  GLU12      -0.2457
     22  N        125.1100    5.7700  -41.7960 N.am   13  GLY13      -0.1940
     23  CA       125.5140    4.4980  -42.3610 C.3    13  GLY13       0.2014
     24  C        126.8540    4.0160  -41.8450 C.2    13  GLY13       0.2639
     25  O        127.5980    4.7690  -41.2190 O.2    13  GLY13      -0.2714
     26  N        127.1580    2.7480  -42.0960 N.am   14  THR14      -0.1950
     27  CA       128.4270    2.1800  -41.6660 C.3    14  THR14       0.1897
     28  C        129.5200    2.7070  -42.5870 C.2    14  THR14       0.2313
     29  O        129.3390    2.7630  -43.8110 O.2    14  THR14      -0.2863
     30  CB       128.4100    0.6390  -41.7330 C.3    14  THR14       0.1794
     31  OG1      128.0400    0.2210  -43.0530 O.3    14  THR14      -0.2208
     32  CG2      127.4220    0.0710  -40.7240 C.3    14  THR14       0.0378
     33  N        125.7830   10.3060  -43.8330 N.3    18  VAL18      -0.1245
     34  CA       125.1850   10.8070  -45.0590 C.3    18  VAL18       0.1561
     35  C        124.5020   12.1350  -44.7940 C.2    18  VAL18       0.2260
     36  O        123.7540   12.2830  -43.8220 O.2    18  VAL18      -0.2867
     37  CB       124.1620    9.8170  -45.6130 C.3    18  VAL18       0.0252
     38  CG1      123.8320   10.1670  -47.0680 C.3    18  VAL18       0.0019
     39  CG2      124.7140    8.4130  -45.4950 C.3    18  VAL18       0.0019
     40  N        122.8200   13.8520  -52.1190 N.3    31  ALA31      -0.1245
     41  CA       123.0330   13.1300  -50.8730 C.3    31  ALA31       0.1562
     42  C        124.5480   12.9760  -50.9200 C.2    31  ALA31       0.2260
     43  O        125.1090   12.5860  -51.9480 O.2    31  ALA31      -0.2867
     44  CB       122.3550   11.7610  -50.8900 C.3    31  ALA31       0.0290
     45  N        127.8930   11.2640  -48.9990 N.3    33  LYS33      -0.1245
     46  CA       128.3860   10.3470  -47.9760 C.3    33  LYS33       0.1561
     47  C        129.8670   10.6380  -47.7550 C.2    33  LYS33       0.2260
     48  O        130.6410   10.7090  -48.7080 O.2    33  LYS33      -0.2867
     49  CB       128.2050    8.8940  -48.4010 C.3    33  LYS33       0.0271
     50  CG       128.4940    7.8910  -47.2780 C.3    33  LYS33       0.0035
     51  CD       128.4500    6.4730  -47.8080 C.3    33  LYS33       0.0206
     52  CE       128.6150    5.4620  -46.6950 C.3    33  LYS33       0.1093
     53  NZ       128.6070    4.0750  -47.2430 N.3    33  LYS33      -0.1314
     54  N        120.2240    4.2440  -57.5440 N.3    60  VAL60      -0.1245
     55  CA       120.5470    5.6490  -57.2450 C.3    60  VAL60       0.1561
     56  C        121.8470    6.0130  -57.9830 C.2    60  VAL60       0.2260
     57  O        122.8620    5.3300  -57.8470 O.2    60  VAL60      -0.2867
     58  CB       120.7420    5.8710  -55.7170 C.3    60  VAL60       0.0252
     59  CG1      121.2920    7.2640  -55.4370 C.3    60  VAL60       0.0019
     60  CG2      119.4170    5.7200  -55.0170 C.3    60  VAL60       0.0019
     61  N        125.7470   11.4290  -54.4370 N.3    76  PHE76      -0.1227
     62  CA       124.6270   10.7340  -55.0730 C.3    76  PHE76       0.1736
     63  C        123.4770   11.6710  -55.4030 C.2    76  PHE76       0.2595
     64  O        123.3070   12.7170  -54.7730 O.2    76  PHE76      -0.2718
     65  CB       124.0510    9.6720  -54.1260 C.3    76  PHE76       0.0547
     66  CG       125.0390    8.6450  -53.6650 C.ar   76  PHE76      -0.0202
     67  CD1      125.3300    7.5370  -54.4590 C.ar   76  PHE76      -0.0042
     68  CD2      125.6120    8.7380  -52.4000 C.ar   76  PHE76      -0.0042
     69  CE1      126.1710    6.5260  -53.9930 C.ar   76  PHE76      -0.0003
     70  CE2      126.4540    7.7370  -51.9230 C.ar   76  PHE76      -0.0003
     71  CZ       126.7310    6.6250  -52.7240 C.ar   76  PHE76      -0.0000
     72  N        122.6640   11.2700  -56.3730 N.am   77  GLU77      -0.1965
     73  CA       121.4740   12.0450  -56.7020 C.3    77  GLU77       0.1733
     74  C        120.6030   11.8880  -55.4470 C.2    77  GLU77       0.2616
     75  O        120.5500   10.8170  -54.8400 O.2    77  GLU77      -0.2715
     76  CB       120.7540   11.4470  -57.9100 C.3    77  GLU77       0.0429
     77  CG       120.0810   10.1200  -57.6300 C.3    77  GLU77       0.1163
     78  CD       119.2540    9.6260  -58.8020 C.2    77  GLU77       0.3649
     79  OE1      118.4270   10.4080  -59.3180 O.co2  77  GLU77      -0.2457
     80  OE2      119.4250    8.4550  -59.2010 O.co2  77  GLU77      -0.2457
     81  N        119.9200   12.9470  -55.0570 N.am   78  PHE78      -0.1960
     82  CA       119.0960   12.9180  -53.8540 C.3    78  PHE78       0.1771
     83  C        117.6540   12.4560  -54.0780 C.2    78  PHE78       0.2619
     84  O        117.0230   12.8410  -55.0660 O.2    78  PHE78      -0.2715
     85  CB       119.0860   14.3280  -53.2560 C.3    78  PHE78       0.0574
     86  CG       118.2890   14.4620  -51.9920 C.ar   78  PHE78      -0.0200
     87  CD1      116.9810   14.9310  -52.0190 C.ar   78  PHE78      -0.0042
     88  CD2      118.8580   14.1280  -50.7570 C.ar   78  PHE78      -0.0042
     89  CE1      116.2450   15.0710  -50.8390 C.ar   78  PHE78      -0.0003
     90  CE2      118.1350   14.2630  -49.5770 C.ar   78  PHE78      -0.0003
     91  CZ       116.8210   14.7370  -49.6190 C.ar   78  PHE78      -0.0000
     92  N        117.1520   11.6110  -53.1760 N.am   79  LEU79      -0.1963
     93  CA       115.7520   11.1680  -53.2160 C.3    79  LEU79       0.1728
     94  C        115.1790   11.6060  -51.8610 C.2    79  LEU79       0.2616
     95  O        115.9170   11.6990  -50.8800 O.2    79  LEU79      -0.2715
     96  CB       115.6370    9.6550  -53.4500 C.3    79  LEU79       0.0311
     97  CG       115.6760    9.2840  -54.9410 C.3    79  LEU79       0.0022
     98  CD1      117.1290    9.0870  -55.3860 C.3    79  LEU79       0.0001
     99  CD2      114.8620    8.0240  -55.1910 C.3    79  LEU79       0.0001
    100  N        113.8740   11.8780  -51.7900 N.am   80  HIS80      -0.1959
    101  CA       113.3010   12.4130  -50.5550 C.3    80  HIS80       0.1787
    102  C        112.9310   11.5600  -49.3770 C.2    80  HIS80       0.2620
    103  O        112.7010   12.0950  -48.2800 O.2    80  HIS80      -0.2715
    104  CB       112.1130   13.3070  -50.9020 C.3    80  HIS80       0.0785
    105  CG       112.5150   14.5960  -51.5450 C.ar   80  HIS80       0.0821
    106  ND1      112.5610   15.7890  -50.8580 N.ar   80  HIS80      -0.2267
    107  CD2      112.9520   14.8650  -52.7980 C.ar   80  HIS80       0.1154
    108  CE1      113.0090   16.7390  -51.6610 C.ar   80  HIS80       0.1986
    109  NE2      113.2550   16.2040  -52.8440 N.ar   80  HIS80      -0.2212
    110  N        112.8640   10.2470  -49.5530 N.am   81  GLN81      -0.1963
    111  CA       112.5010    9.4200  -48.4050 C.3    81  GLN81       0.1733
    112  C        113.0160    7.9980  -48.5990 C.2    81  GLN81       0.2616
    113  O        113.1900    7.5590  -49.7360 O.2    81  GLN81      -0.2715
    114  CB       110.9800    9.4200  -48.2480 C.3    81  GLN81       0.0408
    115  CG       110.4670    8.8080  -46.9610 C.3    81  GLN81       0.0908
    116  CD       109.0550    9.2610  -46.6400 C.2    81  GLN81       0.2608
    117  OE1      108.8180   10.4330  -46.3290 O.2    81  GLN81      -0.2717
    118  NE2      108.1110    8.3380  -46.7180 N.am   81  GLN81      -0.0878
    119  N        113.3110    7.2980  -47.5040 N.am   82  ASP82      -0.1971
    120  CA       113.7450    5.9170  -47.6630 C.3    82  ASP82       0.1709
    121  C        112.5850    5.0200  -47.2910 C.2    82  ASP82       0.2293
    122  O        111.5900    5.4870  -46.7210 O.2    82  ASP82      -0.2864
    123  CB       115.0040    5.5760  -46.8520 C.3    82  ASP82       0.1436
    124  CG       114.8160    5.7100  -45.3410 C.2    82  ASP82       0.3671
    125  OD1      113.7310    5.4100  -44.8140 O.co2  82  ASP82      -0.2456
    126  OD2      115.7940    6.0990  -44.6800 O.co2  82  ASP82      -0.2456
    127  N        111.4020    4.8130  -43.4540 N.3    85  LYS85      -0.1245
    128  CA       110.5070    5.8700  -43.0030 C.3    85  LYS85       0.1561
    129  C        109.1080    5.6590  -43.5650 C.2    85  LYS85       0.2260
    130  O        108.1120    5.7900  -42.8530 O.2    85  LYS85      -0.2867
    131  CB       111.0400    7.2550  -43.4310 C.3    85  LYS85       0.0271
    132  CG       110.1320    8.4090  -43.0050 C.3    85  LYS85       0.0035
    133  CD       110.7970    9.7530  -43.2610 C.3    85  LYS85       0.0206
    134  CE       110.0990   10.8940  -42.5360 C.3    85  LYS85       0.1093
    135  NZ       110.8210   12.1940  -42.7250 N.3    85  LYS85      -0.1314
    136  N        124.2370   -5.4530  -48.9290 N.3   123  ASP123     -0.1239
    137  CA       123.6380   -4.9830  -47.6980 C.3   123  ASP123      0.1674
    138  C        122.3020   -4.3010  -47.9210 C.2   123  ASP123      0.2266
    139  O        122.0950   -3.1710  -47.4910 O.2   123  ASP123     -0.2867
    140  CB       124.6120   -4.0430  -46.9730 C.3   123  ASP123      0.1410
    141  CG       124.1950   -3.7640  -45.5280 C.2   123  ASP123      0.3668
    142  OD1      123.5420   -4.6330  -44.8850 O.co2 123  ASP123     -0.2456
    143  OD2      124.5350   -2.6740  -45.0260 O.co2 123  ASP123     -0.2456
    144  N        118.6650   -3.2490  -47.2770 N.3   125  LYS125     -0.1245
    145  CA       117.8540   -3.0550  -46.0860 C.3   125  LYS125      0.1561
    146  C        116.9780   -1.8420  -46.4150 C.2   125  LYS125      0.2260
    147  O        117.3050   -1.0640  -47.3220 O.2   125  LYS125     -0.2867
    148  CB       118.7440   -2.7890  -44.8840 C.3   125  LYS125      0.0271
    149  CG       119.7800   -1.7080  -45.0890 C.3   125  LYS125      0.0035
    150  CD       120.7380   -1.7360  -43.9000 C.3   125  LYS125      0.0206
    151  CE       121.8770   -0.7680  -44.0510 C.3   125  LYS125      0.1093
    152  NZ       122.8580   -0.9870  -42.9480 N.3   125  LYS125     -0.1314
    153  N        116.6900    1.0740  -45.2500 N.3   127  GLN127     -0.1231
    154  CA       117.3910    2.3630  -45.2530 C.3   127  GLN127      0.1698
    155  C        118.1680    2.5910  -46.5450 C.2   127  GLN127      0.2592
    156  O        118.5070    3.7310  -46.8720 O.2   127  GLN127     -0.2718
    157  CB       118.3560    2.4500  -44.0660 C.3   127  GLN127      0.0381
    158  CG       117.6630    2.4740  -42.7170 C.3   127  GLN127      0.0905
    159  CD       118.6420    2.4230  -41.5680 C.2   127  GLN127      0.2608
    160  OE1      119.4540    1.5030  -41.4740 O.2   127  GLN127     -0.2717
    161  NE2      118.5750    3.4140  -40.6860 N.am  127  GLN127     -0.0878
    162  N        118.4440    1.5160  -47.2820 N.am  128  ASN128     -0.1974
    163  CA       119.1820    1.6250  -48.5430 C.3   128  ASN128      0.1688
    164  C        118.2620    1.5790  -49.7660 C.2   128  ASN128      0.2292
    165  O        118.7350    1.4090  -50.8960 O.2   128  ASN128     -0.2864
    166  CB       120.2250    0.5020  -48.6640 C.3   128  ASN128      0.1181
    167  CG       121.4350    0.7120  -47.7570 C.2   128  ASN128      0.2629
    168  OD1      121.7540    1.8370  -47.3630 O.2   128  ASN128     -0.2716
    169  ND2      122.1280   -0.3690  -47.4510 N.am  128  ASN128     -0.0877
    170  N        115.3970    3.8530  -51.6120 N.3   130  LEU130     -0.1245
    171  CA       114.8900    5.2130  -51.6410 C.3   130  LEU130      0.1561
    172  C        113.7180    5.3800  -52.6040 C.2   130  LEU130      0.2260
    173  O        113.7070    4.7860  -53.6830 O.2   130  LEU130     -0.2867
    174  CB       116.0200    6.1560  -52.0660 C.3   130  LEU130      0.0270
    175  CG       117.2630    6.0510  -51.1920 C.3   130  LEU130      0.0019
    176  CD1      118.4090    6.7010  -51.8980 C.3   130  LEU130      0.0001
    177  CD2      116.9990    6.6890  -49.8340 C.3   130  LEU130      0.0001
    178  N        120.2350    1.9610  -53.1990 N.3   140  ALA140     -0.1231
    179  CA       121.2630    2.9350  -52.8220 C.3   140  ALA140      0.1694
    180  C        122.4090    2.3160  -52.0210 C.2   140  ALA140      0.2592
    181  O        122.2450    1.2950  -51.3660 O.2   140  ALA140     -0.2718
    182  CB       120.6570    4.0690  -52.0130 C.3   140  ALA140      0.0304
    183  N        123.5590    2.9750  -52.0910 N.am  141  ASP141     -0.1974
    184  CA       124.7850    2.5970  -51.3880 C.3   141  ASP141      0.1709
    185  C        125.2720    1.1470  -51.5050 C.2   141  ASP141      0.2293
    186  O        125.3360    0.4270  -50.5120 O.2   141  ASP141     -0.2864
    187  CB       124.6540    2.9620  -49.9060 C.3   141  ASP141      0.1436
    188  CG       126.0130    3.1580  -49.2270 C.2   141  ASP141      0.3671
    189  OD1      126.0580    3.1290  -47.9880 O.co2 141  ASP141     -0.2456
    190  OD2      127.0270    3.3460  -49.9370 O.co2 141  ASP141     -0.2456
@<TRIPOS>BOND
     1    79    78   ar
     2    80    78   ar
     3    78    77    1
     4    56    57    2
     5    56    55    1
     6    76    77    1
     7    76    73    1
     8    54    55    1
     9    55    58    1
    10    73    72    1
    11    73    74    1
    12    72    63   am
    13    58    59    1
    14    58    60    1
    15    74    81   am
    16    74    75    2
    17    63    62    1
    18    63    64    2
    19    98    97    1
    20    99    97    1
    21    62    61    1
    22    62    65    1
    23    84    83    2
    24    81    82    1
    25    97    96    1
    26    67    69   ar
    27    67    66   ar
    28    65    66    1
    29    83    82    1
    30    83    92   am
    31    69    71   ar
    32    82    85    1
    33   173   172    2
    34    66    68   ar
    35    96    93    1
    36    85    86    1
    37    93    92    1
    38    93    94    1
    39   178   179    1
    40   109   107   ar
    41   109   108   ar
    42   179   180    1
    43   179   182    1
    44   107   105   ar
    45    71    70   ar
    46   172   171    1
    47    68    70   ar
    48    40    41    1
    49   183   180   am
    50   183   184    1
    51   174   171    1
    52   174   175    1
    53   180   181    2
    54    87    86   ar
    55    87    89   ar
    56    86    88   ar
    57    43    42    2
    58   176   175    1
    59    94   100   am
    60    94    95    2
    61   100   101    1
    62   108   106   ar
    63   171   170    1
    64   105   104    1
    65   105   106   ar
    66   185   184    1
    67   185   186    2
    68   184   187    1
    69   175   177    1
    70    42    41    1
    71   104   101    1
    72   165   164    2
    73    44    41    1
    74    89    91   ar
    75    88    90   ar
    76   101   102    1
    77   190   188   ar
    78   187   188    1
    79   164   163    1
    80   113   112    2
    81    91    90   ar
    82   110   102   am
    83   110   111    1
    84   102   103    2
    85   188   189   ar
    86    45    46    1
    87   136   137    1
    88    48    47    2
    89   166   163    1
    90   166   167    1
    91   112   111    1
    92   112   119   am
    93   163   162    1
    94   111   114    1
    95    49    46    1
    96    49    50    1
    97   114   115    1
    98    46    47    1
    99   138   137    1
   100   138   139    2
   101    51    50    1
   102    51    52    1
   103   167   169   am
   104   167   168    2
   105   137   140    1
   106   120   119    1
   107   120   121    1
   108   120   123    1
   109   147   146    2
   110   121   122    2
   111   162   155   am
   112   144   145    1
   113    53    52    1
   114    38    37    1
   115   140   141    1
   116   115   116    1
   117     8     6    1
   118   156   155    2
   119   123   124    1
   120   118   116   am
   121   116   117    2
   122   155   154    1
   123   146   145    1
   124   145   148    1
   125    37    39    1
   126    37    34    1
   127   141   143   ar
   128   141   142   ar
   129     6     5    1
   130   124   125   ar
   131   124   126   ar
   132   154   153    1
   133   154   157    1
   134   149   148    1
   135   149   150    1
   136    34    35    1
   137    34    33    1
   138    35    36    2
   139     7     5    1
   140     5     2    1
   141   157   158    1
   142   151   150    1
   143   151   152    1
   144    29    28    2
   145   129   128    1
   146   129   130    2
   147   127   128    1
   148   131   132    1
   149   131   128    1
   150   133   132    1
   151   133   134    1
   152     2     1    1
   153     2     3    1
   154    31    30    1
   155   135   134    1
   156   158   159    1
   157     9     3   am
   158     9    10    1
   159    28    27    1
   160    23    24    1
   161    23    22    1
   162     3     4    2
   163    26    24   am
   164    26    27    1
   165    10    11    1
   166    24    25    2
   167    22    15   am
   168    30    27    1
   169    30    32    1
   170    12    11    2
   171   159   160    2
   172   159   161   am
   173    11    13   am
   174    13    14    1
   175    15    14    1
   176    15    16    2
   177    14    17    1
   178    17    18    1
   179    21    19   ar
   180    19    18    1
   181    19    20   ar
