@<TRIPOS>MOLECULE
tmp/3qtvB01.pdb
 206 208 0 0 0
SMALL
GASTEIGER

@<TRIPOS>ATOM
      1  N         22.4620   -5.8050   18.2430 N.3    43  HIS43      -0.1241
      2  CA        22.2910   -7.1610   17.7340 C.3    43  HIS43       0.1621
      3  C         21.5290   -7.2100   16.4020 C.2    43  HIS43       0.2264
      4  O         21.5350   -8.2390   15.7270 O.2    43  HIS43      -0.2867
      5  CB        21.6460   -8.0930   18.7780 C.3    43  HIS43       0.0745
      6  CG        20.1520   -7.9920   18.8530 C.ar   43  HIS43       0.0817
      7  ND1       19.5080   -7.2260   19.8010 N.ar   43  HIS43      -0.2268
      8  CD2       19.1800   -8.5610   18.0980 C.ar   43  HIS43       0.1154
      9  CE1       18.2000   -7.3220   19.6220 C.ar   43  HIS43       0.1986
     10  NE2       17.9760   -8.1260   18.5950 N.ar   43  HIS43      -0.2212
     11  N         25.7470   -9.8610   15.2260 N.3    47  TYR47      -0.1241
     12  CA        25.5080  -10.9810   16.1310 C.3    47  TYR47       0.1605
     13  C         26.1520  -12.2460   15.5680 C.2    47  TYR47       0.2264
     14  O         25.5090  -13.0660   14.9100 O.2    47  TYR47      -0.2867
     15  CB        24.0090  -11.1720   16.4210 C.3    47  TYR47       0.0534
     16  CG        23.7800  -12.0820   17.5980 C.ar   47  TYR47      -0.0201
     17  CD1       24.1710  -11.7010   18.8740 C.ar   47  TYR47      -0.0009
     18  CD2       23.2080  -13.3340   17.4290 C.ar   47  TYR47      -0.0009
     19  CE1       23.9880  -12.5460   19.9590 C.ar   47  TYR47       0.0417
     20  CE2       23.0140  -14.1760   18.4980 C.ar   47  TYR47       0.0417
     21  CZ        23.4110  -13.7790   19.7610 C.ar   47  TYR47       0.1957
     22  OH        23.2250  -14.6300   20.8230 O.3    47  TYR47      -0.2866
     23  N         24.8630  -15.9290   15.1070 N.3    50  TRP50      -0.1241
     24  CA        23.9370  -16.1810   14.0040 C.3    50  TRP50       0.1605
     25  C         24.5140  -15.7260   12.6710 C.2    50  TRP50       0.2264
     26  O         23.7690  -15.5240   11.7090 O.2    50  TRP50      -0.2867
     27  CB        22.6060  -15.4710   14.2400 C.3    50  TRP50       0.0550
     28  CG        21.8300  -15.9880   15.4200 C.ar   50  TRP50       0.0003
     29  CD1       22.0950  -17.1050   16.1510 C.ar   50  TRP50       0.0946
     30  CD2       20.6500  -15.4060   15.9860 C.ar   50  TRP50       0.0152
     31  NE1       21.1560  -17.2550   17.1460 N.ar   50  TRP50      -0.2442
     32  CE2       20.2560  -16.2260   17.0620 C.ar   50  TRP50       0.0810
     33  CE3       19.8860  -14.2760   15.6840 C.ar   50  TRP50       0.0012
     34  CZ2       19.1360  -15.9440   17.8440 C.ar   50  TRP50       0.0191
     35  CZ3       18.7720  -13.9970   16.4650 C.ar   50  TRP50       0.0001
     36  CH2       18.4090  -14.8280   17.5280 C.ar   50  TRP50       0.0015
     37  N         28.0640   -9.1110   22.7320 N.3    92  TRP92      -0.1241
     38  CA        27.3150  -10.1160   21.9860 C.3    92  TRP92       0.1605
     39  C         27.6840  -11.5240   22.4190 C.2    92  TRP92       0.2264
     40  O         26.9840  -12.4750   22.0870 O.2    92  TRP92      -0.2867
     41  CB        27.5370   -9.9770   20.4770 C.3    92  TRP92       0.0550
     42  CG        28.9830   -9.9350   20.0440 C.ar   92  TRP92       0.0003
     43  CD1       29.7350   -8.8130   19.7980 C.ar   92  TRP92       0.0946
     44  CD2       29.8490  -11.0570   19.7970 C.ar   92  TRP92       0.0152
     45  NE1       31.0090   -9.1710   19.4100 N.ar   92  TRP92      -0.2442
     46  CE2       31.1010  -10.5400   19.3960 C.ar   92  TRP92       0.0810
     47  CE3       29.6790  -12.4440   19.8540 C.ar   92  TRP92       0.0012
     48  CZ2       32.1760  -11.3620   19.0680 C.ar   92  TRP92       0.0191
     49  CZ3       30.7530  -13.2580   19.5240 C.ar   92  TRP92       0.0001
     50  CH2       31.9820  -12.7130   19.1370 C.ar   92  TRP92       0.0015
     51  N         27.9130  -12.7380   25.5350 N.3    94  GLU94      -0.1231
     52  CA        27.2570  -13.2530   26.7360 C.3    94  GLU94       0.1699
     53  C         25.7740  -12.9230   26.8800 C.2    94  GLU94       0.2592
     54  O         24.9320  -13.8200   26.8070 O.2    94  GLU94      -0.2718
     55  CB        27.9900  -12.8030   28.0080 C.3    94  GLU94       0.0402
     56  CG        27.2930  -13.3040   29.2700 C.3    94  GLU94       0.1161
     57  CD        27.8360  -12.7120   30.5540 C.2    94  GLU94       0.3649
     58  OE1       28.8270  -11.9460   30.5070 O.co2  94  GLU94      -0.2457
     59  OE2       27.2570  -13.0260   31.6200 O.co2  94  GLU94      -0.2457
     60  N         25.4590  -11.6430   27.1130 N.am   95  ASN95      -0.1960
     61  CA        24.1220  -11.2560   27.5540 C.3    95  ASN95       0.1819
     62  C         23.5560  -10.0170   26.8730 C.2    95  ASN95       0.2621
     63  O         22.6010   -9.4240   27.3790 O.2    95  ASN95      -0.2715
     64  CB        24.1300  -11.0120   29.0650 C.3    95  ASN95       0.1195
     65  CG        25.1060   -9.9170   29.4630 C.2    95  ASN95       0.2630
     66  OD1       25.8290   -9.3920   28.6150 O.2    95  ASN95      -0.2716
     67  ND2       25.1300   -9.5610   30.7520 N.am   95  ASN95      -0.0877
     68  N         24.1400   -9.6280   25.7380 N.am   96  LEU96      -0.1977
     69  CA        23.7170   -8.4240   25.0130 C.3    96  LEU96       0.1596
     70  C         23.8430   -7.1350   25.8440 C.2    96  LEU96       0.2287
     71  O         23.0980   -6.1770   25.6430 O.2    96  LEU96      -0.2864
     72  CB        22.2770   -8.5800   24.4930 C.3    96  LEU96       0.0297
     73  CG        22.0450   -9.0110   23.0420 C.3    96  LEU96       0.0022
     74  CD1       23.0890   -9.9720   22.5320 C.3    96  LEU96       0.0001
     75  CD2       20.6200   -9.5650   22.8410 C.3    96  LEU96       0.0001
     76  N         20.1500  -15.7130   32.6940 N.3   172  ILE172     -0.1245
     77  CA        21.0580  -14.7780   32.0410 C.3   172  ILE172      0.1561
     78  C         21.4190  -13.6520   33.0030 C.2   172  ILE172      0.2260
     79  O         20.5670  -13.1690   33.7520 O.2   172  ILE172     -0.2867
     80  CB        20.4230  -14.2210   30.7460 C.3   172  ILE172      0.0252
     81  CG1       20.2650  -15.3610   29.7330 C.3   172  ILE172      0.0019
     82  CG2       21.2630  -13.0760   30.1700 C.3   172  ILE172      0.0019
     83  CD1       19.4200  -14.9880   28.5520 C.3   172  ILE172      0.0001
     84  N          4.0910   -8.6780   24.8630 N.3   192  ASP192     -0.1225
     85  CA         5.5500   -8.7250   24.8440 C.3   192  ASP192      0.1805
     86  C          6.0160   -8.3650   23.4520 C.2   192  ASP192      0.2598
     87  O          5.2310   -8.4010   22.5000 O.2   192  ASP192     -0.2718
     88  CB         6.0140  -10.1510   25.1880 C.3   192  ASP192      0.1424
     89  CG         7.4990  -10.2480   25.5600 C.2   192  ASP192      0.3668
     90  OD1        8.2100   -9.2230   25.6740 O.co2 192  ASP192     -0.2456
     91  OD2        7.9590  -11.3950   25.7630 O.co2 192  ASP192     -0.2456
     92  N          7.2930   -8.0210   23.3400 N.am  193  ALA193     -0.1966
     93  CA         7.9390   -7.9360   22.0470 C.3   193  ALA193      0.1728
     94  C          8.3030   -9.3450   21.6150 C.2   193  ALA193      0.2616
     95  O          8.2360  -10.2880   22.4130 O.2   193  ALA193     -0.2715
     96  CB         9.1820   -7.0750   22.1350 C.3   193  ALA193      0.0334
     97  N          8.6880   -9.4990   20.3550 N.am  194  CYS194     -0.1954
     98  CA         9.0790  -10.8120   19.8580 C.3   194  CYS194      0.1843
     99  C         10.1070  -10.6570   18.7370 C.2   194  CYS194      0.2625
    100  O         10.5240   -9.5400   18.4150 O.2   194  CYS194     -0.2714
    101  CB         7.8350  -11.5660   19.3720 C.3   194  CYS194      0.0997
    102  SG         8.0100  -13.3920   19.3210 S.3   194  CYS194     -0.0797
    103  N         10.5440  -11.7720   18.1620 N.am  195  GLU195     -0.1977
    104  CA        11.4890  -11.7060   17.0660 C.3   195  GLU195      0.1602
    105  C         10.9820  -10.7560   15.9730 C.2   195  GLU195      0.2287
    106  O          9.8080  -10.7590   15.6080 O.2   195  GLU195     -0.2864
    107  CB        11.7840  -13.1080   16.5240 C.3   195  GLU195      0.0415
    108  CG        12.7830  -13.9090   17.3750 C.3   195  GLU195      0.1163
    109  CD        12.2360  -14.3400   18.7360 C.2   195  GLU195      0.3649
    110  OE1       13.0390  -14.4860   19.6820 O.co2 195  GLU195     -0.2457
    111  OE2       11.0150  -14.5550   18.8640 O.co2 195  GLU195     -0.2457
    112  N         13.0250   -6.4610   17.6160 N.3   198  SER198     -0.1217
    113  CA        14.3800   -6.0460   17.9970 C.3   198  SER198      0.1889
    114  C         14.7060   -4.6760   17.4670 C.2   198  SER198      0.2288
    115  O         14.4610   -4.4000   16.3020 O.2   198  SER198     -0.2866
    116  CB        15.4110   -6.9920   17.3780 C.3   198  SER198      0.2089
    117  OG        15.3790   -8.2650   17.9900 O.3   198  SER198     -0.2183
    118  N         14.1220   -2.4820   22.2930 N.3   218  VAL218     -0.1231
    119  CA        13.8310   -3.9190   22.3440 C.3   218  VAL218      0.1692
    120  C         15.1240   -4.7150   22.1600 C.2   218  VAL218      0.2593
    121  O         15.7880   -4.6160   21.1270 O.2   218  VAL218     -0.2718
    122  CB        12.8260   -4.3410   21.2640 C.3   218  VAL218      0.0266
    123  CG1       12.6120   -5.8660   21.3020 C.3   218  VAL218      0.0020
    124  CG2       11.4970   -3.5960   21.4580 C.3   218  VAL218      0.0020
    125  N         15.4790   -5.5060   23.1710 N.am  219  SER219     -0.1938
    126  CA        16.7690   -6.1950   23.1670 C.3   219  SER219      0.2055
    127  C         16.6550   -7.7180   23.1740 C.2   219  SER219      0.2643
    128  O         17.0920   -8.3680   22.2350 O.2   219  SER219     -0.2714
    129  CB        17.6230   -5.7110   24.3500 C.3   219  SER219      0.2130
    130  OG        18.9100   -6.3030   24.3690 O.3   219  SER219     -0.2179
    131  N         16.0930   -8.2960   24.2270 N.am  220  TRP220     -0.1959
    132  CA        16.0370   -9.7550   24.3110 C.3   220  TRP220      0.1771
    133  C         14.9400  -10.2940   25.2080 C.2   220  TRP220      0.2620
    134  O         14.3260   -9.5640   25.9880 O.2   220  TRP220     -0.2715
    135  CB        17.3960  -10.3450   24.7280 C.3   220  TRP220      0.0590
    136  CG        17.9130   -9.9470   26.1140 C.ar  220  TRP220      0.0006
    137  CD1       18.6640   -8.8540   26.4200 C.ar  220  TRP220      0.0946
    138  CD2       17.7500  -10.6770   27.3430 C.ar  220  TRP220      0.0152
    139  NE1       18.9740   -8.8450   27.7620 N.ar  220  TRP220     -0.2442
    140  CE2       18.4270   -9.9550   28.3510 C.ar  220  TRP220      0.0810
    141  CE3       17.0960  -11.8680   27.6880 C.ar  220  TRP220      0.0012
    142  CZ2       18.4660  -10.3800   29.6850 C.ar  220  TRP220      0.0191
    143  CZ3       17.1410  -12.2950   29.0200 C.ar  220  TRP220      0.0001
    144  CH2       17.8190  -11.5520   29.9960 C.ar  220  TRP220      0.0015
    145  N         14.7060  -11.5950   25.0780 N.am  221  GLY221     -0.1940
    146  CA        13.6890  -12.2690   25.8520 C.3   221  GLY221      0.2014
    147  C         13.8020  -13.7540   25.5730 C.2   221  GLY221      0.2639
    148  O         14.2380  -14.1640   24.5000 O.2   221  GLY221     -0.2714
    149  N         13.4220  -14.5630   26.5440 N.am  222  GLU222     -0.1963
    150  CA        13.4250  -16.0020   26.3370 C.3   222  GLU222      0.1733
    151  C         12.0290  -16.4620   25.9160 C.2   222  GLU222      0.2617
    152  O         11.1100  -16.5300   26.7260 O.2   222  GLU222     -0.2715
    153  CB        13.9300  -16.6880   27.5980 C.3   222  GLU222      0.0429
    154  CG        15.3580  -16.2710   27.8960 C.3   222  GLU222      0.1163
    155  CD        15.8540  -16.7720   29.2310 C.2   222  GLU222      0.3649
    156  OE1       15.3950  -16.2430   30.2590 O.co2 222  GLU222     -0.2457
    157  OE2       16.7010  -17.6930   29.2430 O.co2 222  GLU222     -0.2457
    158  N         11.8730  -16.7450   24.6270 N.am  223  GLY223     -0.1940
    159  CA        10.5510  -16.9390   24.0500 C.3   223  GLY223      0.2014
    160  C          9.8560  -15.5870   23.9290 C.2   223  GLY223      0.2639
    161  O         10.5020  -14.5490   24.0600 O.2   223  GLY223     -0.2714
    162  N          8.5490  -15.5950   23.6780 N.am  224  CYS224     -0.1967
    163  CA         7.7710  -14.3590   23.6530 C.3   224  CYS224      0.1712
    164  C          6.4810  -14.5380   24.4390 C.2   224  CYS224      0.2296
    165  O          5.7540  -15.5070   24.2260 O.2   224  CYS224     -0.2864
    166  CB         7.4310  -13.9590   22.2060 C.3   224  CYS224      0.0983
    167  SG         8.8570  -13.8970   21.1030 S.3   224  CYS224     -0.0798
    168  N          9.9630  -12.0330   31.0830 N.3   230  TYR230     -0.1227
    169  CA         9.7750  -10.6210   30.8070 C.3   230  TYR230      0.1736
    170  C         10.6280  -10.2230   29.6190 C.2   230  TYR230      0.2596
    171  O         11.6240  -10.8870   29.3050 O.2   230  TYR230     -0.2718
    172  CB        10.1540   -9.7880   32.0450 C.3   230  TYR230      0.0548
    173  CG         9.2760  -10.1450   33.2110 C.ar  230  TYR230     -0.0200
    174  CD1        9.6570  -11.1230   34.1120 C.ar  230  TYR230     -0.0009
    175  CD2        8.0300   -9.5430   33.3740 C.ar  230  TYR230     -0.0009
    176  CE1        8.8350  -11.4910   35.1570 C.ar  230  TYR230      0.0417
    177  CE2        7.1940   -9.9010   34.4300 C.ar  230  TYR230      0.0417
    178  CZ         7.6090  -10.8730   35.3150 C.ar  230  TYR230      0.1957
    179  OH         6.7920  -11.2440   36.3640 O.3   230  TYR230     -0.2866
    180  N         10.2310   -9.1490   28.9490 N.am  231  GLY231     -0.1942
    181  CA        11.0390   -8.6040   27.8800 C.3   231  GLY231      0.2014
    182  C         12.1270   -7.7120   28.4470 C.2   231  GLY231      0.2639
    183  O         11.9050   -6.9800   29.4180 O.2   231  GLY231     -0.2714
    184  N         13.3120   -7.7750   27.8450 N.am  232  PHE232     -0.1959
    185  CA        14.4250   -6.9490   28.2960 C.3   232  PHE232      0.1771
    186  C         14.7690   -5.8890   27.2690 C.2   232  PHE232      0.2619
    187  O         14.7450   -6.1390   26.0530 O.2   232  PHE232     -0.2715
    188  CB        15.6430   -7.8180   28.6320 C.3   232  PHE232      0.0574
    189  CG        15.5130   -8.5410   29.9350 C.ar  232  PHE232     -0.0200
    190  CD1       14.7640   -9.7040   30.0220 C.ar  232  PHE232     -0.0042
    191  CD2       16.1130   -8.0370   31.0850 C.ar  232  PHE232     -0.0042
    192  CE1       14.6270  -10.3660   31.2310 C.ar  232  PHE232     -0.0003
    193  CE2       15.9920   -8.7020   32.2990 C.ar  232  PHE232     -0.0003
    194  CZ        15.2460   -9.8580   32.3730 C.ar  232  PHE232     -0.0000
    195  N         15.0660   -4.7000   27.7860 N.am  233  TYR233     -0.1974
    196  CA        15.2380   -3.4980   26.9900 C.3   233  TYR233      0.1639
    197  C         16.5520   -2.8250   27.3410 C.2   233  TYR233      0.2290
    198  O         16.9270   -2.7310   28.5110 O.2   233  TYR233     -0.2864
    199  CB        14.0720   -2.5250   27.2470 C.3   233  TYR233      0.0560
    200  CG        12.7450   -3.1330   26.8620 C.ar  233  TYR233     -0.0198
    201  CD1       12.0880   -4.0080   27.7220 C.ar  233  TYR233     -0.0009
    202  CD2       12.1850   -2.8880   25.6080 C.ar  233  TYR233     -0.0009
    203  CE1       10.8890   -4.6110   27.3520 C.ar  233  TYR233      0.0417
    204  CE2       10.9970   -3.4820   25.2320 C.ar  233  TYR233      0.0417
    205  CZ        10.3560   -4.3440   26.1100 C.ar  233  TYR233      0.1957
    206  OH         9.1720   -4.9460   25.7410 O.3   233  TYR233     -0.2866
@<TRIPOS>BOND
     1    26    25    2
     2    25    24    1
     3    24    27    1
     4    24    23    1
     5    27    28    1
     6    14    13    2
     7    11    12    1
     8    28    30   ar
     9    28    29   ar
    10    13    12    1
    11   106   105    2
    12    33    30   ar
    13    33    35   ar
    14     4     3    2
    15   105   104    1
    16    30    32   ar
    17    12    15    1
    18    29    31   ar
    19   115   114    2
    20     3     2    1
    21    15    16    1
    22    35    36   ar
    23   107   104    1
    24   107   108    1
    25    32    31   ar
    26    32    34   ar
    27   104   103    1
    28   108   109    1
    29   116   117    1
    30   116   113    1
    31    18    16   ar
    32    18    20   ar
    33   114   113    1
    34    36    34   ar
    35    16    17   ar
    36   112   113    1
    37     2     1    1
    38     2     5    1
    39     8    10   ar
    40     8     6   ar
    41   103    99   am
    42   100    99    2
    43    20    21   ar
    44    10     9   ar
    45   109   111   ar
    46   109   110   ar
    47    99    98    1
    48     5     6    1
    49     6     7   ar
    50    17    19   ar
    51    48    50   ar
    52    48    46   ar
    53    50    49   ar
    54   102   101    1
    55   102   167    1
    56   101    98    1
    57    46    45   ar
    58    46    44   ar
    59    45    43   ar
    60    49    47   ar
    61     9     7   ar
    62    21    19   ar
    63    21    22    1
    64    44    47   ar
    65    44    42   ar
    66    43    42   ar
    67    98    97    1
    68    42    41    1
    69    97    94   am
    70    41    38    1
    71   167   166    1
    72   121   120    2
    73   122   123    1
    74   122   124    1
    75   122   119    1
    76    94    93    1
    77    94    95    2
    78    38    39    1
    79    38    37    1
    80    93    96    1
    81    93    92    1
    82    40    39    2
    83   120   119    1
    84   120   125   am
    85   166   163    1
    86   128   127    2
    87   118   119    1
    88    87    86    2
    89    74    73    1
    90    75    73    1
    91    73    72    1
    92   126   125    1
    93   126   127    1
    94   126   129    1
    95   127   131   am
    96    92    86   am
    97    86    85    1
    98   163   162    1
    99   163   164    1
   100   162   160   am
   101   160   159    1
   102   160   161    2
   103   159   158    1
   104   165   164    2
   105   131   132    1
   106   132   135    1
   107   132   133    1
   108   129   130    1
   109    72    69    1
   110   148   147    2
   111   158   151   am
   112   135   136    1
   113    85    84    1
   114    85    88    1
   115    69    68    1
   116    69    70    1
   117   145   133   am
   118   145   146    1
   119    88    89    1
   120   133   134    2
   121   204   202   ar
   122   204   205   ar
   123    51    52    1
   124    89    90   ar
   125    89    91   ar
   126   147   146    1
   127   147   149   am
   128   202   200   ar
   129    71    70    2
   130    68    62   am
   131   206   205    1
   132   151   150    1
   133   151   152    2
   134   187   186    2
   135   205   203   ar
   136   136   137   ar
   137   136   138   ar
   138   150   149    1
   139   150   153    1
   140   137   139   ar
   141    52    53    1
   142    52    55    1
   143    54    53    2
   144   200   199    1
   145   200   201   ar
   146    62    63    2
   147    62    61    1
   148    53    60   am
   149   196   199    1
   150   196   197    1
   151   196   195    1
   152    60    61    1
   153   186   195   am
   154   186   185    1
   155   197   198    2
   156   138   141   ar
   157   138   140   ar
   158   203   201   ar
   159    61    64    1
   160   153   154    1
   161   141   143   ar
   162   139   140   ar
   163   184   185    1
   164   184   182   am
   165   181   182    1
   166   181   180    1
   167   154   155    1
   168    55    56    1
   169   185   188    1
   170   140   142   ar
   171   182   183    2
   172    83    81    1
   173    66    65    2
   174   188   189    1
   175   180   170   am
   176   143   144   ar
   177    64    65    1
   178   155   157   ar
   179   155   156   ar
   180    56    57    1
   181   171   170    2
   182    65    67   am
   183   170   169    1
   184   142   144   ar
   185    81    80    1
   186   189   190   ar
   187   189   191   ar
   188   190   192   ar
   189    82    80    1
   190    58    57   ar
   191    57    59   ar
   192    80    77    1
   193   169   168    1
   194   169   172    1
   195   191   193   ar
   196   192   194   ar
   197    77    76    1
   198    77    78    1
   199   172   173    1
   200   193   194   ar
   201    78    79    2
   202   173   175   ar
   203   173   174   ar
   204   175   177   ar
   205   174   176   ar
   206   177   178   ar
   207   176   178   ar
   208   178   179    1
