@<TRIPOS>MOLECULE
tmp/3qtxA00.pdb
 170 162 0 0 0
SMALL
GASTEIGER

@<TRIPOS>ATOM
      1  N        -13.9700  -85.0740  -78.7650 N.3    10  ILE10      -0.1231
      2  CA       -12.8280  -84.2180  -79.0730 C.3    10  ILE10       0.1696
      3  C        -13.0370  -82.7250  -78.8480 C.2    10  ILE10       0.2632
      4  O        -12.1830  -81.9140  -79.2160 O.2    10  ILE10      -0.2714
      5  CB       -12.3620  -84.4320  -80.5270 C.3    10  ILE10       0.0266
      6  CG1      -13.4900  -84.0910  -81.4970 C.3    10  ILE10       0.0019
      7  CG2      -11.9320  -85.8730  -80.7220 C.3    10  ILE10       0.0020
      8  CD1      -13.1240  -84.3030  -82.9520 C.3    10  ILE10       0.0001
      9  N        -14.1650  -82.3560  -78.2480 N.am   11  GLY11      -0.1718
     10  CA       -14.4140  -80.9490  -78.0000 C.2    11  GLY11       0.1480
     11  C        -15.8420  -80.5880  -77.6500 C.2    11  GLY11       0.2820
     12  O        -16.7840  -81.3080  -77.9800 O.2    11  GLY11      -0.2669
     13  N        -15.9900  -79.4590  -76.9670 N.am   12  GLU12      -0.1929
     14  CA       -17.2940  -78.9500  -76.5570 C.3    12  GLU12       0.1736
     15  C        -17.4910  -77.6200  -77.2730 C.2    12  GLU12       0.2617
     16  O        -16.9450  -76.5970  -76.8560 O.2    12  GLU12      -0.2715
     17  CB       -17.3280  -78.7240  -75.0400 C.3    12  GLU12       0.0429
     18  CG       -16.8470  -79.9120  -74.2160 C.3    12  GLU12       0.1163
     19  CD       -16.8750  -79.6450  -72.7180 C.2    12  GLU12       0.3649
     20  OE1      -16.3060  -78.6200  -72.2820 O.co2  12  GLU12      -0.2457
     21  OE2      -17.4590  -80.4640  -71.9740 O.co2  12  GLU12      -0.2457
     22  N        -18.2630  -77.6380  -78.3530 N.am   13  GLY13      -0.1955
     23  CA       -18.4970  -76.4210  -79.1060 C.3    13  GLY13       0.1869
     24  C        -19.5100  -75.4710  -78.5000 C.2    13  GLY13       0.2309
     25  O        -20.0870  -75.7420  -77.4460 O.2    13  GLY13      -0.2863
     26  N        -22.8500  -77.5060  -79.6120 N.3    16  GLY16      -0.1225
     27  CA       -22.9830  -78.9060  -79.2610 C.3    16  GLY16       0.1811
     28  C        -21.6390  -79.5690  -79.0300 C.2    16  GLY16       0.2280
     29  O        -20.6090  -78.9000  -78.9820 O.2    16  GLY16      -0.2866
     30  N        -18.5570  -82.3900  -80.0010 N.3    18  VAL18      -0.1245
     31  CA       -17.8940  -82.9070  -81.1890 C.3    18  VAL18       0.1561
     32  C        -17.1780  -84.2010  -80.8740 C.2    18  VAL18       0.2260
     33  O        -16.4290  -84.2840  -79.9020 O.2    18  VAL18      -0.2867
     34  CB       -16.8530  -81.9330  -81.7200 C.3    18  VAL18       0.0252
     35  CG1      -16.7050  -82.1050  -83.2310 C.3    18  VAL18       0.0019
     36  CG2      -17.2300  -80.5370  -81.3370 C.3    18  VAL18       0.0019
     37  N        -15.5350  -85.9670  -88.0890 N.3    31  ALA31      -0.1245
     38  CA       -15.8040  -85.2290  -86.8670 C.3    31  ALA31       0.1562
     39  C        -17.3220  -85.0630  -86.8780 C.2    31  ALA31       0.2260
     40  O        -17.8800  -84.5450  -87.8420 O.2    31  ALA31      -0.2867
     41  CB       -15.1300  -83.8780  -86.9150 C.3    31  ALA31       0.0290
     42  N        -20.6270  -83.4180  -85.0870 N.3    33  LYS33      -0.1245
     43  CA       -21.1260  -82.4030  -84.1720 C.3    33  LYS33       0.1561
     44  C        -22.5980  -82.6910  -83.8640 C.2    33  LYS33       0.2260
     45  O        -23.4070  -82.8470  -84.7780 O.2    33  LYS33      -0.2867
     46  CB       -20.9960  -81.0190  -84.8170 C.3    33  LYS33       0.0271
     47  CG       -21.3950  -79.8550  -83.9090 C.3    33  LYS33       0.0035
     48  CD       -21.3970  -78.5350  -84.6770 C.3    33  LYS33       0.0206
     49  CE       -21.5500  -77.3460  -83.7300 C.3    33  LYS33       0.1093
     50  NZ       -21.5730  -76.0530  -84.4740 N.3    33  LYS33      -0.1314
     51  N        -12.7600  -76.2740  -93.4360 N.3    60  VAL60      -0.1245
     52  CA       -13.0820  -77.6660  -93.1200 C.3    60  VAL60       0.1561
     53  C        -14.3580  -78.0380  -93.8870 C.2    60  VAL60       0.2260
     54  O        -15.3540  -77.3220  -93.8260 O.2    60  VAL60      -0.2867
     55  CB       -13.2880  -77.8490  -91.5880 C.3    60  VAL60       0.0252
     56  CG1      -13.7970  -79.2600  -91.2680 C.3    60  VAL60       0.0019
     57  CG2      -11.9550  -77.6220  -90.8670 C.3    60  VAL60       0.0019
     58  N        -18.3330  -83.4280  -90.4690 N.3    76  PHE76      -0.1227
     59  CA       -17.2070  -82.6900  -91.0260 C.3    76  PHE76       0.1736
     60  C        -16.0110  -83.5850  -91.3140 C.2    76  PHE76       0.2595
     61  O        -15.8350  -84.6400  -90.7020 O.2    76  PHE76      -0.2718
     62  CB       -16.7430  -81.6060  -90.0410 C.3    76  PHE76       0.0547
     63  CG       -17.7390  -80.5150  -89.8020 C.ar   76  PHE76      -0.0202
     64  CD1      -18.0010  -79.5640  -90.7820 C.ar   76  PHE76      -0.0042
     65  CD2      -18.3960  -80.4180  -88.5830 C.ar   76  PHE76      -0.0042
     66  CE1      -18.8990  -78.5310  -90.5490 C.ar   76  PHE76      -0.0003
     67  CE2      -19.3020  -79.3850  -88.3380 C.ar   76  PHE76      -0.0003
     68  CZ       -19.5500  -78.4390  -89.3240 C.ar   76  PHE76      -0.0000
     69  N        -15.1790  -83.1490  -92.2480 N.am   77  GLU77      -0.1965
     70  CA       -13.9600  -83.8830  -92.5460 C.3    77  GLU77       0.1733
     71  C        -13.1460  -83.7480  -91.2570 C.2    77  GLU77       0.2616
     72  O        -13.2070  -82.7220  -90.5770 O.2    77  GLU77      -0.2715
     73  CB       -13.2000  -83.2350  -93.7110 C.3    77  GLU77       0.0429
     74  CG       -12.7020  -81.8320  -93.4290 C.3    77  GLU77       0.1163
     75  CD       -11.7230  -81.3180  -94.4840 C.2    77  GLU77       0.3649
     76  OE1      -10.6630  -81.9440  -94.6960 O.co2  77  GLU77      -0.2457
     77  OE2      -12.0070  -80.2850  -95.1060 O.co2  77  GLU77      -0.2457
     78  N        -12.3820  -84.7740  -90.9210 N.am   78  PHE78      -0.1960
     79  CA       -11.5810  -84.7710  -89.7000 C.3    78  PHE78       0.1771
     80  C        -10.1140  -84.3640  -89.9030 C.2    78  PHE78       0.2619
     81  O         -9.4730  -84.7910  -90.8700 O.2    78  PHE78      -0.2715
     82  CB       -11.6530  -86.1730  -89.0740 C.3    78  PHE78       0.0574
     83  CG       -10.8040  -86.3550  -87.8390 C.ar   78  PHE78      -0.0200
     84  CD1       -9.5100  -86.8690  -87.9320 C.ar   78  PHE78      -0.0042
     85  CD2      -11.3060  -86.0280  -86.5820 C.ar   78  PHE78      -0.0042
     86  CE1       -8.7360  -87.0540  -86.7950 C.ar   78  PHE78      -0.0003
     87  CE2      -10.5400  -86.2090  -85.4310 C.ar   78  PHE78      -0.0003
     88  CZ        -9.2540  -86.7230  -85.5370 C.ar   78  PHE78      -0.0000
     89  N         -9.6070  -83.5070  -89.0090 N.am   79  LEU79      -0.1963
     90  CA        -8.1890  -83.1090  -89.0220 C.3    79  LEU79       0.1728
     91  C         -7.6810  -83.5470  -87.6580 C.2    79  LEU79       0.2616
     92  O         -8.4700  -83.6670  -86.7190 O.2    79  LEU79      -0.2715
     93  CB        -7.9880  -81.6020  -89.2350 C.3    79  LEU79       0.0311
     94  CG        -8.0290  -81.2280  -90.7260 C.3    79  LEU79       0.0022
     95  CD1       -9.4800  -81.0000  -91.1320 C.3    79  LEU79       0.0001
     96  CD2       -7.1990  -79.9690  -91.0010 C.3    79  LEU79       0.0001
     97  N         -6.3790  -83.7850  -87.5370 N.am   80  HIS80      -0.1959
     98  CA        -5.8350  -84.3200  -86.2870 C.3    80  HIS80       0.1787
     99  C         -5.4490  -83.4470  -85.1190 C.2    80  HIS80       0.2620
    100  O         -5.1950  -83.9770  -84.0240 O.2    80  HIS80      -0.2715
    101  CB        -4.6460  -85.2370  -86.5940 C.3    80  HIS80       0.0785
    102  CG        -5.0370  -86.5480  -87.2040 C.ar   80  HIS80       0.0821
    103  ND1       -5.4530  -86.6680  -88.5140 N.ar   80  HIS80      -0.2267
    104  CD2       -5.1080  -87.7920  -86.6710 C.ar   80  HIS80       0.1154
    105  CE1       -5.7640  -87.9290  -88.7600 C.ar   80  HIS80       0.1986
    106  NE2       -5.5630  -88.6320  -87.6600 N.ar   80  HIS80      -0.2212
    107  N         -5.4040  -82.1300  -85.3060 N.am   81  GLN81      -0.1963
    108  CA        -5.0150  -81.2600  -84.1990 C.3    81  GLN81       0.1733
    109  C         -5.5220  -79.8430  -84.4330 C.2    81  GLN81       0.2616
    110  O         -5.6980  -79.4310  -85.5780 O.2    81  GLN81      -0.2715
    111  CB        -3.4790  -81.2700  -84.0560 C.3    81  GLN81       0.0408
    112  CG        -2.9270  -80.5630  -82.8150 C.3    81  GLN81       0.0908
    113  CD        -1.4960  -80.9780  -82.4880 C.2    81  GLN81       0.2608
    114  OE1       -1.2360  -82.1280  -82.1250 O.2    81  GLN81      -0.2717
    115  NE2       -0.5640  -80.0450  -82.6190 N.am   81  GLN81      -0.0878
    116  N         -5.8010  -79.1140  -83.3520 N.am   82  ASP82      -0.1971
    117  CA        -6.2410  -77.7330  -83.4930 C.3    82  ASP82       0.1709
    118  C         -5.0840  -76.8260  -83.1170 C.2    82  ASP82       0.2293
    119  O         -4.1240  -77.2770  -82.5030 O.2    82  ASP82      -0.2864
    120  CB        -7.4860  -77.4220  -82.6370 C.3    82  ASP82       0.1436
    121  CG        -7.2440  -77.5520  -81.1410 C.2    82  ASP82       0.3671
    122  OD1       -6.1780  -77.1310  -80.6440 O.co2  82  ASP82      -0.2456
    123  OD2       -8.1530  -78.0580  -80.4540 O.co2  82  ASP82      -0.2456
    124  N         -3.8470  -76.5750  -79.3440 N.3    85  LYS85      -0.1245
    125  CA        -2.9360  -77.6270  -78.8950 C.3    85  LYS85       0.1561
    126  C         -1.5260  -77.4510  -79.4610 C.2    85  LYS85       0.2260
    127  O         -0.5320  -77.6460  -78.7580 O.2    85  LYS85      -0.2867
    128  CB        -3.4730  -79.0160  -79.2750 C.3    85  LYS85       0.0271
    129  CG        -2.6500  -80.1630  -78.6830 C.3    85  LYS85       0.0035
    130  CD        -3.3050  -81.5200  -78.9400 C.3    85  LYS85       0.0206
    131  CE        -2.6150  -82.6300  -78.1620 C.3    85  LYS85       0.1093
    132  NZ        -3.2830  -83.9550  -78.3570 N.3    85  LYS85      -0.1314
    133  N         -9.0270  -72.8680  -81.0990 N.3   127  GLN127     -0.1231
    134  CA        -9.7360  -74.1500  -81.0660 C.3   127  GLN127      0.1698
    135  C        -10.5400  -74.4360  -82.3320 C.2   127  GLN127      0.2592
    136  O        -10.8530  -75.5930  -82.6190 O.2   127  GLN127     -0.2718
    137  CB       -10.6630  -74.2060  -79.8480 C.3   127  GLN127      0.0381
    138  CG        -9.9160  -74.3390  -78.5380 C.3   127  GLN127      0.0905
    139  CD       -10.7840  -74.0250  -77.3460 C.2   127  GLN127      0.2608
    140  OE1      -11.2370  -72.8940  -77.1770 O.2   127  GLN127     -0.2717
    141  NE2      -11.0270  -75.0280  -76.5100 N.am  127  GLN127     -0.0878
    142  N        -10.8720  -73.3910  -83.0890 N.am  128  ASN128     -0.1974
    143  CA       -11.6310  -73.5650  -84.3330 C.3   128  ASN128      0.1688
    144  C        -10.7410  -73.5300  -85.5850 C.2   128  ASN128      0.2292
    145  O        -11.2430  -73.4180  -86.7100 O.2   128  ASN128     -0.2864
    146  CB       -12.7120  -72.4870  -84.4650 C.3   128  ASN128      0.1181
    147  CG       -13.7510  -72.5650  -83.3670 C.2   128  ASN128      0.2629
    148  OD1      -13.9140  -73.6020  -82.7140 O.2   128  ASN128     -0.2716
    149  ND2      -14.4740  -71.4740  -83.1680 N.am  128  ASN128     -0.0877
    150  N         -7.9590  -75.7690  -87.4720 N.3   130  LEU130     -0.1245
    151  CA        -7.3970  -77.1160  -87.5370 C.3   130  LEU130      0.1561
    152  C         -6.2430  -77.2510  -88.5160 C.2   130  LEU130      0.2260
    153  O         -6.2780  -76.6810  -89.6090 O.2   130  LEU130     -0.2867
    154  CB        -8.5040  -78.0990  -87.9170 C.3   130  LEU130      0.0270
    155  CG        -9.7420  -77.9240  -87.0390 C.3   130  LEU130      0.0019
    156  CD1      -10.8480  -78.8110  -87.5570 C.3   130  LEU130      0.0001
    157  CD2       -9.4090  -78.2410  -85.5800 C.3   130  LEU130      0.0001
    158  N        -12.7720  -73.9180  -89.0190 N.3   140  ALA140     -0.1231
    159  CA       -13.7950  -74.8820  -88.6370 C.3   140  ALA140      0.1694
    160  C        -14.8520  -74.2620  -87.7390 C.2   140  ALA140      0.2592
    161  O        -14.6830  -73.1540  -87.2260 O.2   140  ALA140     -0.2718
    162  CB       -13.1680  -76.0650  -87.9330 C.3   140  ALA140      0.0304
    163  N        -15.9500  -74.9870  -87.5800 N.am  141  ASP141     -0.1974
    164  CA       -17.0510  -74.5730  -86.7190 C.3   141  ASP141      0.1709
    165  C        -17.5150  -73.1330  -86.9280 C.2   141  ASP141      0.2293
    166  O        -17.4260  -72.3110  -86.0170 O.2   141  ASP141     -0.2864
    167  CB       -16.6380  -74.7810  -85.2600 C.3   141  ASP141      0.1436
    168  CG       -17.8160  -74.7690  -84.3110 C.2   141  ASP141      0.3671
    169  OD1      -18.8640  -75.3420  -84.6630 O.co2 141  ASP141     -0.2456
    170  OD2      -17.6870  -74.2040  -83.2090 O.co2 141  ASP141     -0.2456
@<TRIPOS>BOND
     1    77    75   ar
     2    76    75   ar
     3    75    74    1
     4    53    54    2
     5    53    52    1
     6    73    74    1
     7    73    70    1
     8    51    52    1
     9    52    55    1
    10    70    69    1
    11    70    71    1
    12    69    60   am
    13    55    56    1
    14    55    57    1
    15    60    59    1
    16    60    61    2
    17    71    78   am
    18    71    72    2
    19    95    94    1
    20    59    58    1
    21    59    62    1
    22    96    94    1
    23    78    79    1
    24    81    80    2
    25    64    66   ar
    26    64    63   ar
    27    94    93    1
    28    66    68   ar
    29    62    63    1
    30    80    79    1
    31    80    89   am
    32    63    65   ar
    33    79    82    1
    34   153   152    2
    35    68    67   ar
    36    93    90    1
    37    82    83    1
    38    90    89    1
    39    90    91    1
    40   158   159    1
    41   105   103   ar
    42   105   106   ar
    43   159   162    1
    44   159   160    1
    45    65    67   ar
    46   152   151    1
    47   103   102   ar
    48    37    38    1
    49    84    83   ar
    50    84    86   ar
    51   154   151    1
    52   154   155    1
    53    40    39    2
    54    83    85   ar
    55   160   163   am
    56   160   161    2
    57   106   104   ar
    58    91    97   am
    59    91    92    2
    60   163   164    1
    61   156   155    1
    62   151   150    1
    63    97    98    1
    64   102   104   ar
    65   102   101    1
    66   155   157    1
    67   165   164    1
    68   165   166    2
    69    41    38    1
    70    39    38    1
    71    86    88   ar
    72   164   167    1
    73   145   144    2
    74   101    98    1
    75    85    87   ar
    76    98    99    1
    77   144   143    1
    78   110   109    2
    79    88    87   ar
    80   107    99   am
    81   107   108    1
    82   167   168    1
    83    99   100    2
    84    42    43    1
    85    46    43    1
    86    46    47    1
    87    45    44    2
    88    48    47    1
    89    48    49    1
    90   169   168   ar
    91    50    49    1
    92   146   143    1
    93   146   147    1
    94   109   108    1
    95   109   116   am
    96   143   142    1
    97   168   170   ar
    98   108   111    1
    99    43    44    1
   100   111   112    1
   101   117   116    1
   102   117   118    1
   103   117   120    1
   104   147   149   am
   105   147   148    2
   106    35    34    1
   107   118   119    2
   108   142   135   am
   109     8     6    1
   110   112   113    1
   111   120   121    1
   112   136   135    2
   113   115   113   am
   114   113   114    2
   115   135   134    1
   116    34    36    1
   117    34    31    1
   118     6     5    1
   119    31    32    1
   120    31    30    1
   121   121   122   ar
   122   121   123   ar
   123   133   134    1
   124   134   137    1
   125    32    33    2
   126     7     5    1
   127     5     2    1
   128   137   138    1
   129    26    27    1
   130   126   125    1
   131   126   127    2
   132   124   125    1
   133   128   125    1
   134   128   129    1
   135    27    28    1
   136     4     3    2
   137    23    24    1
   138    23    22    1
   139     2     3    1
   140     2     1    1
   141    28    29    2
   142   130   129    1
   143   130   131    1
   144     3     9    1
   145   138   139    1
   146    24    25    2
   147   132   131    1
   148    22    15   am
   149     9    10    2
   150    10    11    1
   151    12    11    2
   152    11    13   am
   153   139   140    2
   154   139   141   am
   155    15    16    2
   156    15    14    1
   157    13    14    1
   158    14    17    1
   159    17    18    1
   160    18    19    1
   161    19    20   ar
   162    19    21   ar
