@<TRIPOS>MOLECULE
tmp/3qtyB02.pdb
 72 71 0 0 0
SMALL
GASTEIGER

@<TRIPOS>ATOM
      1  N         51.7590   -5.5940   13.3580 N.3    50  GLY50      -0.1210
      2  CA        52.0930   -6.8050   14.0860 C.3    50  GLY50       0.1956
      3  C         53.2400   -7.5710   13.4500 C.2    50  GLY50       0.2613
      4  O         53.9760   -7.0650   12.5940 O.2    50  GLY50      -0.2717
      5  N         53.3430   -8.8270   13.8480 N.am   51  THR51      -0.1938
      6  CA        54.4780   -9.6710   13.5230 C.3    51  THR51       0.2028
      7  C         54.5280  -10.1270   12.0510 C.2    51  THR51       0.2642
      8  O         55.5040  -10.7270   11.6010 O.2    51  THR51      -0.2714
      9  CB        54.5220  -10.8280   14.5410 C.3    51  THR51       0.1808
     10  OG1       55.2390  -10.3930   15.7070 O.3    51  THR51      -0.2208
     11  CG2       55.1610  -12.0420   13.9800 C.3    51  THR51       0.0379
     12  N         53.4850   -9.8020   11.2950 N.am   52  LYS52      -0.1977
     13  CA        53.4860  -10.0250    9.8550 C.3    52  LYS52       0.1596
     14  C         54.7030   -9.3240    9.2200 C.2    52  LYS52       0.2287
     15  O         55.2500   -9.7940    8.2220 O.2    52  LYS52      -0.2864
     16  CB        52.1820   -9.5070    9.2320 C.3    52  LYS52       0.0298
     17  CG        52.0240   -9.8440    7.7510 C.3    52  LYS52       0.0038
     18  CD        50.6280   -9.4500    7.2490 C.3    52  LYS52       0.0206
     19  CE        50.3450  -10.0210    5.8660 C.3    52  LYS52       0.1093
     20  NZ        48.9190   -9.7620    5.5350 N.3    52  LYS52      -0.1314
     21  N         46.0040   -9.5270    9.5620 N.3   167  THR167     -0.1203
     22  CA        47.0000   -9.0450   10.5290 C.3   167  THR167      0.1994
     23  C         47.2750   -9.7380   11.8670 C.2   167  THR167      0.2618
     24  O         47.8210   -9.0920   12.7630 O.2   167  THR167     -0.2717
     25  CB        47.1030   -7.5230   10.5970 C.3   167  THR167      0.1784
     26  OG1       45.8020   -6.9720   10.7870 O.3   167  THR167     -0.2211
     27  CG2       47.7350   -6.9930    9.2810 C.3   167  THR167      0.0376
     28  N         46.7130  -10.9210   12.0930 N.am  168  ASN168     -0.1960
     29  CA        46.8910  -11.5890   13.3780 C.3   168  ASN168      0.1819
     30  C         47.3170  -13.0360   13.2040 C.2   168  ASN168      0.2622
     31  O         47.0020  -13.6670   12.1900 O.2   168  ASN168     -0.2715
     32  CB        45.6030  -11.5220   14.1990 C.3   168  ASN168      0.1195
     33  CG        45.3080  -10.1170   14.7140 C.2   168  ASN168      0.2630
     34  OD1       45.8190   -9.6920   15.7590 O.2   168  ASN168     -0.2716
     35  ND2       44.4770   -9.3930   13.9890 N.am  168  ASN168     -0.0877
     36  N         48.0450  -13.5570   14.1830 N.am  169  GLY169     -0.1940
     37  CA        48.4210  -14.9630   14.1640 C.3   169  GLY169      0.2014
     38  C         49.7240  -15.2680   13.4450 C.2   169  GLY169      0.2639
     39  O         50.0660  -16.4400   13.2350 O.2   169  GLY169     -0.2714
     40  N         50.4700  -14.2280   13.0860 N.am  170  TYR170     -0.1959
     41  CA        51.7200  -14.4150   12.3460 C.3   170  TYR170      0.1771
     42  C         52.9060  -14.9000   13.1910 C.2   170  TYR170      0.2620
     43  O         53.8630  -15.4490   12.6540 O.2   170  TYR170     -0.2715
     44  CB        52.0860  -13.1480   11.5740 C.3   170  TYR170      0.0574
     45  CG        51.2240  -12.9880   10.3310 C.ar  170  TYR170     -0.0198
     46  CD1       51.6480  -13.4860    9.1090 C.ar  170  TYR170     -0.0009
     47  CD2       49.9760  -12.3750   10.3970 C.ar  170  TYR170     -0.0009
     48  CE1       50.8580  -13.3560    7.9680 C.ar  170  TYR170      0.0417
     49  CE2       49.1670  -12.2580    9.2720 C.ar  170  TYR170      0.0417
     50  CZ        49.6240  -12.7630    8.0570 C.ar  170  TYR170      0.1957
     51  OH        48.8560  -12.6450    6.9160 O.3   170  TYR170     -0.2866
     52  N         52.8450  -14.6800   14.5000 N.am  171  SER171     -0.1936
     53  CA        53.8570  -15.2310   15.3930 C.3   171  SER171      0.2055
     54  C         53.7760  -16.7550   15.3230 C.2   171  SER171      0.2643
     55  O         54.7750  -17.4320   15.0690 O.2   171  SER171     -0.2714
     56  CB        53.6450  -14.7400   16.8290 C.3   171  SER171      0.2130
     57  OG        54.7020  -15.1560   17.6750 O.3   171  SER171     -0.2179
     58  N         52.5770  -17.2880   15.5330 N.am  172  PHE172     -0.1973
     59  CA        52.3390  -18.7210   15.4010 C.3   172  PHE172      0.1639
     60  C         52.7420  -19.2080   14.0070 C.2   172  PHE172      0.2290
     61  O         53.4660  -20.1950   13.8670 O.2   172  PHE172     -0.2864
     62  CB        50.8600  -19.0610   15.6630 C.3   172  PHE172      0.0560
     63  CG        50.5120  -20.5030   15.4000 C.ar  172  PHE172     -0.0200
     64  CD1       50.6350  -21.4530   16.4010 C.ar  172  PHE172     -0.0042
     65  CD2       50.0600  -20.9090   14.1460 C.ar  172  PHE172     -0.0042
     66  CE1       50.3240  -22.7770   16.1650 C.ar  172  PHE172     -0.0003
     67  CE2       49.7490  -22.2350   13.9040 C.ar  172  PHE172     -0.0003
     68  CZ        49.8790  -23.1700   14.9170 C.ar  172  PHE172     -0.0000
     69  N         42.8780  -10.8920   16.3710 N.3   229  GLY229     -0.1225
     70  CA        43.3390  -11.9480   17.2570 C.3   229  GLY229      0.1811
     71  C         42.2050  -12.4640   18.1340 C.2   229  GLY229      0.2280
     72  O         41.3330  -11.7110   18.5620 O.2   229  GLY229     -0.2866
@<TRIPOS>BOND
     1    20    19    1
     2    19    18    1
     3    51    50    1
     4    18    17    1
     5    17    16    1
     6    48    50   ar
     7    48    46   ar
     8    50    49   ar
     9    15    14    2
    10    46    45   ar
    11    14    13    1
    12    16    13    1
    13    49    47   ar
    14    27    25    1
    15    21    22    1
    16    13    12    1
    17    45    47   ar
    18    45    44    1
    19    22    25    1
    20    22    23    1
    21    25    26    1
    22    12     7   am
    23    44    41    1
    24     8     7    2
    25    23    28   am
    26    23    24    2
    27     7     6    1
    28    28    29    1
    29    31    30    2
    30    41    40    1
    31    41    42    1
    32     4     3    2
    33    43    42    2
    34    40    38   am
    35    42    52   am
    36    30    29    1
    37    30    36   am
    38    39    38    2
    39     1     2    1
    40    29    32    1
    41    38    37    1
    42     3     5   am
    43     3     2    1
    44     6     5    1
    45     6     9    1
    46    61    60    2
    47    67    65   ar
    48    67    68   ar
    49    11     9    1
    50    35    33   am
    51    60    59    1
    52    65    63   ar
    53    37    36    1
    54    32    33    1
    55    52    53    1
    56     9    10    1
    57    33    34    2
    58    68    66   ar
    59    55    54    2
    60    54    53    1
    61    54    58   am
    62    53    56    1
    63    63    62    1
    64    63    64   ar
    65    59    58    1
    66    59    62    1
    67    66    64   ar
    68    69    70    1
    69    56    57    1
    70    70    71    1
    71    71    72    2
