@<TRIPOS>MOLECULE
tmp/3qtyA02.pdb
 72 66 0 0 0
SMALL
GASTEIGER

@<TRIPOS>ATOM
      1  N         43.6500    7.3620   32.8450 N.3    26  VAL26      -0.1245
      2  CA        43.1660    7.8460   31.5520 C.3    26  VAL26       0.1561
      3  C         41.9110    8.7040   31.7040 C.2    26  VAL26       0.2260
      4  O         41.7790    9.7510   31.0730 O.2    26  VAL26      -0.2867
      5  CB        42.9140    6.6800   30.5860 C.3    26  VAL26       0.0252
      6  CG1       42.1970    7.1470   29.3150 C.3    26  VAL26       0.0019
      7  CG2       44.2390    6.0050   30.2450 C.3    26  VAL26       0.0019
      8  N         39.9820    0.8510   26.7680 N.3    41  PHE41      -0.1241
      9  CA        40.4720    2.2320   26.7550 C.3    41  PHE41       0.1605
     10  C         39.9320    3.1670   25.6560 C.2    41  PHE41       0.2264
     11  O         40.3930    4.3060   25.5300 O.2    41  PHE41      -0.2867
     12  CB        42.0010    2.2420   26.7810 C.3    41  PHE41       0.0534
     13  CG        42.5830    1.5700   27.9930 C.ar   41  PHE41      -0.0203
     14  CD1       42.7970    2.2850   29.1660 C.ar   41  PHE41      -0.0042
     15  CD2       42.8950    0.2150   27.9680 C.ar   41  PHE41      -0.0042
     16  CE1       43.3290    1.6640   30.2860 C.ar   41  PHE41      -0.0003
     17  CE2       43.4250   -0.4100   29.0850 C.ar   41  PHE41      -0.0003
     18  CZ        43.6430    0.3130   30.2450 C.ar   41  PHE41      -0.0000
     19  N         48.0310    6.6900   21.8060 N.3   104  ASP104     -0.1239
     20  CA        49.3960    6.1980   21.8950 C.3   104  ASP104      0.1674
     21  C         49.4920    4.7160   21.5630 C.2   104  ASP104      0.2266
     22  O         48.5540    3.9570   21.7860 O.2   104  ASP104     -0.2867
     23  CB        49.9480    6.4120   23.3010 C.3   104  ASP104      0.1410
     24  CG        49.2690    5.5210   24.3180 C.2   104  ASP104      0.3668
     25  OD1       48.1310    5.8470   24.7060 O.co2 104  ASP104     -0.2456
     26  OD2       49.8510    4.4990   24.7120 O.co2 104  ASP104     -0.2456
     27  N         52.4340    1.6330   22.1910 N.3   106  VAL106     -0.1245
     28  CA        53.7060    1.2610   22.7870 C.3   106  VAL106      0.1561
     29  C         53.9800   -0.2010   22.4860 C.2   106  VAL106      0.2260
     30  O         53.1890   -1.0810   22.8590 O.2   106  VAL106     -0.2867
     31  CB        53.7140    1.4830   24.3060 C.3   106  VAL106      0.0252
     32  CG1       55.0800    1.1240   24.8620 C.3   106  VAL106      0.0019
     33  CG2       53.3560    2.9270   24.6240 C.3   106  VAL106      0.0019
     34  N         51.5690    5.0590   31.1930 N.3   119  VAL119     -0.1245
     35  CA        50.1990    5.5570   31.1300 C.3   119  VAL119      0.1561
     36  C         49.9700    6.6820   32.1430 C.2   119  VAL119      0.2260
     37  O         49.3100    7.6770   31.8380 O.2   119  VAL119     -0.2867
     38  CB        49.1540    4.4240   31.3040 C.3   119  VAL119      0.0252
     39  CG1       47.7430    5.0060   31.4140 C.3   119  VAL119      0.0019
     40  CG2       49.2320    3.4550   30.1250 C.3   119  VAL119      0.0019
     41  N         42.8160   11.6300   26.3820 N.3   132  LEU132     -0.1245
     42  CA        43.4830   10.4610   25.8180 C.3   132  LEU132      0.1561
     43  C         42.3770    9.4760   25.4670 C.2   132  LEU132      0.2260
     44  O         41.8120    8.8000   26.3360 O.2   132  LEU132     -0.2867
     45  CB        44.4080    9.8530   26.8730 C.3   132  LEU132      0.0270
     46  CG        45.5760    8.9880   26.3910 C.3   132  LEU132      0.0019
     47  CD1       46.4130    8.5640   27.5850 C.3   132  LEU132      0.0001
     48  CD2       45.0780    7.7980   25.6330 C.3   132  LEU132      0.0001
     49  N         42.4060    6.7490   23.2880 N.3   134  GLY134     -0.1210
     50  CA        42.6540    5.3670   22.9270 C.3   134  GLY134      0.1956
     51  C         44.1190    5.0490   22.7890 C.2   134  GLY134      0.2612
     52  O         44.9630    5.9350   22.7560 O.2   134  GLY134     -0.2717
     53  N         44.4260    3.7620   22.6900 N.am  135  GLY135     -0.1942
     54  CA        45.8030    3.3760   22.5420 C.3   135  GLY135      0.2014
     55  C         45.8770    1.9190   22.1780 C.2   135  GLY135      0.2639
     56  O         44.8550    1.2550   22.0410 O.2   135  GLY135     -0.2714
     57  N         47.0990    1.4330   22.0200 N.am  136  GLU136     -0.1963
     58  CA        47.3200    0.0560   21.6500 C.3   136  GLU136      0.1733
     59  C         48.6870   -0.3560   22.1630 C.2   136  GLU136      0.2617
     60  O         49.5620    0.4940   22.3510 O.2   136  GLU136     -0.2715
     61  CB        47.2510   -0.0700   20.1250 C.3   136  GLU136      0.0429
     62  CG        47.2680   -1.5100   19.6530 C.3   136  GLU136      0.1163
     63  CD        46.1830   -2.3300   20.3320 C.2   136  GLU136      0.3649
     64  OE1       45.0230   -2.2520   19.8790 O.co2 136  GLU136     -0.2457
     65  OE2       46.4820   -3.0270   21.3370 O.co2 136  GLU136     -0.2457
     66  N         48.8720   -1.6490   22.4150 N.am  137  THR137     -0.1951
     67  CA        50.1890   -2.1620   22.7540 C.3   137  THR137      0.1897
     68  C         50.5470   -3.3280   21.8420 C.2   137  THR137      0.2313
     69  O         49.6730   -3.9340   21.2060 O.2   137  THR137     -0.2863
     70  CB        50.2920   -2.6360   24.2190 C.3   137  THR137      0.1794
     71  OG1       49.3910   -3.7300   24.4370 O.3   137  THR137     -0.2208
     72  CG2       49.9760   -1.5110   25.1850 C.3   137  THR137      0.0378
@<TRIPOS>BOND
     1    62    61    1
     2    62    63    1
     3    64    63   ar
     4    61    58    1
     5    63    65   ar
     6    69    68    2
     7    21    22    2
     8    21    20    1
     9    58    57    1
    10    58    59    1
    11    19    20    1
    12    68    67    1
    13    20    23    1
    14    57    55   am
    15    56    55    2
    16    59    60    2
    17    59    66   am
    18    55    54    1
    19    27    28    1
    20    66    67    1
    21    29    28    1
    22    29    30    2
    23    54    53    1
    24    53    51   am
    25    67    70    1
    26    52    51    2
    27    28    31    1
    28    51    50    1
    29    50    49    1
    30    23    24    1
    31    70    71    1
    32    70    72    1
    33    31    33    1
    34    31    32    1
    35    24    25   ar
    36    24    26   ar
    37    43    42    1
    38    43    44    2
    39    11    10    2
    40    48    46    1
    41    10     9    1
    42    42    41    1
    43    42    45    1
    44    46    45    1
    45    46    47    1
    46     9     8    1
    47     9    12    1
    48    12    13    1
    49    15    13   ar
    50    15    17   ar
    51    13    14   ar
    52    17    18   ar
    53    14    16   ar
    54     6     5    1
    55    40    38    1
    56    18    16   ar
    57     7     5    1
    58     5     2    1
    59     4     3    2
    60    35    34    1
    61    35    38    1
    62    35    36    1
    63    38    39    1
    64     2     3    1
    65     2     1    1
    66    37    36    2
