@<TRIPOS>MOLECULE
tmp/3qtzA00.pdb
 162 154 0 0 0
SMALL
GASTEIGER

@<TRIPOS>ATOM
      1  N        -67.5250   22.4890  -78.2970 N.3    10  ILE10      -0.1245
      2  CA       -66.4640   23.4310  -78.6470 C.3    10  ILE10       0.1561
      3  C        -66.6030   24.7360  -77.8750 C.2    10  ILE10       0.2260
      4  O        -65.6190   25.4410  -77.6510 O.2    10  ILE10      -0.2867
      5  CB       -66.4890   23.7930  -80.1450 C.3    10  ILE10       0.0252
      6  CG1      -66.2030   22.5650  -81.0010 C.3    10  ILE10       0.0019
      7  CG2      -65.4650   24.8790  -80.4240 C.3    10  ILE10       0.0019
      8  CD1      -66.2820   22.8480  -82.4920 C.3    10  ILE10       0.0001
      9  N        -69.5930   28.1080  -76.4770 N.3    12  GLU12      -0.1231
     10  CA       -70.8750   28.8060  -76.4120 C.3    12  GLU12       0.1699
     11  C        -70.9140   29.9040  -77.4760 C.2    12  GLU12       0.2592
     12  O        -70.2330   30.9230  -77.3450 O.2    12  GLU12      -0.2718
     13  CB       -71.0380   29.4190  -75.0160 C.3    12  GLU12       0.0402
     14  CG       -72.0430   30.5580  -74.8930 C.3    12  GLU12       0.1161
     15  CD       -73.4880   30.1020  -74.9560 C.2    12  GLU12       0.3649
     16  OE1      -74.0490   30.0390  -76.0670 O.co2  12  GLU12      -0.2457
     17  OE2      -74.0680   29.8050  -73.8900 O.co2  12  GLU12      -0.2457
     18  N        -71.7040   29.6950  -78.5270 N.am   13  GLY13      -0.1957
     19  CA       -71.8000   30.6870  -79.5840 C.3    13  GLY13       0.1869
     20  C        -72.4700   31.9680  -79.1170 C.2    13  GLY13       0.2309
     21  O        -72.2260   32.4440  -78.0060 O.2    13  GLY13      -0.2863
     22  N        -71.9280   25.0770  -79.3490 N.3    18  VAL18      -0.1245
     23  CA       -71.2260   24.6410  -80.5400 C.3    18  VAL18       0.1561
     24  C        -70.5280   23.3310  -80.2570 C.2    18  VAL18       0.2260
     25  O        -69.7920   23.2050  -79.2790 O.2    18  VAL18      -0.2867
     26  CB       -70.1990   25.6750  -80.9750 C.3    18  VAL18       0.0252
     27  CG1      -69.6470   25.3190  -82.3630 C.3    18  VAL18       0.0019
     28  CG2      -70.8460   27.0400  -80.9760 C.3    18  VAL18       0.0019
     29  N        -68.7690   21.6100  -87.5450 N.3    31  ALA31      -0.1245
     30  CA       -69.0110   22.3670  -86.3330 C.3    31  ALA31       0.1562
     31  C        -70.5240   22.5090  -86.3640 C.2    31  ALA31       0.2260
     32  O        -71.0920   22.9350  -87.3740 O.2    31  ALA31      -0.2867
     33  CB       -68.3510   23.7320  -86.4060 C.3    31  ALA31       0.0290
     34  N        -73.8050   24.2230  -84.5540 N.3    33  LYS33      -0.1245
     35  CA       -74.3050   25.1860  -83.5910 C.3    33  LYS33       0.1561
     36  C        -75.7890   24.8730  -83.3460 C.2    33  LYS33       0.2260
     37  O        -76.5810   24.7720  -84.2860 O.2    33  LYS33      -0.2867
     38  CB       -74.1400   26.6090  -84.1200 C.3    33  LYS33       0.0271
     39  CG       -74.3610   27.6750  -83.0510 C.3    33  LYS33       0.0035
     40  CD       -74.4440   29.0710  -83.6430 C.3    33  LYS33       0.0206
     41  CE       -74.4750   30.1080  -82.5230 C.3    33  LYS33       0.1093
     42  NZ       -74.5640   31.4910  -83.0700 N.3    33  LYS33      -0.1314
     43  N        -66.2420   31.2540  -92.9260 N.3    60  VAL60      -0.1245
     44  CA       -66.5300   29.8530  -92.6090 C.3    60  VAL60       0.1561
     45  C        -67.7810   29.4330  -93.3920 C.2    60  VAL60       0.2260
     46  O        -68.8050   30.1140  -93.3750 O.2    60  VAL60      -0.2867
     47  CB       -66.7360   29.6590  -91.0820 C.3    60  VAL60       0.0252
     48  CG1      -67.2700   28.2530  -90.7750 C.3    60  VAL60       0.0019
     49  CG2      -65.3860   29.8330  -90.3640 C.3    60  VAL60       0.0019
     50  N        -71.5770   23.9690  -89.8820 N.3    76  PHE76      -0.1227
     51  CA       -70.4820   24.6920  -90.5200 C.3    76  PHE76       0.1736
     52  C        -69.2910   23.8030  -90.8340 C.2    76  PHE76       0.2595
     53  O        -69.0830   22.7700  -90.1910 O.2    76  PHE76      -0.2718
     54  CB       -69.9890   25.8020  -89.5870 C.3    76  PHE76       0.0547
     55  CG       -71.0020   26.8800  -89.3120 C.ar   76  PHE76      -0.0202
     56  CD1      -71.2170   27.9020  -90.2310 C.ar   76  PHE76      -0.0042
     57  CD2      -71.7040   26.8930  -88.1240 C.ar   76  PHE76      -0.0042
     58  CE1      -72.1160   28.9270  -89.9630 C.ar   76  PHE76      -0.0003
     59  CE2      -72.6150   27.9150  -87.8400 C.ar   76  PHE76      -0.0003
     60  CZ       -72.8170   28.9380  -88.7690 C.ar   76  PHE76      -0.0000
     61  N        -68.5030   24.2150  -91.8240 N.am   77  GLU77      -0.1965
     62  CA       -67.2900   23.4860  -92.1530 C.3    77  GLU77       0.1733
     63  C        -66.4820   23.6360  -90.8640 C.2    77  GLU77       0.2616
     64  O        -66.5370   24.6770  -90.2040 O.2    77  GLU77      -0.2715
     65  CB       -66.5440   24.1620  -93.3060 C.3    77  GLU77       0.0429
     66  CG       -66.0290   25.5590  -92.9760 C.3    77  GLU77       0.1163
     67  CD       -65.0890   26.1320  -94.0370 C.2    77  GLU77       0.3649
     68  OE1      -64.0460   25.5110  -94.3360 O.co2  77  GLU77      -0.2457
     69  OE2      -65.3800   27.2120  -94.5670 O.co2  77  GLU77      -0.2457
     70  N        -65.7410   22.6070  -90.4970 N.am   78  PHE78      -0.1960
     71  CA       -64.9550   22.6300  -89.2640 C.3    78  PHE78       0.1771
     72  C        -63.5000   23.0950  -89.4260 C.2    78  PHE78       0.2619
     73  O        -62.8060   22.6870  -90.3650 O.2    78  PHE78      -0.2715
     74  CB       -64.9930   21.2230  -88.6430 C.3    78  PHE78       0.0574
     75  CG       -64.1960   21.0830  -87.3660 C.ar   78  PHE78      -0.0200
     76  CD1      -62.8890   20.6080  -87.3880 C.ar   78  PHE78      -0.0042
     77  CD2      -64.7640   21.4260  -86.1400 C.ar   78  PHE78      -0.0042
     78  CE1      -62.1640   20.4750  -86.2160 C.ar   78  PHE78      -0.0003
     79  CE2      -64.0520   21.3020  -84.9610 C.ar   78  PHE78      -0.0003
     80  CZ       -62.7490   20.8240  -84.9920 C.ar   78  PHE78      -0.0000
     81  N        -63.0510   23.9810  -88.5320 N.am   79  LEU79      -0.1963
     82  CA       -61.6540   24.4330  -88.5430 C.3    79  LEU79       0.1728
     83  C        -61.1270   24.0030  -87.1880 C.2    79  LEU79       0.2616
     84  O        -61.8980   23.9020  -86.2340 O.2    79  LEU79      -0.2715
     85  CB       -61.5170   25.9500  -88.7770 C.3    79  LEU79       0.0311
     86  CG       -61.5250   26.3330  -90.2790 C.3    79  LEU79       0.0022
     87  CD1      -62.9610   26.3630  -90.8040 C.3    79  LEU79       0.0001
     88  CD2      -60.8860   27.6960  -90.4980 C.3    79  LEU79       0.0001
     89  N        -59.8210   23.7510  -87.0890 N.am   80  HIS80      -0.1959
     90  CA       -59.2700   23.2260  -85.8500 C.3    80  HIS80       0.1787
     91  C        -58.9130   24.0860  -84.6800 C.2    80  HIS80       0.2620
     92  O        -58.6920   23.5490  -83.5870 O.2    80  HIS80      -0.2715
     93  CB       -58.0720   22.3390  -86.1650 C.3    80  HIS80       0.0785
     94  CG       -58.4480   21.0150  -86.7550 C.ar   80  HIS80       0.0821
     95  ND1      -58.4160   19.8430  -86.0280 N.ar   80  HIS80      -0.2267
     96  CD2      -58.8890   20.6810  -87.9900 C.ar   80  HIS80       0.1154
     97  CE1      -58.8220   18.8430  -86.7910 C.ar   80  HIS80       0.1986
     98  NE2      -59.1160   19.3250  -87.9850 N.ar   80  HIS80      -0.2212
     99  N        -58.8610   25.4040  -84.8650 N.am   81  GLN81      -0.1963
    100  CA       -58.5030   26.2690  -83.7440 C.3    81  GLN81       0.1733
    101  C        -59.0110   27.6790  -83.9680 C.2    81  GLN81       0.2616
    102  O        -59.1590   28.0940  -85.1180 O.2    81  GLN81      -0.2715
    103  CB       -56.9770   26.2880  -83.5890 C.3    81  GLN81       0.0408
    104  CG       -56.4840   26.9420  -82.3010 C.3    81  GLN81       0.0908
    105  CD       -55.0810   26.4920  -81.9520 C.2    81  GLN81       0.2608
    106  OE1      -54.8500   25.3150  -81.6230 O.2    81  GLN81      -0.2717
    107  NE2      -54.1340   27.4090  -82.0380 N.am   81  GLN81      -0.0878
    108  N        -59.2850   28.4070  -82.8820 N.am   82  ASP82      -0.1971
    109  CA       -59.7380   29.7840  -83.0170 C.3    82  ASP82       0.1709
    110  C        -58.5830   30.6950  -82.6420 C.2    82  ASP82       0.2293
    111  O        -57.6120   30.2540  -82.0320 O.2    82  ASP82      -0.2864
    112  CB       -60.9930   30.0790  -82.1670 C.3    82  ASP82       0.1436
    113  CG       -60.7450   29.9740  -80.6680 C.2    82  ASP82       0.3671
    114  OD1      -59.7010   30.4560  -80.1750 O.co2  82  ASP82      -0.2456
    115  OD2      -61.6180   29.4200  -79.9830 O.co2  82  ASP82      -0.2456
    116  N        -57.4070   30.8880  -78.8000 N.3    85  LYS85      -0.1245
    117  CA       -56.5000   29.8470  -78.3240 C.3    85  LYS85       0.1561
    118  C        -55.1030   30.0550  -78.9270 C.2    85  LYS85       0.2260
    119  O        -54.0850   29.9350  -78.2330 O.2    85  LYS85      -0.2867
    120  CB       -57.0150   28.4490  -78.7070 C.3    85  LYS85       0.0271
    121  CG       -56.1010   27.3090  -78.2580 C.3    85  LYS85       0.0035
    122  CD       -56.7940   25.9610  -78.5030 C.3    85  LYS85       0.0206
    123  CE       -56.0960   24.8030  -77.8210 C.3    85  LYS85       0.1093
    124  NZ       -56.8860   23.5270  -77.9940 N.3    85  LYS85      -0.1314
    125  N        -62.4780   34.5900  -80.5490 N.3   127  GLN127     -0.1231
    126  CA       -63.1890   33.3140  -80.4910 C.3   127  GLN127      0.1698
    127  C        -63.9630   32.9970  -81.7610 C.2   127  GLN127      0.2592
    128  O        -64.2850   31.8270  -82.0070 O.2   127  GLN127     -0.2718
    129  CB       -64.1670   33.2960  -79.3120 C.3   127  GLN127      0.0381
    130  CG       -63.5000   33.2700  -77.9560 C.3   127  GLN127      0.0905
    131  CD       -64.4730   33.5990  -76.8550 C.2   127  GLN127      0.2608
    132  OE1      -64.8720   34.7510  -76.6910 O.2   127  GLN127     -0.2717
    133  NE2      -64.8800   32.5830  -76.1000 N.am  127  GLN127     -0.0878
    134  N        -64.3020   34.0060  -82.5640 N.am  128  ASN128     -0.1974
    135  CA       -65.0010   33.6720  -83.8030 C.3   128  ASN128      0.1688
    136  C        -64.1740   33.8320  -85.0630 C.2   128  ASN128      0.2292
    137  O        -64.7240   33.9820  -86.1630 O.2   128  ASN128     -0.2864
    138  CB       -66.3610   34.3620  -83.9340 C.3   128  ASN128      0.1181
    139  CG       -66.2890   35.8190  -83.7400 C.2   128  ASN128      0.2629
    140  OD1      -65.4400   36.4840  -84.3130 O.2   128  ASN128     -0.2716
    141  ND2      -67.1970   36.3500  -82.9270 N.am  128  ASN128     -0.0877
    142  N        -61.4300   31.7290  -87.0120 N.3   130  LEU130     -0.1245
    143  CA       -60.8800   30.3790  -87.0200 C.3   130  LEU130      0.1561
    144  C        -59.7280   30.2270  -87.9920 C.2   130  LEU130      0.2260
    145  O        -59.7560   30.7810  -89.0910 O.2   130  LEU130     -0.2867
    146  CB       -61.9850   29.3930  -87.3840 C.3   130  LEU130      0.0270
    147  CG       -63.2750   29.7090  -86.6360 C.3   130  LEU130      0.0019
    148  CD1      -64.3040   28.7130  -87.0680 C.3   130  LEU130      0.0001
    149  CD2      -63.0710   29.6490  -85.1180 C.3   130  LEU130      0.0001
    150  N        -66.2340   33.5900  -88.5090 N.3   140  ALA140     -0.1231
    151  CA       -67.2370   32.6150  -88.1100 C.3   140  ALA140      0.1694
    152  C        -68.2490   33.2570  -87.1630 C.2   140  ALA140      0.2592
    153  O        -68.0100   34.3320  -86.6120 O.2   140  ALA140     -0.2718
    154  CB       -66.5850   31.4400  -87.4260 C.3   140  ALA140      0.0304
    155  N        -69.3760   32.5760  -86.9920 N.am  141  ASP141     -0.1974
    156  CA       -70.4560   33.0020  -86.1080 C.3   141  ASP141      0.1709
    157  C        -70.9720   34.4190  -86.3260 C.2   141  ASP141      0.2293
    158  O        -70.9980   35.2270  -85.3860 O.2   141  ASP141     -0.2864
    159  CB       -70.0370   32.8670  -84.6490 C.3   141  ASP141      0.1436
    160  CG       -71.2330   32.7430  -83.7160 C.2   141  ASP141      0.3671
    161  OD1      -71.0700   33.0010  -82.5200 O.co2 141  ASP141     -0.2456
    162  OD2      -72.3350   32.3760  -84.1870 O.co2 141  ASP141     -0.2456
@<TRIPOS>BOND
     1    69    67   ar
     2    68    67   ar
     3    67    66    1
     4    45    46    2
     5    45    44    1
     6    65    66    1
     7    65    62    1
     8    43    44    1
     9    44    47    1
    10    62    61    1
    11    62    63    1
    12    61    52   am
    13    47    48    1
    14    47    49    1
    15    63    70   am
    16    63    64    2
    17    52    51    1
    18    52    53    2
    19    87    86    1
    20    51    50    1
    21    51    54    1
    22    88    86    1
    23    70    71    1
    24    73    72    2
    25    86    85    1
    26    56    58   ar
    27    56    55   ar
    28    58    60   ar
    29    54    55    1
    30    72    71    1
    31    72    81   am
    32    55    57   ar
    33    71    74    1
    34   145   144    2
    35    85    82    1
    36    60    59   ar
    37    74    75    1
    38    82    81    1
    39    82    83    1
    40   150   151    1
    41    57    59   ar
    42   151   154    1
    43   151   152    1
    44   144   143    1
    45    96    98   ar
    46    96    94   ar
    47    98    97   ar
    48    29    30    1
    49    76    75   ar
    50    76    78   ar
    51   146   143    1
    52   146   147    1
    53    32    31    2
    54    75    77   ar
    55    83    89   am
    56    83    84    2
    57   152   155   am
    58   152   153    2
    59    89    90    1
    60   148   147    1
    61   143   142    1
    62   155   156    1
    63    97    95   ar
    64    94    93    1
    65    94    95   ar
    66   147   149    1
    67    33    30    1
    68    31    30    1
    69   157   156    1
    70   157   158    2
    71    78    80   ar
    72    93    90    1
    73   137   136    2
    74    77    79   ar
    75   156   159    1
    76    90    91    1
    77   102   101    2
    78   136   135    1
    79    80    79   ar
    80    99    91   am
    81    99   100    1
    82    91    92    2
    83   159   160    1
    84    34    35    1
    85   140   139    2
    86    37    36    2
    87   162   160   ar
    88    38    35    1
    89    38    39    1
    90   101   100    1
    91   101   108   am
    92   138   135    1
    93   138   139    1
    94   135   134    1
    95   100   103    1
    96   139   141   am
    97   160   161   ar
    98    40    39    1
    99    40    41    1
   100    35    36    1
   101   103   104    1
   102    42    41    1
   103   109   108    1
   104   109   110    1
   105   109   112    1
   106   110   111    2
   107   134   127   am
   108     8     6    1
   109    27    26    1
   110   104   105    1
   111   112   113    1
   112   107   105   am
   113   128   127    2
   114   105   106    2
   115   127   126    1
   116     6     5    1
   117    28    26    1
   118    26    23    1
   119   113   114   ar
   120   113   115   ar
   121   125   126    1
   122    23    24    1
   123    23    22    1
   124   126   129    1
   125     7     5    1
   126    24    25    2
   127     5     2    1
   128    19    20    1
   129    19    18    1
   130   129   130    1
   131    20    21    2
   132   118   117    1
   133   118   119    2
   134   116   117    1
   135   120   117    1
   136   120   121    1
   137     2     1    1
   138     2     3    1
   139    18    11   am
   140   122   121    1
   141   122   123    1
   142   124   123    1
   143   130   131    1
   144     3     4    2
   145    11    12    2
   146    11    10    1
   147   131   132    2
   148   131   133   am
   149     9    10    1
   150    10    13    1
   151    16    15   ar
   152    13    14    1
   153    15    14    1
   154    15    17   ar
