@<TRIPOS>MOLECULE
tmp/3qu0A00.pdb
 153 145 0 0 0
SMALL
GASTEIGER

@<TRIPOS>ATOM
      1  N        -41.0360  -85.0810  -42.6780 N.3    10  ILE10      -0.1245
      2  CA       -39.9400  -84.1850  -43.0380 C.3    10  ILE10       0.1561
      3  C        -40.0290  -82.8750  -42.2710 C.2    10  ILE10       0.2260
      4  O        -39.0320  -82.1770  -42.0820 O.2    10  ILE10      -0.2867
      5  CB       -39.9490  -83.8620  -44.5500 C.3    10  ILE10       0.0252
      6  CG1      -39.6480  -85.1190  -45.3580 C.3    10  ILE10       0.0019
      7  CG2      -38.9130  -82.7890  -44.8660 C.3    10  ILE10       0.0019
      8  CD1      -39.7230  -84.8880  -46.8600 C.3    10  ILE10       0.0001
      9  N        -44.7800  -77.5890  -41.9680 N.3    13  GLY13      -0.1225
     10  CA       -44.8480  -76.2210  -42.4570 C.3    13  GLY13       0.1811
     11  C        -45.8710  -75.3200  -41.7810 C.2    13  GLY13       0.2280
     12  O        -46.2860  -75.5680  -40.6440 O.2    13  GLY13      -0.2866
     13  N        -45.2450  -82.2780  -43.9510 N.3    18  VAL18      -0.1245
     14  CA       -44.5650  -82.8110  -45.1200 C.3    18  VAL18       0.1561
     15  C        -43.9410  -84.1600  -44.8130 C.2    18  VAL18       0.2260
     16  O        -43.2560  -84.3160  -43.8160 O.2    18  VAL18      -0.2867
     17  CB       -43.4520  -81.8610  -45.5960 C.3    18  VAL18       0.0252
     18  CG1      -42.9130  -82.3390  -46.9390 C.3    18  VAL18       0.0019
     19  CG2      -43.9800  -80.4370  -45.6950 C.3    18  VAL18       0.0019
     20  N        -42.2700  -85.9390  -51.9760 N.3    31  ALA31      -0.1245
     21  CA       -42.5490  -85.1850  -50.7640 C.3    31  ALA31       0.1562
     22  C        -44.0640  -85.0440  -50.8210 C.2    31  ALA31       0.2260
     23  O        -44.6160  -84.5230  -51.7940 O.2    31  ALA31      -0.2867
     24  CB       -41.8860  -83.8070  -50.7920 C.3    31  ALA31       0.0290
     25  N        -47.2460  -83.3970  -49.0820 N.3    33  LYS33      -0.1245
     26  CA       -47.7060  -82.3950  -48.1340 C.3    33  LYS33       0.1561
     27  C        -49.2230  -82.4950  -47.9290 C.2    33  LYS33       0.2260
     28  O        -49.9980  -82.4420  -48.8880 O.2    33  LYS33      -0.2867
     29  CB       -47.3410  -80.9910  -48.6110 C.3    33  LYS33       0.0271
     30  CG       -47.7400  -79.9140  -47.6080 C.3    33  LYS33       0.0035
     31  CD       -47.0850  -78.5950  -47.9150 C.3    33  LYS33       0.0206
     32  CE       -47.2060  -77.6390  -46.7330 C.3    33  LYS33       0.1093
     33  NZ       -46.3350  -76.4540  -46.8830 N.3    33  LYS33      -0.1314
     34  N        -39.5270  -76.1210  -57.2070 N.3    60  VAL60      -0.1245
     35  CA       -39.8030  -77.5360  -56.9360 C.3    60  VAL60       0.1561
     36  C        -41.0710  -77.9260  -57.7280 C.2    60  VAL60       0.2260
     37  O        -42.0940  -77.2500  -57.6710 O.2    60  VAL60      -0.2867
     38  CB       -39.9800  -77.8050  -55.4050 C.3    60  VAL60       0.0252
     39  CG1      -40.3220  -79.2700  -55.1570 C.3    60  VAL60       0.0019
     40  CG2      -38.6750  -77.4860  -54.6670 C.3    60  VAL60       0.0019
     41  N        -44.9690  -83.4090  -54.3870 N.3    76  PHE76      -0.1227
     42  CA       -43.8680  -82.6680  -54.9780 C.3    76  PHE76       0.1736
     43  C        -42.6860  -83.5820  -55.2570 C.2    76  PHE76       0.2595
     44  O        -42.5180  -84.6280  -54.6180 O.2    76  PHE76      -0.2718
     45  CB       -43.3670  -81.5800  -54.0090 C.3    76  PHE76       0.0547
     46  CG       -44.3590  -80.4710  -53.7230 C.ar   76  PHE76      -0.0202
     47  CD1      -44.4990  -79.3990  -54.6000 C.ar   76  PHE76      -0.0042
     48  CD2      -45.1010  -80.4820  -52.5490 C.ar   76  PHE76      -0.0042
     49  CE1      -45.3720  -78.3250  -54.3030 C.ar   76  PHE76      -0.0003
     50  CE2      -45.9820  -79.4220  -52.2350 C.ar   76  PHE76      -0.0003
     51  CZ       -46.1080  -78.3380  -53.1260 C.ar   76  PHE76      -0.0000
     52  N        -41.8510  -83.1780  -56.2060 N.am   77  GLU77      -0.1965
     53  CA       -40.6320  -83.9350  -56.4760 C.3    77  GLU77       0.1733
     54  C        -39.8640  -83.7950  -55.1600 C.2    77  GLU77       0.2616
     55  O        -39.9490  -82.7570  -54.4730 O.2    77  GLU77      -0.2715
     56  CB       -39.8190  -83.2850  -57.5900 C.3    77  GLU77       0.0429
     57  CG       -39.3950  -81.8630  -57.2950 C.3    77  GLU77       0.1163
     58  CD       -38.4400  -81.3100  -58.3390 C.2    77  GLU77       0.3649
     59  OE1      -37.4710  -82.0140  -58.6840 O.co2  77  GLU77      -0.2457
     60  OE2      -38.6480  -80.1770  -58.8170 O.co2  77  GLU77      -0.2457
     61  N        -39.1070  -84.8150  -54.8090 N.am   78  PHE78      -0.1960
     62  CA       -38.3590  -84.8070  -53.5560 C.3    78  PHE78       0.1771
     63  C        -36.9050  -84.3560  -53.6950 C.2    78  PHE78       0.2619
     64  O        -36.2200  -84.8120  -54.6010 O.2    78  PHE78      -0.2715
     65  CB       -38.3960  -86.2120  -52.9750 C.3    78  PHE78       0.0574
     66  CG       -37.6410  -86.3690  -51.6860 C.ar   78  PHE78      -0.0200
     67  CD1      -36.3300  -86.8310  -51.6830 C.ar   78  PHE78      -0.0042
     68  CD2      -38.2450  -86.0300  -50.4710 C.ar   78  PHE78      -0.0042
     69  CE1      -35.6220  -86.9530  -50.4920 C.ar   78  PHE78      -0.0003
     70  CE2      -37.5480  -86.1450  -49.2660 C.ar   78  PHE78      -0.0003
     71  CZ       -36.2400  -86.6040  -49.2730 C.ar   78  PHE78      -0.0000
     72  N        -36.4490  -83.4420  -52.8290 N.am   79  LEU79      -0.1963
     73  CA       -35.0290  -83.0280  -52.8260 C.3    79  LEU79       0.1728
     74  C        -34.4880  -83.4340  -51.4560 C.2    79  LEU79       0.2616
     75  O        -35.2500  -83.5000  -50.4950 O.2    79  LEU79      -0.2715
     76  CB       -34.8400  -81.5310  -53.1190 C.3    79  LEU79       0.0311
     77  CG       -34.7970  -81.2100  -54.6270 C.3    79  LEU79       0.0022
     78  CD1      -36.2360  -81.0770  -55.1540 C.3    79  LEU79       0.0001
     79  CD2      -34.0390  -79.9130  -54.9100 C.3    79  LEU79       0.0001
     80  N        -33.1840  -83.7000  -51.3400 N.am   80  HIS80      -0.1959
     81  CA       -32.6760  -84.2150  -50.0660 C.3    80  HIS80       0.1787
     82  C        -32.3700  -83.3330  -48.8940 C.2    80  HIS80       0.2620
     83  O        -32.1840  -83.8330  -47.7640 O.2    80  HIS80      -0.2715
     84  CB       -31.4630  -85.1120  -50.3230 C.3    80  HIS80       0.0785
     85  CG       -31.8210  -86.4410  -50.9130 C.ar   80  HIS80       0.0821
     86  ND1      -32.3010  -86.5810  -52.1980 N.ar   80  HIS80      -0.2267
     87  CD2      -31.8170  -87.6880  -50.3740 C.ar   80  HIS80       0.1154
     88  CE1      -32.5790  -87.8530  -52.4250 C.ar   80  HIS80       0.1986
     89  NE2      -32.2940  -88.5450  -51.3340 N.ar   80  HIS80      -0.2212
     90  N        -32.3400  -82.0240  -49.1000 N.am   81  GLN81      -0.1963
     91  CA       -31.9980  -81.1790  -47.9590 C.3    81  GLN81       0.1733
     92  C        -32.4940  -79.7710  -48.1900 C.2    81  GLN81       0.2616
     93  O        -32.6610  -79.3810  -49.3390 O.2    81  GLN81      -0.2715
     94  CB       -30.4680  -81.1640  -47.7930 C.3    81  GLN81       0.0408
     95  CG       -29.9870  -80.5250  -46.4840 C.3    81  GLN81       0.0908
     96  CD       -28.5650  -80.9170  -46.1480 C.2    81  GLN81       0.2608
     97  OE1      -28.2820  -82.0910  -45.8670 O.2    81  GLN81      -0.2717
     98  NE2      -27.6620  -79.9500  -46.1720 N.am   81  GLN81      -0.0878
     99  N        -32.7630  -79.0320  -47.1120 N.am   82  ASP82      -0.1971
    100  CA       -33.1820  -77.6480  -47.2840 C.3    82  ASP82       0.1709
    101  C        -32.0330  -76.7370  -46.8830 C.2    82  ASP82       0.2293
    102  O        -31.0610  -77.1880  -46.2990 O.2    82  ASP82      -0.2864
    103  CB       -34.4770  -77.3060  -46.5180 C.3    82  ASP82       0.1436
    104  CG       -34.3590  -77.4830  -45.0030 C.2    82  ASP82       0.3671
    105  OD1      -33.3400  -77.0770  -44.4030 O.co2  82  ASP82      -0.2456
    106  OD2      -35.3240  -78.0160  -44.4200 O.co2  82  ASP82      -0.2456
    107  N        -30.8860  -76.5080  -43.0320 N.3    85  LYS85      -0.1245
    108  CA       -30.0020  -77.5680  -42.5620 C.3    85  LYS85       0.1561
    109  C        -28.6100  -77.3760  -43.1430 C.2    85  LYS85       0.2260
    110  O        -27.5990  -77.5340  -42.4470 O.2    85  LYS85      -0.2867
    111  CB       -30.5500  -78.9520  -42.9600 C.3    85  LYS85       0.0271
    112  CG       -29.7010  -80.1280  -42.4480 C.3    85  LYS85       0.0035
    113  CD       -30.5640  -81.4000  -42.3970 C.3    85  LYS85       0.0206
    114  CE       -29.7860  -82.6160  -41.9270 C.3    85  LYS85       0.1093
    115  NZ       -30.6050  -83.8580  -42.1730 N.3    85  LYS85      -0.1314
    116  N        -35.8860  -72.8270  -44.8370 N.3   127  GLN127     -0.1231
    117  CA       -36.5920  -74.1070  -44.8350 C.3   127  GLN127      0.1698
    118  C        -37.3970  -74.3730  -46.0800 C.2   127  GLN127      0.2592
    119  O        -37.7530  -75.5250  -46.3460 O.2   127  GLN127     -0.2718
    120  CB       -37.5520  -74.2050  -43.6550 C.3   127  GLN127      0.0381
    121  CG       -36.8940  -74.1830  -42.3070 C.3   127  GLN127      0.0905
    122  CD       -37.9130  -73.9510  -41.2170 C.2   127  GLN127      0.2608
    123  OE1      -38.3980  -72.8300  -41.0290 O.2   127  GLN127     -0.2717
    124  NE2      -38.2710  -75.0170  -40.5100 N.am  127  GLN127     -0.0878
    125  N        -37.7150  -73.3150  -46.8230 N.am  128  ASN128     -0.1974
    126  CA       -38.4920  -73.4540  -48.0460 C.3   128  ASN128      0.1688
    127  C        -37.6300  -73.4080  -49.3000 C.2   128  ASN128      0.2292
    128  O        -38.1480  -73.2360  -50.4000 O.2   128  ASN128     -0.2864
    129  CB       -39.5870  -72.3760  -48.1150 C.3   128  ASN128      0.1181
    130  CG       -40.6780  -72.5970  -47.0800 C.2   128  ASN128      0.2629
    131  OD1      -40.7770  -73.6900  -46.4840 O.2   128  ASN128     -0.2716
    132  ND2      -41.5090  -71.5780  -46.8600 N.am  128  ASN128     -0.0877
    133  N        -34.8470  -75.7200  -51.2240 N.3   130  LEU130     -0.1245
    134  CA       -34.3040  -77.0790  -51.2550 C.3   130  LEU130      0.1561
    135  C        -33.0990  -77.2100  -52.1620 C.2   130  LEU130      0.2260
    136  O        -33.0360  -76.5800  -53.1980 O.2   130  LEU130     -0.2867
    137  CB       -35.3960  -78.0340  -51.7260 C.3   130  LEU130      0.0270
    138  CG       -36.6870  -77.8360  -50.9360 C.3   130  LEU130      0.0019
    139  CD1      -37.7870  -78.6400  -51.5950 C.3   130  LEU130      0.0001
    140  CD2      -36.4920  -78.2750  -49.4930 C.3   130  LEU130      0.0001
    141  N        -39.6690  -73.7690  -52.8540 N.3   140  ALA140     -0.1231
    142  CA       -40.7070  -74.7240  -52.4630 C.3   140  ALA140      0.1694
    143  C        -41.6930  -74.0510  -51.4980 C.2   140  ALA140      0.2592
    144  O        -41.4640  -72.9370  -51.0430 O.2   140  ALA140     -0.2718
    145  CB       -40.0700  -75.9170  -51.7740 C.3   140  ALA140      0.0304
    146  N        -42.7920  -74.7370  -51.1990 N.am  141  ASP141     -0.1974
    147  CA       -43.7950  -74.2380  -50.2490 C.3   141  ASP141      0.1709
    148  C        -44.3010  -72.8210  -50.4930 C.2   141  ASP141      0.2293
    149  O        -44.3550  -72.0320  -49.5410 O.2   141  ASP141     -0.2864
    150  CB       -43.2110  -74.2790  -48.8330 C.3   141  ASP141      0.1436
    151  CG       -44.2600  -74.0120  -47.7570 C.2   141  ASP141      0.3671
    152  OD1      -43.8910  -73.7800  -46.5910 O.co2 141  ASP141     -0.2456
    153  OD2      -45.4500  -74.0450  -48.0880 O.co2 141  ASP141     -0.2456
@<TRIPOS>BOND
     1    60    58   ar
     2    59    58   ar
     3    58    57    1
     4    36    37    2
     5    36    35    1
     6    56    57    1
     7    56    53    1
     8    34    35    1
     9    35    38    1
    10    53    52    1
    11    53    54    1
    12    52    43   am
    13    38    39    1
    14    38    40    1
    15    43    42    1
    16    43    44    2
    17    54    61   am
    18    54    55    2
    19    78    77    1
    20    42    41    1
    21    42    45    1
    22    79    77    1
    23    61    62    1
    24    77    76    1
    25    64    63    2
    26    47    49   ar
    27    47    46   ar
    28    49    51   ar
    29    45    46    1
    30    46    48   ar
    31    63    62    1
    32    63    72   am
    33    62    65    1
    34   136   135    2
    35    51    50   ar
    36    76    73    1
    37    65    66    1
    38   141   142    1
    39    72    73    1
    40    73    74    1
    41    48    50   ar
    42   142   145    1
    43   142   143    1
    44    88    86   ar
    45    88    89   ar
    46    86    85   ar
    47   135   134    1
    48    20    21    1
    49    23    22    2
    50   137   134    1
    51   137   138    1
    52    66    67   ar
    53    66    68   ar
    54    67    69   ar
    55   139   138    1
    56   143   146   am
    57   143   144    2
    58    74    80   am
    59    74    75    2
    60    80    81    1
    61    89    87   ar
    62   134   133    1
    63   146   147    1
    64   138   140    1
    65    85    87   ar
    66    85    84    1
    67    22    21    1
    68    24    21    1
    69   148   147    1
    70   148   149    2
    71    69    71   ar
    72    68    70   ar
    73   128   127    2
    74    84    81    1
    75   147   150    1
    76    81    82    1
    77    93    92    2
    78   127   126    1
    79    71    70   ar
    80    90    82   am
    81    90    91    1
    82    25    26    1
    83    82    83    2
    84    28    27    2
    85   150   151    1
    86    29    26    1
    87    29    30    1
    88    92    91    1
    89    92    99   am
    90    26    27    1
    91   129   126    1
    92   129   130    1
    93   153   151   ar
    94   126   125    1
    95    91    94    1
    96    31    30    1
    97    31    32    1
    98    94    95    1
    99   151   152   ar
   100   100    99    1
   101   100   101    1
   102   100   103    1
   103   130   132   am
   104   130   131    2
   105    18    17    1
   106    33    32    1
   107   101   102    2
   108     8     6    1
   109   125   118   am
   110   103   104    1
   111    95    96    1
   112   119   118    2
   113    98    96   am
   114    96    97    2
   115   118   117    1
   116    19    17    1
   117    17    14    1
   118     6     5    1
   119    14    15    1
   120    14    13    1
   121   104   106   ar
   122   104   105   ar
   123     7     5    1
   124   116   117    1
   125   117   120    1
   126    15    16    2
   127     5     2    1
   128   120   121    1
   129   109   108    1
   130   109   110    2
   131     2     1    1
   132     2     3    1
   133   107   108    1
   134   111   108    1
   135   111   112    1
   136    10     9    1
   137    10    11    1
   138   112   113    1
   139   113   114    1
   140   121   122    1
   141     3     4    2
   142   115   114    1
   143    11    12    2
   144   122   123    2
   145   122   124   am
