@<TRIPOS>MOLECULE
tmp/3qu2A00.pdb
 156 150 0 0 0
SMALL
GASTEIGER

@<TRIPOS>ATOM
      1  N          4.6340   65.5890   41.1740 N.3     8  ASP8       -0.1239
      2  CA         4.3330   64.4520   40.3070 C.3     8  ASP8        0.1674
      3  C          4.0040   63.2340   41.1950 C.2     8  ASP8        0.2266
      4  O          4.2710   63.2640   42.3910 O.2     8  ASP8       -0.2867
      5  CB         5.4980   64.1470   39.3770 C.3     8  ASP8        0.1410
      6  CG         5.1270   63.1650   38.2910 C.2     8  ASP8        0.3668
      7  OD1        3.9360   63.0830   37.9210 O.co2   8  ASP8       -0.2456
      8  OD2        6.0280   62.4540   37.8180 O.co2   8  ASP8       -0.2456
      9  N          4.3030   59.3180   40.1440 N.3    10  ASP10      -0.1239
     10  CA         5.2860   58.2280   39.9400 C.3    10  ASP10       0.1674
     11  C          6.7180   58.7240   40.1490 C.2    10  ASP10       0.2266
     12  O          7.1020   59.7260   39.5740 O.2    10  ASP10      -0.2867
     13  CB         5.1530   57.6460   38.5220 C.3    10  ASP10       0.1410
     14  CG         3.7900   57.0320   38.2620 C.2    10  ASP10       0.3668
     15  OD1        3.4600   55.9890   38.8840 O.co2  10  ASP10      -0.2456
     16  OD2        3.0510   57.5830   37.4210 O.co2  10  ASP10      -0.2456
     17  N          8.2940   53.4690   39.3540 N.3    17  MET17      -0.1245
     18  CA         9.0350   53.4750   38.0780 C.3    17  MET17       0.1570
     19  C          9.7720   52.1830   37.6840 C.2    17  MET17       0.2261
     20  O          9.7760   51.8480   36.4980 O.2    17  MET17      -0.2867
     21  CB         9.9220   54.7130   37.9320 C.3    17  MET17       0.0387
     22  CG         9.1130   55.9960   37.6390 C.3    17  MET17       0.0595
     23  SD         7.9530   55.9050   36.2280 S.3    17  MET17      -0.1393
     24  CE         9.0520   55.4210   34.8620 C.3    17  MET17       0.0692
     25  N          6.7870   50.4890   36.0310 N.3    20  HIS20      -0.1241
     26  CA         6.3400   51.1360   34.7910 C.3    20  HIS20       0.1621
     27  C          7.3330   50.8560   33.6670 C.2    20  HIS20       0.2264
     28  O          6.9370   50.4760   32.5660 O.2    20  HIS20      -0.2867
     29  CB         6.1370   52.6510   34.9700 C.3    20  HIS20       0.0745
     30  CG         4.8230   53.0240   35.5880 C.ar   20  HIS20       0.0817
     31  ND1        3.6090   52.6610   35.0390 N.ar   20  HIS20      -0.2268
     32  CD2        4.5300   53.7560   36.6920 C.ar   20  HIS20       0.1154
     33  CE1        2.6270   53.1220   35.7940 C.ar   20  HIS20       0.1986
     34  NE2        3.1590   53.7960   36.8000 N.ar   20  HIS20      -0.2212
     35  N          6.4310   48.5060   30.2810 N.3    24  TRP24      -0.1241
     36  CA         6.6070   49.0630   28.9300 C.3    24  TRP24       0.1605
     37  C          7.6050   48.2680   28.1190 C.2    24  TRP24       0.2264
     38  O          7.3480   47.9420   26.9580 O.2    24  TRP24      -0.2867
     39  CB         7.1060   50.5070   28.9930 C.3    24  TRP24       0.0550
     40  CG         6.0390   51.5660   29.1860 C.ar   24  TRP24       0.0003
     41  CD1        5.9610   52.4660   30.2100 C.ar   24  TRP24       0.0946
     42  CD2        4.9290   51.8500   28.3170 C.ar   24  TRP24       0.0152
     43  NE1        4.8560   53.2800   30.0500 N.ar   24  TRP24      -0.2442
     44  CE2        4.2070   52.9250   28.8970 C.ar   24  TRP24       0.0810
     45  CE3        4.4690   51.2970   27.1130 C.ar   24  TRP24       0.0012
     46  CZ2        3.0620   53.4710   28.3040 C.ar   24  TRP24       0.0191
     47  CZ3        3.3140   51.8240   26.5320 C.ar   24  TRP24       0.0001
     48  CH2        2.6270   52.9060   27.1290 C.ar   24  TRP24       0.0015
     49  N         12.2460   53.9320   28.6670 N.3    40  ALA40      -0.1245
     50  CA        10.9840   54.1150   29.3900 C.3    40  ALA40       0.1562
     51  C         11.0810   55.1970   30.4620 C.2    40  ALA40       0.2260
     52  O         10.1850   56.0370   30.5710 O.2    40  ALA40      -0.2867
     53  CB        10.4940   52.7840   29.9820 C.3    40  ALA40       0.0290
     54  N         10.9670   58.5690   28.8220 N.3    43  HIS43      -0.1226
     55  CA         9.5890   58.9420   28.4640 C.3    43  HIS43       0.1752
     56  C          8.6040   59.0800   29.6220 C.2    43  HIS43       0.2596
     57  O          7.4070   59.2870   29.3880 O.2    43  HIS43      -0.2718
     58  CB         9.0150   57.9700   27.4260 C.3    43  HIS43       0.0759
     59  CG         9.7690   57.9800   26.1370 C.ar   43  HIS43       0.0818
     60  ND1       10.0490   59.1440   25.4550 N.ar   43  HIS43      -0.2268
     61  CD2       10.3350   56.9770   25.4260 C.ar   43  HIS43       0.1154
     62  CE1       10.7500   58.8570   24.3740 C.ar   43  HIS43       0.1986
     63  NE2       10.9380   57.5480   24.3350 N.ar   43  HIS43      -0.2212
     64  N          9.0890   58.9460   30.8530 N.am   44  GLU44      -0.1965
     65  CA         8.2370   59.1350   32.0320 C.3    44  GLU44       0.1733
     66  C          7.5580   60.5190   31.9980 C.2    44  GLU44       0.2617
     67  O          8.2130   61.5350   31.7680 O.2    44  GLU44      -0.2715
     68  CB         9.0630   58.9560   33.3230 C.3    44  GLU44       0.0429
     69  CG         8.2510   59.2100   34.5780 C.3    44  GLU44       0.1163
     70  CD         9.0500   59.0550   35.8530 C.2    44  GLU44       0.3649
     71  OE1       10.1840   58.5430   35.8080 O.co2  44  GLU44      -0.2457
     72  OE2        8.4970   59.4170   36.9130 O.co2  44  GLU44      -0.2457
     73  N          6.2390   60.5450   32.1700 N.am   45  GLY45      -0.1940
     74  CA         5.4780   61.8000   32.1230 C.3    45  GLY45       0.2014
     75  C          4.5800   61.9290   30.8990 C.2    45  GLY45       0.2639
     76  O          3.5490   62.5980   30.9490 O.2    45  GLY45      -0.2714
     77  N          4.9700   61.2880   29.7960 N.am   46  ARG46      -0.1963
     78  CA         4.1770   61.3070   28.5680 C.3    46  ARG46       0.1729
     79  C          2.9000   60.5070   28.7220 C.2    46  ARG46       0.2617
     80  O          2.8290   59.6040   29.5530 O.2    46  ARG46      -0.2715
     81  CB         4.9380   60.6740   27.4060 C.3    46  ARG46       0.0348
     82  CG         6.1190   61.4410   26.9410 C.3    46  ARG46       0.0492
     83  CD         6.6280   60.8660   25.6280 C.3    46  ARG46       0.2205
     84  NE         7.9390   61.4160   25.2880 N.pl3  46  ARG46      -0.0865
     85  CZ         8.1530   62.5870   24.6940 C.cat  46  ARG46       0.5346
     86  NH1        7.1390   63.3660   24.3410 N.pl3  46  ARG46       0.1354
     87  NH2        9.4000   62.9730   24.4380 N.pl3  46  ARG46       0.1354
     88  N          1.9270   60.8210   27.8720 N.am   47  THR47      -0.1937
     89  CA         0.7310   59.9970   27.7090 C.3    47  THR47       0.2028
     90  C          1.1530   58.6100   27.2070 C.2    47  THR47       0.2642
     91  O          2.1870   58.4730   26.5380 O.2    47  THR47      -0.2714
     92  CB        -0.2670   60.6050   26.6730 C.3    47  THR47       0.1808
     93  OG1        0.2960   60.5500   25.3560 O.3    47  THR47      -0.2208
     94  CG2       -0.6310   62.0530   26.9950 C.3    47  THR47       0.0379
     95  N          0.3520   57.5950   27.5250 N.am   48  GLY48      -0.1954
     96  CA         0.5190   56.2590   26.9560 C.3    48  GLY48       0.1869
     97  C          0.5720   56.2750   25.4370 C.2    48  GLY48       0.2309
     98  O          1.4250   55.6160   24.8400 O.2    48  GLY48      -0.2863
     99  N          3.9630   57.8010   24.0530 N.3    51  THR51      -0.1218
    100  CA         5.0260   56.8060   24.2600 C.3    51  THR51       0.1862
    101  C          5.0240   55.7350   23.1570 C.2    51  THR51       0.2287
    102  O          6.0580   55.4700   22.5190 O.2    51  THR51      -0.2866
    103  CB         4.9270   56.1330   25.6680 C.3    51  THR51       0.1770
    104  OG1        4.9180   57.1390   26.6900 O.3    51  THR51      -0.2211
    105  CG2        6.1070   55.1970   25.9160 C.3    51  THR51       0.0375
    106  N         -1.5460   49.8210   25.3670 N.3    73  TYR73      -0.1241
    107  CA        -1.7580   50.5620   26.6320 C.3    73  TYR73       0.1605
    108  C         -2.4040   49.6660   27.6810 C.2    73  TYR73       0.2264
    109  O         -1.9910   49.6600   28.8440 O.2    73  TYR73      -0.2867
    110  CB        -2.6430   51.7850   26.3680 C.3    73  TYR73       0.0534
    111  CG        -2.9020   52.7590   27.5110 C.ar   73  TYR73      -0.0201
    112  CD1       -2.4220   54.0690   27.4470 C.ar   73  TYR73      -0.0009
    113  CD2       -3.7070   52.4100   28.6050 C.ar   73  TYR73      -0.0009
    114  CE1       -2.6870   54.9900   28.4670 C.ar   73  TYR73       0.0417
    115  CE2       -3.9700   53.3160   29.6330 C.ar   73  TYR73       0.0417
    116  CZ        -3.4600   54.6070   29.5560 C.ar   73  TYR73       0.1957
    117  OH        -3.7270   55.5100   30.5660 O.3    73  TYR73      -0.2866
    118  N         -0.0970   46.8540   28.8730 N.3    76  LYS76      -0.1245
    119  CA         0.9400   47.4120   29.7510 C.3    76  LYS76       0.1561
    120  C          0.4140   47.7310   31.1500 C.2    76  LYS76       0.2260
    121  O          1.1080   47.5070   32.1520 O.2    76  LYS76      -0.2867
    122  CB         1.5940   48.6420   29.0980 C.3    76  LYS76       0.0271
    123  CG         2.7150   49.3170   29.9040 C.3    76  LYS76       0.0035
    124  CD         2.1760   50.4950   30.6940 C.3    76  LYS76       0.0206
    125  CE         3.0170   50.7890   31.9250 C.3    76  LYS76       0.1093
    126  NZ         2.4650   51.9940   32.6040 N.3    76  LYS76      -0.1314
    127  N          0.1590   65.0390   37.2790 N.3   110  THR110     -0.1203
    128  CA         0.6370   63.7730   36.7700 C.3   110  THR110      0.1994
    129  C          0.1080   63.4760   35.3660 C.2   110  THR110      0.2618
    130  O         -0.9980   63.8740   35.0050 O.2   110  THR110     -0.2717
    131  CB         0.2700   62.6080   37.7440 C.3   110  THR110      0.1784
    132  OG1        0.7630   61.3910   37.2050 O.3   110  THR110     -0.2211
    133  CG2       -1.2510   62.4580   37.9290 C.3   110  THR110      0.0376
    134  N          0.9120   62.7670   34.5790 N.am  111  GLY111     -0.1942
    135  CA         0.4550   62.2300   33.3070 C.3   111  GLY111      0.2014
    136  C         -0.2320   60.8860   33.4340 C.2   111  GLY111      0.2640
    137  O         -0.6470   60.3130   32.4420 O.2   111  GLY111     -0.2714
    138  N         -0.3620   60.3820   34.6570 N.am  112  SER112     -0.1935
    139  CA        -0.9320   59.0590   34.8880 C.3   112  SER112      0.2055
    140  C         -2.4360   58.9880   34.6870 C.2   112  SER112      0.2644
    141  O         -3.1700   59.9100   35.0570 O.2   112  SER112     -0.2714
    142  CB        -0.6000   58.6070   36.3020 C.3   112  SER112      0.2130
    143  OG        -1.2010   57.3690   36.6110 O.3   112  SER112     -0.2179
    144  N         -2.8690   57.8910   34.0640 N.am  113  GLY113     -0.1939
    145  CA        -4.2650   57.4270   34.1170 C.3   113  GLY113      0.2014
    146  C         -4.3700   56.1010   34.8660 C.2   113  GLY113      0.2638
    147  O         -5.3320   55.3480   34.6930 O.2   113  GLY113     -0.2714
    148  N         -3.3660   55.8010   35.6870 N.am  114  GLN114     -0.1977
    149  CA        -3.3170   54.5320   36.4160 C.3   114  GLN114      0.1601
    150  C         -4.2310   54.6350   37.6230 C.2   114  GLN114      0.2287
    151  O         -3.8190   55.1540   38.6670 O.2   114  GLN114     -0.2864
    152  CB        -1.8830   54.2010   36.8760 C.3   114  GLN114      0.0394
    153  CG        -1.6840   52.7430   37.3220 C.3   114  GLN114      0.0908
    154  CD        -1.5020   51.7940   36.1400 C.2   114  GLN114      0.2608
    155  OE1       -0.5420   51.9130   35.3880 O.2   114  GLN114     -0.2717
    156  NE2       -2.4220   50.8390   35.9810 N.am  114  GLN114     -0.0878
@<TRIPOS>BOND
     1   102   101    2
     2   101   100    1
     3    99   100    1
     4   100   103    1
     5    63    62   ar
     6    63    61   ar
     7    86    85    1
     8    62    60   ar
     9    87    85    1
    10    85    84    2
    11    98    97    2
    12    84    83    1
    13    93    92    1
    14   106   107    1
    15    61    59   ar
    16    97    96    1
    17    60    59   ar
    18    83    82    1
    19   103   105    1
    20   103   104    1
    21    59    58    1
    22   110   107    1
    23   110   111    1
    24    47    45   ar
    25    47    48   ar
    26    91    90    2
    27   107   108    1
    28    92    94    1
    29    92    89    1
    30    82    81    1
    31    96    95    1
    32    38    37    2
    33    45    42   ar
    34    48    46   ar
    35    90    95   am
    36    90    89    1
    37    81    78    1
    38    58    55    1
    39   112   111   ar
    40   112   114   ar
    41   111   113   ar
    42   108   109    2
    43    89    88    1
    44    88    79   am
    45    37    36    1
    46    46    44   ar
    47    42    44   ar
    48    42    40   ar
    49    55    54    1
    50    55    56    1
    51   114   116   ar
    52    78    79    1
    53    78    77    1
    54   113   115   ar
    55    49    50    1
    56    79    80    2
    57   118   119    1
    58    44    43   ar
    59    36    39    1
    60    36    35    1
    61    39    40    1
    62   122   119    1
    63   122   123    1
    64    40    41   ar
    65    57    56    2
    66    50    53    1
    67    50    51    1
    68   116   115   ar
    69   116   117    1
    70    56    64   am
    71   119   120    1
    72    77    75   am
    73   123   124    1
    74    43    41   ar
    75    51    52    2
    76   124   125    1
    77    64    65    1
    78    75    76    2
    79    75    74    1
    80   120   121    2
    81    67    66    2
    82   125   126    1
    83    66    65    1
    84    66    73   am
    85    65    68    1
    86    74    73    1
    87   137   136    2
    88    28    27    2
    89   135   136    1
    90   135   134    1
    91    68    69    1
    92   136   138   am
    93    27    26    1
    94   144   145    1
    95   144   140   am
    96   145   146    1
    97    69    70    1
    98   134   129   am
    99   138   139    1
   100   140   139    1
   101   140   141    2
   102   147   146    2
   103    26    29    1
   104    26    25    1
   105    24    23    1
   106   146   148   am
   107   139   142    1
   108    29    30    1
   109   130   129    2
   110    31    30   ar
   111    31    33   ar
   112   129   128    1
   113   155   154    2
   114    30    32   ar
   115   148   149    1
   116    33    34   ar
   117    71    70   ar
   118    70    72   ar
   119   156   154   am
   120   154   153    1
   121    23    22    1
   122   142   143    1
   123   149   152    1
   124   149   150    1
   125    20    19    2
   126    32    34   ar
   127   128   127    1
   128   128   131    1
   129   152   153    1
   130   132   131    1
   131    16    14   ar
   132   150   151    2
   133    22    21    1
   134    19    18    1
   135   131   133    1
   136     8     6   ar
   137     7     6   ar
   138    21    18    1
   139    18    17    1
   140    14    13    1
   141    14    15   ar
   142     6     5    1
   143    13    10    1
   144     5     2    1
   145    12    11    2
   146    10     9    1
   147    10    11    1
   148     2     1    1
   149     2     3    1
   150     3     4    2
