@<TRIPOS>MOLECULE
tmp/3qu8A01.pdb
 79 73 0 0 0
SMALL
GASTEIGER

@<TRIPOS>ATOM
      1  N        -22.6330    1.1220    6.0610 N.3    87  ILE87      -0.1245
      2  CA       -22.3650    1.8490    4.7980 C.3    87  ILE87       0.1561
      3  C        -23.5910    2.4220    4.1260 C.2    87  ILE87       0.2260
      4  O        -23.5480    3.5620    3.6940 O.2    87  ILE87      -0.2867
      5  CB       -21.6300    0.9690    3.7370 C.3    87  ILE87       0.0252
      6  CG1      -20.3720    0.3290    4.3680 C.3    87  ILE87       0.0019
      7  CG2      -21.3240    1.7860    2.4340 C.3    87  ILE87       0.0019
      8  CD1      -19.5080   -0.4310    3.4070 C.3    87  ILE87       0.0001
      9  N        -16.6460   -5.9960   -7.1900 N.3   176  PHE176     -0.1241
     10  CA       -16.2400   -4.6270   -7.2460 C.3   176  PHE176      0.1605
     11  C        -16.0040   -4.1710   -8.6690 C.2   176  PHE176      0.2264
     12  O        -16.2310   -3.0000   -8.9730 O.2   176  PHE176     -0.2867
     13  CB       -14.9760   -4.4110   -6.4260 C.3   176  PHE176      0.0534
     14  CG       -14.7010   -2.9770   -6.1080 C.ar  176  PHE176     -0.0203
     15  CD1      -13.4700   -2.4030   -6.4140 C.ar  176  PHE176     -0.0042
     16  CD2      -15.6570   -2.1980   -5.4890 C.ar  176  PHE176     -0.0042
     17  CE1      -13.1790   -1.0430   -6.0850 C.ar  176  PHE176     -0.0003
     18  CE2      -15.4020   -0.8440   -5.1800 C.ar  176  PHE176     -0.0003
     19  CZ       -14.1560   -0.2700   -5.4680 C.ar  176  PHE176     -0.0000
     20  N        -16.2640   -6.8660    3.4190 N.3   267  PHE267     -0.1227
     21  CA       -15.9500   -6.4080    2.0840 C.3   267  PHE267      0.1736
     22  C        -15.1160   -5.1390    2.0810 C.2   267  PHE267      0.2595
     23  O        -14.0720   -5.1220    1.4980 O.2   267  PHE267     -0.2718
     24  CB       -17.2540   -6.2270    1.3190 C.3   267  PHE267      0.0547
     25  CG       -17.1070   -6.1250   -0.1620 C.ar  267  PHE267     -0.0202
     26  CD1      -18.1660   -6.3790   -0.9850 C.ar  267  PHE267     -0.0042
     27  CD2      -15.9460   -5.7210   -0.7300 C.ar  267  PHE267     -0.0042
     28  CE1      -18.0450   -6.2770   -2.3360 C.ar  267  PHE267     -0.0003
     29  CE2      -15.8430   -5.6080   -2.0780 C.ar  267  PHE267     -0.0003
     30  CZ       -16.8920   -5.8900   -2.8680 C.ar  267  PHE267     -0.0000
     31  N        -15.5680   -4.0790    2.7380 N.am  268  ALA268     -0.1980
     32  CA       -14.8490   -2.8060    2.7880 C.3   268  ALA268      0.1597
     33  C        -13.4550   -2.9250    3.3140 C.2   268  ALA268      0.2287
     34  O        -12.4990   -2.4060    2.7970 O.2   268  ALA268     -0.2864
     35  CB       -15.5810   -1.8560    3.6520 C.3   268  ALA268      0.0319
     36  N        -11.3660   -4.8590    0.3320 N.3   271  GLU271     -0.1231
     37  CA       -11.1250   -4.3300   -1.0010 C.3   271  GLU271      0.1699
     38  C        -10.1310   -3.1990   -1.1460 C.2   271  GLU271      0.2592
     39  O         -9.1530   -3.3530   -1.8300 O.2   271  GLU271     -0.2718
     40  CB       -12.4190   -3.9930   -1.7360 C.3   271  GLU271      0.0402
     41  CG       -12.2220   -3.8840   -3.2660 C.3   271  GLU271      0.1161
     42  CD       -11.7190   -5.1700   -3.8890 C.2   271  GLU271      0.3649
     43  OE1      -11.0920   -5.0880   -4.9760 O.co2 271  GLU271     -0.2457
     44  OE2      -11.9310   -6.2580   -3.2830 O.co2 271  GLU271     -0.2457
     45  N        -10.3650   -2.0510   -0.5460 N.am  272  THR272     -0.1953
     46  CA        -9.5540   -0.8840   -0.9040 C.3   272  THR272      0.1897
     47  C         -8.1080   -0.9130   -0.4630 C.2   272  THR272      0.2313
     48  O         -7.2220   -0.5120   -1.2150 O.2   272  THR272     -0.2863
     49  CB       -10.2000    0.4350   -0.4320 C.3   272  THR272      0.1794
     50  OG1      -10.7900    0.2300    0.8660 O.3   272  THR272     -0.2208
     51  CG2      -11.2620    0.9600   -1.4730 C.3   272  THR272      0.0378
     52  N        -11.5990    5.7020   -5.0200 N.3   333  LEU333     -0.1245
     53  CA       -13.0380    5.9570   -5.0010 C.3   333  LEU333      0.1561
     54  C        -13.2370    7.3790   -5.4880 C.2   333  LEU333      0.2260
     55  O        -13.4400    8.2920   -4.7020 O.2   333  LEU333     -0.2867
     56  CB       -13.6180    5.7590   -3.6090 C.3   333  LEU333      0.0270
     57  CG       -13.5720    4.3480   -3.0150 C.3   333  LEU333      0.0019
     58  CD1      -14.2670    4.3150   -1.6650 C.3   333  LEU333      0.0001
     59  CD2      -14.2250    3.3530   -3.8990 C.3   333  LEU333      0.0001
     60  N        -18.5540    7.6400   -1.7830 N.3   337  VAL337     -0.1245
     61  CA       -19.8340    6.9140   -1.7920 C.3   337  VAL337      0.1561
     62  C        -20.9870    7.9290   -1.7620 C.2   337  VAL337      0.2260
     63  O        -20.8790    8.9650   -1.1490 O.2   337  VAL337     -0.2867
     64  CB       -19.9120    5.9280   -0.6100 C.3   337  VAL337      0.0252
     65  CG1      -21.2450    5.1970   -0.5460 C.3   337  VAL337      0.0019
     66  CG2      -18.7880    4.9000   -0.6630 C.3   337  VAL337      0.0019
     67  N        -14.4490    7.6440    6.3290 N.3   406  CYS406     -0.1235
     68  CA       -14.0900    6.2290    6.4180 C.3   406  CYS406      0.1677
     69  C        -13.8500    5.7990    7.8720 C.2   406  CYS406      0.2270
     70  O        -12.9410    6.3040    8.5300 O.2   406  CYS406     -0.2867
     71  CB       -12.8510    5.9350    5.5700 C.3   406  CYS406      0.0956
     72  SG       -12.4300    4.1810    5.4470 S.3   406  CYS406     -0.0801
     73  N        -17.2780    3.3850   -9.8570 N.3   447  VAL447     -0.1245
     74  CA       -17.3310    3.6100   -8.4260 C.3   447  VAL447      0.1561
     75  C        -15.9280    3.4070   -7.8940 C.2   447  VAL447      0.2260
     76  O        -15.4120    4.2730   -7.2080 O.2   447  VAL447     -0.2867
     77  CB       -18.3650    2.7160   -7.6910 C.3   447  VAL447      0.0252
     78  CG1      -18.0660    2.6750   -6.2130 C.3   447  VAL447      0.0019
     79  CG2      -19.7370    3.2430   -7.8450 C.3   447  VAL447      0.0019
@<TRIPOS>BOND
     1    73    74    1
     2    12    11    2
     3    11    10    1
     4    74    75    1
     5    74    77    1
     6    75    76    2
     7    79    77    1
     8    77    78    1
     9    10     9    1
    10    10    13    1
    11    13    14    1
    12    15    14   ar
    13    15    17   ar
    14    14    16   ar
    15    17    19   ar
    16    16    18   ar
    17    54    53    1
    18    54    55    2
    19    19    18   ar
    20    52    53    1
    21    53    56    1
    22    43    42   ar
    23    59    57    1
    24    42    44   ar
    25    42    41    1
    26    56    57    1
    27    41    40    1
    28    57    58    1
    29    30    28   ar
    30    30    29   ar
    31    28    26   ar
    32    29    27   ar
    33    39    38    2
    34    61    60    1
    35    61    62    1
    36    61    64    1
    37    62    63    2
    38    40    37    1
    39    51    49    1
    40    48    47    2
    41    38    37    1
    42    38    45   am
    43    37    36    1
    44    26    25   ar
    45    46    45    1
    46    46    47    1
    47    46    49    1
    48    27    25   ar
    49    66    64    1
    50    64    65    1
    51    49    50    1
    52    25    24    1
    53    24    21    1
    54    23    22    2
    55    22    21    1
    56    22    31   am
    57    21    20    1
    58     7     5    1
    59    31    32    1
    60    32    33    1
    61    32    35    1
    62    34    33    2
    63     8     6    1
    64     4     3    2
    65     5     6    1
    66     5     2    1
    67     3     2    1
    68     2     1    1
    69    72    71    1
    70    71    68    1
    71    67    68    1
    72    68    69    1
    73    69    70    2
