@<TRIPOS>MOLECULE
tmp/3qu8B01.pdb
 146 136 0 0 0
SMALL
GASTEIGER

@<TRIPOS>ATOM
      1  N        -51.9360   19.9730    0.6480 N.3    74  ILE74      -0.1245
      2  CA       -52.2160   20.9290   -0.3790 C.3    74  ILE74       0.1561
      3  C        -51.2310   20.7190   -1.5220 C.2    74  ILE74       0.2260
      4  O        -50.0400   20.8890   -1.4000 O.2    74  ILE74      -0.2867
      5  CB       -52.2310   22.3010    0.1860 C.3    74  ILE74       0.0252
      6  CG1      -53.4930   22.4420    1.0560 C.3    74  ILE74       0.0019
      7  CG2      -52.1900   23.3130   -0.9290 C.3    74  ILE74       0.0019
      8  CD1      -53.5540   23.6670    1.9370 C.3    74  ILE74       0.0001
      9  N        -48.2280   22.8610   -2.3870 N.3    77  VAL77      -0.1245
     10  CA       -47.1160   23.0890   -1.4740 C.3    77  VAL77       0.1561
     11  C        -46.5550   21.8030   -0.9720 C.2    77  VAL77       0.2260
     12  O        -45.4240   21.7870   -0.4460 O.2    77  VAL77      -0.2867
     13  CB       -47.5140   23.9250   -0.2470 C.3    77  VAL77       0.0252
     14  CG1      -47.8740   25.3500   -0.6560 C.3    77  VAL77       0.0019
     15  CG2      -48.6530   23.2600    0.5260 C.3    77  VAL77       0.0019
     16  N        -43.2820   20.7910    1.5980 N.3    81  PHE81      -0.1241
     17  CA       -43.4610   20.3620    2.9670 C.3    81  PHE81       0.1605
     18  C        -43.2920   18.8630    3.1930 C.2    81  PHE81       0.2264
     19  O        -42.5680   18.4240    4.0870 O.2    81  PHE81      -0.2867
     20  CB       -44.8360   20.7910    3.4400 C.3    81  PHE81       0.0534
     21  CG       -44.9280   22.2470    3.7690 C.ar   81  PHE81      -0.0203
     22  CD1      -44.3080   22.7780    4.9080 C.ar   81  PHE81      -0.0042
     23  CD2      -45.6130   23.0990    2.9150 C.ar   81  PHE81      -0.0042
     24  CE1      -44.4090   24.1270    5.1910 C.ar   81  PHE81      -0.0003
     25  CE2      -45.7220   24.4710    3.1670 C.ar   81  PHE81      -0.0003
     26  CZ       -45.1300   25.0020    4.2890 C.ar   81  PHE81      -0.0000
     27  N        -48.4000   22.3760   10.7130 N.3    87  ILE87      -0.1231
     28  CA       -49.5500   22.4400    9.7880 C.3    87  ILE87       0.1692
     29  C        -49.7870   21.1730    8.9630 C.2    87  ILE87       0.2592
     30  O        -50.9200   20.6320    8.8970 O.2    87  ILE87      -0.2718
     31  CB       -49.4820   23.6160    8.8100 C.3    87  ILE87       0.0266
     32  CG1      -49.4040   24.9420    9.5800 C.3    87  ILE87       0.0019
     33  CG2      -50.7030   23.5720    7.9650 C.3    87  ILE87       0.0020
     34  CD1      -49.4770   26.1780    8.7770 C.3    87  ILE87       0.0001
     35  N        -48.7090   20.6990    8.3570 N.am   88  PHE88      -0.1976
     36  CA       -48.7850   19.5510    7.4880 C.3    88  PHE88       0.1639
     37  C        -48.3910   18.1890    8.0750 C.2    88  PHE88       0.2290
     38  O        -48.3750   17.1960    7.3490 O.2    88  PHE88      -0.2864
     39  CB       -48.0710   19.8540    6.1630 C.3    88  PHE88       0.0560
     40  CG       -48.7370   20.9160    5.4080 C.ar   88  PHE88      -0.0200
     41  CD1      -50.0410   20.7200    4.9310 C.ar   88  PHE88      -0.0042
     42  CD2      -48.1270   22.1240    5.2300 C.ar   88  PHE88      -0.0042
     43  CE1      -50.7090   21.7020    4.2610 C.ar   88  PHE88      -0.0003
     44  CE2      -48.7950   23.1480    4.5710 C.ar   88  PHE88      -0.0003
     45  CZ       -50.0940   22.9370    4.0880 C.ar   88  PHE88      -0.0000
     46  N        -49.3640   32.7760   -1.5650 N.3   173  PHE173     -0.1241
     47  CA       -50.7480   32.5460   -1.1890 C.3   173  PHE173      0.1605
     48  C        -51.7150   32.7150   -2.3670 C.2   173  PHE173      0.2264
     49  O        -52.7380   31.9970   -2.4710 O.2   173  PHE173     -0.2867
     50  CB       -51.1670   33.4490   -0.0260 C.3   173  PHE173      0.0534
     51  CG       -52.3780   32.9620    0.6900 C.ar  173  PHE173     -0.0203
     52  CD1      -53.4830   33.7750    0.8580 C.ar  173  PHE173     -0.0042
     53  CD2      -52.4260   31.6680    1.1970 C.ar  173  PHE173     -0.0042
     54  CE1      -54.6200   33.2940    1.5150 C.ar  173  PHE173     -0.0003
     55  CE2      -53.5660   31.1950    1.8400 C.ar  173  PHE173     -0.0003
     56  CZ       -54.6570   32.0040    1.9860 C.ar  173  PHE173     -0.0000
     57  N        -51.2580   29.8410   -4.8690 N.3   176  ILE176     -0.1245
     58  CA       -51.9620   28.6990   -4.3060 C.3   176  ILE176      0.1561
     59  C        -53.4570   28.8320   -4.5330 C.2   176  ILE176      0.2260
     60  O        -54.1450   27.8540   -4.7320 O.2   176  ILE176     -0.2867
     61  CB       -51.6890   28.5480   -2.8170 C.3   176  ILE176      0.0252
     62  CG1      -50.2490   28.1490   -2.5690 C.3   176  ILE176      0.0019
     63  CG2      -52.6230   27.5250   -2.1700 C.3   176  ILE176      0.0019
     64  CD1      -49.9070   28.2370   -1.1010 C.3   176  ILE176      0.0001
     65  N        -41.1910   29.2940   -1.3420 N.3   205  LEU205     -0.1245
     66  CA       -41.0370   28.6230   -0.0690 C.3   205  LEU205      0.1561
     67  C        -39.5700   28.3190    0.2410 C.2   205  LEU205      0.2260
     68  O        -39.1600   28.4650    1.3950 O.2   205  LEU205     -0.2867
     69  CB       -41.9020   27.3520    0.0260 C.3   205  LEU205      0.0270
     70  CG       -43.4270   27.5440   -0.0870 C.3   205  LEU205      0.0019
     71  CD1      -44.1820   26.2980   -0.3470 C.3   205  LEU205      0.0001
     72  CD2      -43.9530   28.1890    1.1760 C.3   205  LEU205      0.0001
     73  N        -41.2470   28.3520    9.4190 N.3   260  LEU260     -0.1231
     74  CA       -41.9200   28.7900    8.2160 C.3   260  LEU260      0.1693
     75  C        -43.4560   28.6880    8.2810 C.2   260  LEU260      0.2592
     76  O        -44.1390   29.6770    8.0000 O.2   260  LEU260     -0.2718
     77  CB       -41.3730   28.0540    6.9910 C.3   260  LEU260      0.0284
     78  CG       -41.7520   28.7380    5.6680 C.3   260  LEU260      0.0019
     79  CD1      -40.5920   28.6840    4.7100 C.3   260  LEU260      0.0001
     80  CD2      -43.0150   28.0980    5.0550 C.3   260  LEU260      0.0001
     81  N        -44.0130   27.5400    8.6530 N.am  261  SER261     -0.1952
     82  CA       -45.4550   27.4770    8.7560 C.3   261  SER261      0.1924
     83  C        -46.0070   28.5170    9.7290 C.2   261  SER261      0.2314
     84  O        -46.9390   29.2350    9.3550 O.2   261  SER261     -0.2863
     85  CB       -45.9370   26.1100    9.1810 C.3   261  SER261      0.2116
     86  OG       -45.5190   25.0800    8.3010 O.3   261  SER261     -0.2180
     87  N        -45.4660   32.0840    8.2500 N.3   264  PHE264     -0.1227
     88  CA       -46.3510   32.3050    7.1510 C.3   264  PHE264      0.1736
     89  C        -47.7920   32.4100    7.5810 C.2   264  PHE264      0.2595
     90  O        -48.4340   33.3720    7.2580 O.2   264  PHE264     -0.2718
     91  CB       -46.1470   31.1630    6.1820 C.3   264  PHE264      0.0547
     92  CG       -46.8040   31.3340    4.8640 C.ar  264  PHE264     -0.0202
     93  CD1      -46.2670   30.7650    3.7530 C.ar  264  PHE264     -0.0042
     94  CD2      -47.9610   32.0120    4.7390 C.ar  264  PHE264     -0.0042
     95  CE1      -46.8630   30.8940    2.5580 C.ar  264  PHE264     -0.0003
     96  CE2      -48.5510   32.1260    3.5370 C.ar  264  PHE264     -0.0003
     97  CZ       -47.9920   31.5730    2.4540 C.ar  264  PHE264     -0.0000
     98  N        -48.3030   31.4290    8.3170 N.am  265  ALA265     -0.1980
     99  CA       -49.7050   31.4160    8.7610 C.3   265  ALA265      0.1597
    100  C        -50.0190   32.5850    9.7450 C.2   265  ALA265      0.2287
    101  O        -51.0580   33.2600    9.6420 O.2   265  ALA265     -0.2864
    102  CB       -50.0640   30.0510    9.3210 C.3   265  ALA265      0.0319
    103  N        -50.1800   35.7600    7.2580 N.3   268  GLU268     -0.1231
    104  CA       -51.1280   35.9460    6.1470 C.3   268  GLU268      0.1699
    105  C        -52.5570   36.2990    6.4760 C.2   268  GLU268      0.2592
    106  O        -53.0210   37.3430    6.0670 O.2   268  GLU268     -0.2718
    107  CB       -51.1150   34.7870    5.1300 C.3   268  GLU268      0.0402
    108  CG       -51.7920   35.1270    3.7940 C.3   268  GLU268      0.1161
    109  CD       -51.1060   36.2940    3.0260 C.2   268  GLU268      0.3649
    110  OE1      -51.7890   36.9000    2.1520 O.co2 268  GLU268     -0.2457
    111  OE2      -49.9000   36.6310    3.2840 O.co2 268  GLU268     -0.2457
    112  N        -53.2760   35.4250    7.1560 N.am  269  THR269     -0.1953
    113  CA       -54.7190   35.6210    7.3500 C.3   269  THR269      0.1897
    114  C        -55.1370   36.8090    8.2650 C.2   269  THR269      0.2313
    115  O        -56.1310   37.5150    7.9920 O.2   269  THR269     -0.2863
    116  CB       -55.3580   34.3690    7.9080 C.3   269  THR269      0.1794
    117  OG1      -54.4650   33.8350    8.9060 O.3   269  THR269     -0.2208
    118  CG2      -55.6190   33.3390    6.7930 C.3   269  THR269      0.0378
    119  N        -60.7020   31.2310    4.5160 N.3   330  LEU330     -0.1245
    120  CA       -60.2970   29.8940    4.1760 C.3   330  LEU330      0.1561
    121  C        -61.5430   29.1190    3.9780 C.2   330  LEU330      0.2260
    122  O        -61.9650   28.4400    4.8580 O.2   330  LEU330     -0.2867
    123  CB       -59.4540   29.3140    5.2920 C.3   330  LEU330      0.0270
    124  CG       -58.0650   29.8980    5.5460 C.3   330  LEU330      0.0019
    125  CD1      -57.3600   29.1750    6.6970 C.3   330  LEU330      0.0001
    126  CD2      -57.2100   29.8550    4.2850 C.3   330  LEU330      0.0001
    127  N        -58.4040   23.7480    5.9320 N.3   334  VAL334     -0.1245
    128  CA       -57.2120   23.0990    5.4240 C.3   334  VAL334      0.1561
    129  C        -57.6020   21.6610    5.3720 C.2   334  VAL334      0.2260
    130  O        -58.3170   21.2260    6.2370 O.2   334  VAL334     -0.2867
    131  CB       -56.0120   23.3250    6.3570 C.3   334  VAL334      0.0252
    132  CG1      -54.7620   22.5340    5.9240 C.3   334  VAL334      0.0019
    133  CG2      -55.7170   24.7990    6.4430 C.3   334  VAL334      0.0019
    134  N        -57.3790   26.2240   14.7050 N.3   403  CYS403     -0.1235
    135  CA       -56.2620   27.1440   14.5040 C.3   403  CYS403      0.1677
    136  C        -55.5420   27.4020   15.8190 C.2   403  CYS403      0.2270
    137  O        -56.1020   28.0260   16.7180 O.2   403  CYS403     -0.2867
    138  CB       -56.7060   28.4880   13.9170 C.3   403  CYS403      0.0956
    139  SG       -55.3170   29.6010   13.6450 S.3   403  CYS403     -0.0801
    140  N        -57.8940   28.1170   -2.1260 N.3   444  VAL444     -0.1245
    141  CA       -57.6080   27.8010   -0.7510 C.3   444  VAL444      0.1561
    142  C        -57.8830   29.0760    0.0320 C.2   444  VAL444      0.2260
    143  O        -58.6260   29.0820    1.0030 O.2   444  VAL444     -0.2867
    144  CB       -56.1550   27.2800   -0.5350 C.3   444  VAL444      0.0252
    145  CG1      -55.7370   27.4150    0.9240 C.3   444  VAL444      0.0019
    146  CG2      -56.0360   25.8290   -0.9750 C.3   444  VAL444      0.0019
@<TRIPOS>BOND
     1    57    58    1
     2    60    59    2
     3    59    58    1
     4    58    61    1
     5    61    62    1
     6    61    63    1
     7    62    64    1
     8    49    48    2
     9     9    10    1
    10    48    47    1
    11   140   141    1
    12    46    47    1
    13     3     4    2
    14     3     2    1
    15    10    11    1
    16    10    13    1
    17    65    66    1
    18    47    50    1
    19   146   144    1
    20    11    12    2
    21     7     5    1
    22   141   144    1
    23   141   142    1
    24    14    13    1
    25   144   145    1
    26     2     5    1
    27     2     1    1
    28    71    70    1
    29    13    15    1
    30    70    69    1
    31    70    72    1
    32    66    69    1
    33    66    67    1
    34    50    51    1
    35   142   143    2
    36     5     6    1
    37    67    68    2
    38    51    52   ar
    39    51    53   ar
    40    52    54   ar
    41     6     8    1
    42    53    55   ar
    43    54    56   ar
    44    16    17    1
    45    55    56   ar
    46   110   109   ar
    47    97    95   ar
    48    97    96   ar
    49    95    93   ar
    50    23    25   ar
    51    23    21   ar
    52    17    18    1
    53    17    20    1
    54   109   111   ar
    55   109   108    1
    56    25    26   ar
    57    18    19    2
    58    20    21    1
    59    96    94   ar
    60    93    92   ar
    61    21    22   ar
    62   108   107    1
    63   121   120    1
    64   121   122    2
    65    45    43   ar
    66    45    44   ar
    67   120   119    1
    68   120   123    1
    69    43    41   ar
    70   126   124    1
    71    26    24   ar
    72    44    42   ar
    73    79    78    1
    74    94    92   ar
    75    92    91    1
    76    22    24   ar
    77    41    40   ar
    78    80    78    1
    79   107   104    1
    80    42    40   ar
    81   123   124    1
    82   129   128    1
    83   129   130    2
    84    40    39    1
    85   128   127    1
    86   128   131    1
    87   124   125    1
    88    78    77    1
    89   132   131    1
    90   106   105    2
    91   104   105    1
    92   104   103    1
    93    39    36    1
    94    91    88    1
    95   131   133    1
    96   105   112   am
    97   118   116    1
    98    77    74    1
    99    88    89    1
   100    88    87    1
   101   112   113    1
   102    90    89    2
   103    38    37    2
   104   113   116    1
   105   113   114    1
   106    36    37    1
   107    36    35    1
   108    89    98   am
   109   116   117    1
   110    33    31    1
   111   115   114    2
   112    76    75    2
   113    74    75    1
   114    74    73    1
   115    75    81   am
   116    86    85    1
   117    98    99    1
   118    35    29   am
   119    81    82    1
   120    82    85    1
   121    82    83    1
   122    99   102    1
   123    99   100    1
   124    34    32    1
   125    31    32    1
   126    31    28    1
   127    30    29    2
   128    29    28    1
   129    84    83    2
   130   101   100    2
   131    28    27    1
   132   139   138    1
   133   138   135    1
   134   135   134    1
   135   135   136    1
   136   136   137    2
