@<TRIPOS>MOLECULE
tmp/3qu8D01.pdb
 130 121 0 0 0
SMALL
GASTEIGER

@<TRIPOS>ATOM
      1  N         48.7580  -11.2520    1.6480 N.3    74  ILE74      -0.1245
      2  CA        47.7620  -11.8220    0.8030 C.3    74  ILE74       0.1561
      3  C         47.1120  -10.6980   -0.0720 C.2    74  ILE74       0.2260
      4  O         46.2780   -9.8660    0.3960 O.2    74  ILE74      -0.2867
      5  CB        46.7460  -12.6190    1.6210 C.3    74  ILE74       0.0252
      6  CG1       47.4220  -13.8640    2.1780 C.3    74  ILE74       0.0019
      7  CG2       45.5420  -12.9570    0.8160 C.3    74  ILE74       0.0019
      8  CD1       46.6560  -14.6020    3.3230 C.3    74  ILE74       0.0001
      9  N         43.7730   -9.0540    0.3470 N.3    77  VAL77      -0.1245
     10  CA        43.3910   -8.3490    1.5990 C.3    77  VAL77       0.1561
     11  C         44.3800   -7.2650    1.9840 C.2    77  VAL77       0.2260
     12  O         44.1030   -6.4230    2.8070 O.2    77  VAL77      -0.2867
     13  CB        43.1790   -9.2960    2.8250 C.3    77  VAL77       0.0252
     14  CG1       42.0100  -10.2320    2.6040 C.3    77  VAL77       0.0019
     15  CG2       44.4660  -10.0220    3.1760 C.3    77  VAL77       0.0019
     16  N         44.5410   -4.3720    5.0700 N.3    81  PHE81      -0.1241
     17  CA        45.3840   -4.4920    6.2640 C.3    81  PHE81       0.1605
     18  C         46.6150   -3.6330    6.2090 C.2    81  PHE81       0.2264
     19  O         46.9240   -2.9310    7.1570 O.2    81  PHE81      -0.2867
     20  CB        45.7800   -5.9420    6.5230 C.3    81  PHE81       0.0534
     21  CG        44.6580   -6.7840    6.9880 C.ar   81  PHE81      -0.0203
     22  CD1       44.2600   -6.7320    8.3220 C.ar   81  PHE81      -0.0042
     23  CD2       43.9980   -7.6440    6.1150 C.ar   81  PHE81      -0.0042
     24  CE1       43.2140   -7.5280    8.7970 C.ar   81  PHE81      -0.0003
     25  CE2       42.9590   -8.4370    6.5650 C.ar   81  PHE81      -0.0003
     26  CZ        42.5590   -8.3620    7.9270 C.ar   81  PHE81      -0.0000
     27  N         48.3250  -10.8240   12.5270 N.3    87  ILE87      -0.1231
     28  CA        48.4650  -11.7820   11.4330 C.3    87  ILE87       0.1692
     29  C         49.3440  -11.2360   10.3270 C.2    87  ILE87       0.2592
     30  O         50.2050  -11.9610    9.8050 O.2    87  ILE87      -0.2718
     31  CB        47.1170  -12.1250   10.7890 C.3    87  ILE87       0.0266
     32  CG1       46.2180  -12.8450   11.7670 C.3    87  ILE87       0.0019
     33  CG2       47.3230  -13.0180    9.5880 C.3    87  ILE87       0.0020
     34  CD1       44.9870  -13.3680   11.1530 C.3    87  ILE87       0.0001
     35  N         49.1370   -9.9630    9.9840 N.am   88  PHE88      -0.1976
     36  CA        49.8450   -9.3580    8.8680 C.3    88  PHE88       0.1639
     37  C         50.9750   -8.4400    9.2230 C.2    88  PHE88       0.2290
     38  O         51.5090   -7.8320    8.3460 O.2    88  PHE88      -0.2864
     39  CB        48.8650   -8.6830    7.9280 C.3    88  PHE88       0.0560
     40  CG        48.0220   -9.6430    7.2180 C.ar   88  PHE88      -0.0200
     41  CD1       48.5900  -10.5600    6.3420 C.ar   88  PHE88      -0.0042
     42  CD2       46.6550   -9.6850    7.4410 C.ar   88  PHE88      -0.0042
     43  CE1       47.8340  -11.4750    5.6940 C.ar   88  PHE88      -0.0003
     44  CE2       45.8650  -10.6220    6.7870 C.ar   88  PHE88      -0.0003
     45  CZ        46.4640  -11.5300    5.9170 C.ar   88  PHE88      -0.0000
     46  N         36.0300  -15.1620    2.8530 N.3   173  PHE173     -0.1241
     47  CA        37.0090  -16.2230    2.7970 C.3   173  PHE173      0.1605
     48  C         36.9490  -16.9990    1.4830 C.2   173  PHE173      0.2264
     49  O         37.9610  -17.4550    0.9980 O.2   173  PHE173     -0.2867
     50  CB        36.8270  -17.1550    3.9640 C.3   173  PHE173      0.0534
     51  CG        37.9810  -18.0450    4.1700 C.ar  173  PHE173     -0.0203
     52  CD1       37.8110  -19.4270    4.1870 C.ar  173  PHE173     -0.0042
     53  CD2       39.2520  -17.5060    4.3190 C.ar  173  PHE173     -0.0042
     54  CE1       38.9180  -20.2780    4.3770 C.ar  173  PHE173     -0.0003
     55  CE2       40.3400  -18.3190    4.4850 C.ar  173  PHE173     -0.0003
     56  CZ        40.1870  -19.7270    4.5180 C.ar  173  PHE173     -0.0000
     57  N         38.3650  -14.7510   -1.3210 N.3   176  ILE176     -0.1245
     58  CA        39.8140  -14.8330   -1.2420 C.3   176  ILE176      0.1561
     59  C         40.3280  -16.1020   -1.8770 C.2   176  ILE176      0.2260
     60  O         41.4310  -16.0920   -2.4060 O.2   176  ILE176     -0.2867
     61  CB        40.3140  -14.7650    0.1860 C.3   176  ILE176      0.0252
     62  CG1       40.0720  -13.3840    0.7750 C.3   176  ILE176      0.0019
     63  CG2       41.7960  -15.0710    0.2430 C.3   176  ILE176      0.0019
     64  CD1       40.3440  -13.3010    2.2870 C.3   176  ILE176      0.0001
     65  N         41.3130   -9.3270   12.8790 N.3   261  SER261     -0.1217
     66  CA        42.0950  -10.5680   12.6420 C.3   261  SER261      0.1889
     67  C         41.7620  -11.7160   13.5920 C.2   261  SER261      0.2288
     68  O         41.5500  -12.8400   13.1070 O.2   261  SER261     -0.2866
     69  CB        43.5930  -10.3460   12.6790 C.3   261  SER261      0.2089
     70  OG        43.9410   -9.3000   11.8200 O.3   261  SER261     -0.2183
     71  N         37.9910  -12.8850   12.9910 N.3   264  PHE264     -0.1227
     72  CA        37.9450  -13.6270   11.7490 C.3   264  PHE264      0.1736
     73  C         38.6020  -14.9880   11.8350 C.2   264  PHE264      0.2595
     74  O         38.0100  -15.9990   11.5940 O.2   264  PHE264     -0.2718
     75  CB        38.6770  -12.7960   10.7090 C.3   264  PHE264      0.0547
     76  CG        38.3510  -13.1220    9.2910 C.ar  264  PHE264     -0.0202
     77  CD1       38.3060  -14.3950    8.8460 C.ar  264  PHE264     -0.0042
     78  CD2       38.1330  -12.1320    8.3870 C.ar  264  PHE264     -0.0042
     79  CE1       38.0230  -14.6750    7.5370 C.ar  264  PHE264     -0.0003
     80  CE2       37.8610  -12.4200    7.0700 C.ar  264  PHE264     -0.0003
     81  CZ        37.8070  -13.6820    6.6580 C.ar  264  PHE264     -0.0000
     82  N         39.8650  -15.0150   12.1440 N.am  265  ALA265     -0.1980
     83  CA        40.5760  -16.2770   12.1940 C.3   265  ALA265      0.1597
     84  C         39.9530  -17.2700   13.2310 C.2   265  ALA265      0.2287
     85  O         39.7860  -18.4650   12.9750 O.2   265  ALA265     -0.2864
     86  CB        42.0860  -15.9950   12.4660 C.3   265  ALA265      0.0319
     87  N         36.6230  -18.5400   11.4900 N.3   268  GLU268     -0.1231
     88  CA        36.5700  -19.2840   10.2240 C.3   268  GLU268      0.1699
     89  C         37.0750  -20.7240   10.2220 C.2   268  GLU268      0.2592
     90  O         36.2970  -21.6100    9.9120 O.2   268  GLU268     -0.2718
     91  CB        37.2210  -18.5040    9.0750 C.3   268  GLU268      0.0402
     92  CG        36.8340  -19.0240    7.6530 C.3   268  GLU268      0.1161
     93  CD        35.3290  -18.9560    7.3710 C.2   268  GLU268      0.3649
     94  OE1       34.8550  -19.6910    6.4800 O.co2 268  GLU268     -0.2457
     95  OE2       34.6060  -18.1830    8.0440 O.co2 268  GLU268     -0.2457
     96  N         38.3430  -20.9770   10.5080 N.am  269  THR269     -0.1953
     97  CA        38.8050  -22.3360   10.2990 C.3   269  THR269      0.1897
     98  C         38.1770  -23.4110   11.1890 C.2   269  THR269      0.2313
     99  O         37.7850  -24.4760   10.7120 O.2   269  THR269     -0.2863
    100  CB        40.3160  -22.4740   10.3500 C.3   269  THR269      0.1794
    101  OG1       40.8150  -21.7040   11.4280 O.3   269  THR269     -0.2208
    102  CG2       40.9190  -22.0150    9.0460 C.3   269  THR269      0.0378
    103  N         44.2820  -24.8570    5.1330 N.3   330  LEU330     -0.1245
    104  CA        45.1520  -23.8220    4.6510 C.3   330  LEU330      0.1561
    105  C         46.3210  -24.4980    3.9600 C.2   330  LEU330      0.2260
    106  O         47.3960  -24.6440    4.5380 O.2   330  LEU330     -0.2867
    107  CB        45.6190  -22.9090    5.7690 C.3   330  LEU330      0.0270
    108  CG        44.5540  -22.0790    6.5080 C.3   330  LEU330      0.0019
    109  CD1       45.1630  -21.2370    7.6400 C.3   330  LEU330      0.0001
    110  CD2       43.7560  -21.1890    5.5670 C.3   330  LEU330      0.0001
    111  N         50.0100  -19.3810    5.5340 N.3   334  VAL334     -0.1245
    112  CA        49.8830  -17.9460    5.2910 C.3   334  VAL334      0.1561
    113  C         51.2840  -17.4850    4.8970 C.2   334  VAL334      0.2260
    114  O         52.3010  -17.9070    5.4940 O.2   334  VAL334     -0.2867
    115  CB        49.3560  -17.2370    6.5810 C.3   334  VAL334      0.0252
    116  CG1       49.3770  -15.7340    6.5010 C.3   334  VAL334      0.0019
    117  CG2       47.9800  -17.6700    6.8640 C.3   334  VAL334      0.0019
    118  N         50.2770  -20.8970   14.5730 N.3   403  CYS403     -0.1235
    119  CA        48.9370  -20.4230   14.8940 C.3   403  CYS403      0.1677
    120  C         48.7730  -20.2500   16.4010 C.2   403  CYS403      0.2270
    121  O         48.7990  -21.2210   17.1560 O.2   403  CYS403     -0.2867
    122  CB        47.8820  -21.3910   14.3570 C.3   403  CYS403      0.0956
    123  SG        46.2000  -21.0550   14.9280 S.3   403  CYS403     -0.0801
    124  N         43.7800  -19.9670   -0.9840 N.3   444  VAL444     -0.1245
    125  CA        44.2860  -19.7630    0.3600 C.3   444  VAL444      0.1561
    126  C         43.5450  -20.7360    1.3050 C.2   444  VAL444      0.2260
    127  O         44.1780  -21.4640    2.0750 O.2   444  VAL444     -0.2867
    128  CB        44.1050  -18.3020    0.8200 C.3   444  VAL444      0.0252
    129  CG1       44.2130  -18.2080    2.3130 C.3   444  VAL444      0.0019
    130  CG2       45.1200  -17.4410    0.1780 C.3   444  VAL444      0.0019
@<TRIPOS>BOND
     1    60    59    2
     2    59    58    1
     3    57    58    1
     4    58    61    1
     5   124   125    1
     6     3     4    2
     7     3     2    1
     8   130   128    1
     9    61    63    1
    10    61    62    1
    11     9    10    1
    12   125   128    1
    13   125   126    1
    14    62    64    1
    15     2     5    1
    16     2     1    1
    17     7     5    1
    18   128   129    1
    19    49    48    2
    20   126   127    2
    21    48    47    1
    22    10    11    1
    23    10    13    1
    24     5     6    1
    25    11    12    2
    26     6     8    1
    27    14    13    1
    28    47    46    1
    29    47    50    1
    30    13    15    1
    31   105   106    2
    32   105   104    1
    33    50    51    1
    34    51    52   ar
    35    51    53   ar
    36    52    54   ar
    37    53    55   ar
    38    54    56   ar
    39    55    56   ar
    40   104   103    1
    41   104   107    1
    42   113   112    1
    43   113   114    2
    44    16    17    1
    45   112   111    1
    46   112   115    1
    47   110   108    1
    48    43    45   ar
    49    43    41   ar
    50   107   108    1
    51    45    44   ar
    52    23    25   ar
    53    23    21   ar
    54    18    17    1
    55    18    19    2
    56    17    20    1
    57    41    40   ar
    58    94    93   ar
    59   116   115    1
    60   108   109    1
    61    20    21    1
    62    25    26   ar
    63   115   117    1
    64    81    80   ar
    65    81    79   ar
    66    44    42   ar
    67    21    22   ar
    68    80    78   ar
    69    40    42   ar
    70    40    39    1
    71    93    92    1
    72    93    95   ar
    73    79    77   ar
    74    92    91    1
    75    26    24   ar
    76    39    36    1
    77    22    24   ar
    78    38    37    2
    79    78    76   ar
    80    77    76   ar
    81    36    37    1
    82    36    35    1
    83   102   100    1
    84    91    88    1
    85    76    75    1
    86    33    31    1
    87    30    29    2
    88    90    89    2
    89    35    29   am
    90    89    88    1
    91    89    96   am
    92    88    87    1
    93    97   100    1
    94    97    96    1
    95    97    98    1
    96    29    28    1
    97   100   101    1
    98    75    72    1
    99    99    98    2
   100    31    28    1
   101    31    32    1
   102    34    32    1
   103    28    27    1
   104    74    73    2
   105    72    73    1
   106    72    71    1
   107    70    69    1
   108    73    82   am
   109    82    83    1
   110    83    86    1
   111    83    84    1
   112    66    69    1
   113    66    65    1
   114    66    67    1
   115    85    84    2
   116    68    67    2
   117   122   119    1
   118   122   123    1
   119   118   119    1
   120   119   120    1
   121   120   121    2
