@<TRIPOS>MOLECULE
tmp/3qudA01.pdb
 194 183 0 0 0
SMALL
GASTEIGER

@<TRIPOS>ATOM
      1  N         -7.9050   -1.4160  -28.3490 N.3    27  VAL27      -0.1245
      2  CA        -6.5400   -1.0830  -28.7510 C.3    27  VAL27       0.1561
      3  C         -5.6640   -2.3170  -28.6700 C.2    27  VAL27       0.2260
      4  O         -4.5640   -2.3360  -29.2120 O.2    27  VAL27      -0.2867
      5  CB        -5.9250    0.0500  -27.8940 C.3    27  VAL27       0.0252
      6  CG1       -6.5680    1.3860  -28.2330 C.3    27  VAL27       0.0019
      7  CG2       -6.0540   -0.2640  -26.3950 C.3    27  VAL27       0.0019
      8  N         -8.0240   -4.4220  -23.6800 N.3    35  VAL35      -0.1245
      9  CA        -7.9550   -2.9920  -23.4080 C.3    35  VAL35       0.1561
     10  C         -8.6860   -2.2130  -24.4940 C.2    35  VAL35       0.2260
     11  O         -8.5600   -2.5190  -25.6850 O.2    35  VAL35      -0.2867
     12  CB        -6.4690   -2.4950  -23.2520 C.3    35  VAL35       0.0252
     13  CG1       -6.4150   -1.0150  -22.8990 C.3    35  VAL35       0.0019
     14  CG2       -5.7400   -3.3010  -22.1480 C.3    35  VAL35       0.0019
     15  N         -7.5510    4.4740  -20.8270 N.3    48  ALA48      -0.1245
     16  CA        -7.4590    3.0900  -21.2250 C.3    48  ALA48       0.1562
     17  C         -8.2880    2.2580  -20.2230 C.2    48  ALA48       0.2260
     18  O         -8.1030    2.3810  -19.0090 O.2    48  ALA48      -0.2867
     19  CB        -6.0060    2.6370  -21.2290 C.3    48  ALA48       0.0290
     20  N         -9.2240   -1.5160  -19.0660 N.3    50  LYS50      -0.1245
     21  CA        -8.8580   -2.9280  -19.1710 C.3    50  LYS50       0.1561
     22  C         -9.9210   -3.8160  -18.5060 C.2    50  LYS50       0.2260
     23  O        -10.1830   -3.6710  -17.3230 O.2    50  LYS50      -0.2867
     24  CB        -7.4930   -3.1750  -18.4930 C.3    50  LYS50       0.0271
     25  CG        -6.8810   -4.5280  -18.7880 C.3    50  LYS50       0.0035
     26  CD        -5.5050   -4.6460  -18.1430 C.3    50  LYS50       0.0206
     27  CE        -4.8630   -5.9460  -18.4750 C.3    50  LYS50       0.1093
     28  NZ        -3.3970   -5.9100  -18.1010 N.3    50  LYS50      -0.1314
     29  N         -2.7840   -7.6930   -8.7890 N.3    68  GLU68      -0.1245
     30  CA        -2.7770   -6.5590   -9.7420 C.3    68  GLU68       0.1567
     31  C         -3.5320   -5.3370   -9.1690 C.2    68  GLU68       0.2260
     32  O         -3.0080   -4.2270   -9.1950 O.2    68  GLU68      -0.2867
     33  CB        -3.2920   -6.9530  -11.1450 C.3    68  GLU68       0.0388
     34  CG        -3.2160   -5.7590  -12.1700 C.3    68  GLU68       0.1160
     35  CD        -3.6910   -6.0830  -13.6020 C.2    68  GLU68       0.3649
     36  OE1       -3.2120   -5.4190  -14.5850 O.co2  68  GLU68      -0.2457
     37  OE2       -4.5490   -6.9970  -13.7450 O.co2  68  GLU68      -0.2457
     38  N         -1.8220   -1.7990   -8.3160 N.3    72  LEU72      -0.1245
     39  CA        -2.1970   -0.6070   -9.0720 C.3    72  LEU72       0.1561
     40  C         -2.7850    0.4850   -8.1860 C.2    72  LEU72       0.2260
     41  O         -2.6530    1.6650   -8.5120 O.2    72  LEU72      -0.2867
     42  CB        -3.1210   -0.9560  -10.2310 C.3    72  LEU72       0.0270
     43  CG        -2.4340   -1.8310  -11.3040 C.3    72  LEU72       0.0019
     44  CD1       -3.4210   -2.1150  -12.3980 C.3    72  LEU72       0.0001
     45  CD2       -1.1850   -1.1600  -11.8880 C.3    72  LEU72       0.0001
     46  N          2.2550    3.4670  -14.2000 N.3    81  ILE81      -0.1245
     47  CA         0.8000    3.3410  -14.3720 C.3    81  ILE81       0.1561
     48  C          0.0370    3.5980  -13.0710 C.2    81  ILE81       0.2260
     49  O          0.3580    3.0150  -12.0360 O.2    81  ILE81      -0.2867
     50  CB         0.3990    1.9730  -14.9890 C.3    81  ILE81       0.0252
     51  CG1       -1.1280    1.8740  -15.1110 C.3    81  ILE81       0.0019
     52  CG2        0.9520    0.7910  -14.1620 C.3    81  ILE81       0.0019
     53  CD1       -1.5840    0.5990  -15.7890 C.3    81  ILE81       0.0001
     54  N         -4.0340    4.3080  -11.1830 N.3    83  LEU83      -0.1245
     55  CA        -5.4520    3.9650  -11.3230 C.3    83  LEU83       0.1561
     56  C         -6.3440    5.1830  -11.2030 C.2    83  LEU83       0.2260
     57  O         -6.3940    5.7870  -10.1330 O.2    83  LEU83      -0.2867
     58  CB        -5.8950    2.9690  -10.2550 C.3    83  LEU83       0.0270
     59  CG        -5.8930    1.4760  -10.5440 C.3    83  LEU83       0.0019
     60  CD1       -6.6540    0.8020   -9.4210 C.3    83  LEU83       0.0001
     61  CD2       -6.4780    1.1270  -11.8910 C.3    83  LEU83       0.0001
     62  N        -10.3770   -1.9840  -14.9670 N.3   101  LEU101     -0.1231
     63  CA        -9.4220   -1.0260  -14.4300 C.3   101  LEU101      0.1693
     64  C         -9.2570    0.1440  -15.3930 C.2   101  LEU101      0.2592
     65  O         -9.2880   -0.0530  -16.6050 O.2   101  LEU101     -0.2718
     66  CB        -8.0810   -1.7180  -14.2400 C.3   101  LEU101      0.0284
     67  CG        -8.0550   -2.9830  -13.3770 C.3   101  LEU101      0.0019
     68  CD1       -6.7730   -3.7410  -13.6410 C.3   101  LEU101      0.0001
     69  CD2       -8.1310   -2.6290  -11.9420 C.3   101  LEU101      0.0001
     70  N         -9.0930    1.3610  -14.8630 N.am  102  VAL102     -0.1966
     71  CA        -8.9670    2.5350  -15.7450 C.3   102  VAL102      0.1727
     72  C         -7.6790    3.3460  -15.5010 C.2   102  VAL102      0.2617
     73  O         -7.3660    3.7010  -14.3540 O.2   102  VAL102     -0.2715
     74  CB       -10.2170    3.4930  -15.5980 C.3   102  VAL102      0.0290
     75  CG1      -10.2320    4.5550  -16.7300 C.3   102  VAL102      0.0023
     76  CG2      -11.5300    2.6920  -15.6370 C.3   102  VAL102      0.0023
     77  N         -6.9710    3.6920  -16.5740 N.am  103  THR103     -0.1937
     78  CA        -5.7720    4.5520  -16.4570 C.3   103  THR103      0.2028
     79  C         -5.7420    5.5940  -17.5900 C.2   103  THR103      0.2642
     80  O         -6.4980    5.4650  -18.5470 O.2   103  THR103     -0.2714
     81  CB        -4.4860    3.6940  -16.4580 C.3   103  THR103      0.1808
     82  OG1       -3.3720    4.4940  -16.0340 O.3   103  THR103     -0.2208
     83  CG2       -4.2050    3.0940  -17.8650 C.3   103  THR103      0.0379
     84  N         -4.8850    6.6190  -17.4780 N.am  104  HIS104     -0.1959
     85  CA        -4.7140    7.6330  -18.5250 C.3   104  HIS104      0.1787
     86  C         -4.3190    6.9440  -19.8330 C.2   104  HIS104      0.2620
     87  O         -3.4260    6.0860  -19.8350 O.2   104  HIS104     -0.2715
     88  CB        -3.5790    8.5980  -18.1580 C.3   104  HIS104      0.0785
     89  CG        -3.8880    9.5490  -17.0410 C.ar  104  HIS104      0.0821
     90  ND1       -3.4350    9.3560  -15.7540 N.ar  104  HIS104     -0.2267
     91  CD2       -4.5320   10.7400  -17.0350 C.ar  104  HIS104      0.1154
     92  CE1       -3.8140   10.3710  -14.9960 C.ar  104  HIS104      0.1986
     93  NE2       -4.4870   11.2210  -15.7480 N.ar  104  HIS104     -0.2212
     94  N         -4.9470    7.2980  -20.9430 N.am  105  LEU105     -0.1963
     95  CA        -4.5530    6.6910  -22.2190 C.3   105  LEU105      0.1728
     96  C         -3.2410    7.3110  -22.6800 C.2   105  LEU105      0.2616
     97  O         -3.0980    8.5360  -22.7320 O.2   105  LEU105     -0.2715
     98  CB        -5.6230    6.8650  -23.3010 C.3   105  LEU105      0.0311
     99  CG        -5.3810    6.1980  -24.6650 C.3   105  LEU105      0.0022
    100  CD1       -5.6620    4.6970  -24.6110 C.3   105  LEU105      0.0001
    101  CD2       -6.2400    6.8440  -25.7470 C.3   105  LEU105      0.0001
    102  N         -2.2830    6.4530  -23.0000 N.am  106  MET106     -0.1963
    103  CA        -1.0060    6.9150  -23.4700 C.3   106  MET106      0.1736
    104  C         -1.0070    6.9110  -25.0000 C.2   106  MET106      0.2617
    105  O         -0.6810    7.9220  -25.6140 O.2   106  MET106     -0.2715
    106  CB         0.0940    6.0370  -22.8810 C.3   106  MET106      0.0427
    107  CG         1.1530    6.7840  -22.1460 C.3   106  MET106      0.0599
    108  SD         0.6720    7.9460  -20.8610 S.3   106  MET106     -0.1393
    109  CE         2.1350    8.9670  -20.8510 C.3   106  MET106      0.0692
    110  N         -1.3940    5.7960  -25.6180 N.am  107  GLY107     -0.1940
    111  CA        -1.5670    5.7750  -27.0590 C.3   107  GLY107      0.2014
    112  C         -0.5360    5.0270  -27.8750 C.2   107  GLY107      0.2639
    113  O         -0.7760    4.7410  -29.0520 O.2   107  GLY107     -0.2714
    114  N          0.6020    4.7130  -27.2540 N.am  108  ALA108     -0.1963
    115  CA         1.6740    3.9650  -27.9010 C.3   108  ALA108      0.1728
    116  C          2.6060    3.3190  -26.8630 C.2   108  ALA108      0.2616
    117  O          2.5830    3.6740  -25.6840 O.2   108  ALA108     -0.2715
    118  CB         2.4630    4.8620  -28.8280 C.3   108  ALA108      0.0334
    119  N          3.4360    2.3940  -27.3230 N.am  109  ASP109     -0.1971
    120  CA         4.4820    1.8000  -26.4970 C.3   109  ASP109      0.1709
    121  C          5.7950    1.7670  -27.2780 C.2   109  ASP109      0.2293
    122  O          5.8340    2.1840  -28.4400 O.2   109  ASP109     -0.2864
    123  CB         4.0640    0.4100  -26.0010 C.3   109  ASP109      0.1436
    124  CG         3.7750   -0.5570  -27.1300 C.2   109  ASP109      0.3671
    125  OD1        2.7390   -1.2550  -27.0750 O.co2 109  ASP109     -0.2456
    126  OD2        4.5870   -0.6370  -28.0690 O.co2 109  ASP109     -0.2456
    127  N          6.3190    0.0190  -30.7170 N.3   112  ASN112     -0.1240
    128  CA         5.9550    0.8830  -31.8410 C.3   112  ASN112      0.1653
    129  C          7.0450    1.8900  -32.1750 C.2   112  ASN112      0.2266
    130  O          7.6250    1.8230  -33.2580 O.2   112  ASN112     -0.2867
    131  CB         4.6620    1.6740  -31.5550 C.3   112  ASN112      0.1155
    132  CG         3.4990    0.7970  -31.0730 C.2   112  ASN112      0.2627
    133  OD1        2.6150    1.2780  -30.3510 O.2   112  ASN112     -0.2716
    134  ND2        3.4900   -0.4820  -31.4750 N.am  112  ASN112     -0.0877
    135  N          7.1370   -3.2740  -24.8190 N.3   151  SER151     -0.1217
    136  CA         5.6950   -3.1930  -24.6810 C.3   151  SER151      0.1889
    137  C          5.1990   -2.7580  -23.2940 C.2   151  SER151      0.2288
    138  O          4.0890   -2.2620  -23.1960 O.2   151  SER151     -0.2866
    139  CB         4.9940   -4.4750  -25.1530 C.3   151  SER151      0.2089
    140  OG         5.0790   -5.4880  -24.1730 O.3   151  SER151     -0.2183
    141  N          4.8190    2.5560  -22.0280 N.3   154  ALA154     -0.1245
    142  CA         3.7830    3.2950  -22.7480 C.3   154  ALA154      0.1562
    143  C          4.2690    4.7100  -22.9340 C.2   154  ALA154      0.2260
    144  O          4.8590    5.2800  -22.0120 O.2   154  ALA154     -0.2867
    145  CB         2.5070    3.2740  -21.9460 C.3   154  ALA154      0.0290
    146  N          4.1630    0.2130  -17.4450 N.3   164  LEU164     -0.1231
    147  CA         2.9490   -0.5780  -17.2310 C.3   164  LEU164      0.1693
    148  C          3.3180   -1.8780  -16.4910 C.2   164  LEU164      0.2592
    149  O          4.4380   -2.4110  -16.6380 O.2   164  LEU164     -0.2718
    150  CB         2.2950   -0.9190  -18.5800 C.3   164  LEU164      0.0284
    151  CG         1.9370    0.2230  -19.5490 C.3   164  LEU164      0.0019
    152  CD1        1.2620   -0.3150  -20.7910 C.3   164  LEU164      0.0001
    153  CD2        1.0130    1.1980  -18.8580 C.3   164  LEU164      0.0001
    154  N          2.3670   -2.4310  -15.7520 N.am  165  ASP165     -0.1960
    155  CA         2.5720   -3.7830  -15.2270 C.3   165  ASP165      0.1840
    156  C          2.5650   -4.8340  -16.3610 C.2   165  ASP165      0.2622
    157  O          3.4520   -5.7050  -16.4290 O.2   165  ASP165     -0.2715
    158  CB         1.5800   -4.1070  -14.1030 C.3   165  ASP165      0.1450
    159  CG         0.0980   -3.9730  -14.5170 C.2   165  ASP165      0.3671
    160  OD1       -0.2670   -3.3180  -15.5270 O.co2 165  ASP165     -0.2456
    161  OD2       -0.7220   -4.5530  -13.7960 O.co2 165  ASP165     -0.2456
    162  N          1.5690   -4.7300  -17.2330 N.am  166  PHE166     -0.1960
    163  CA         1.4170   -5.5810  -18.4150 C.3   166  PHE166      0.1771
    164  C          1.0170   -4.6940  -19.5900 C.2   166  PHE166      0.2620
    165  O          0.0960   -3.9090  -19.4780 O.2   166  PHE166     -0.2715
    166  CB         0.3440   -6.6350  -18.1760 C.3   166  PHE166      0.0574
    167  CG         0.6160   -7.5080  -17.0020 C.ar  166  PHE166     -0.0200
    168  CD1        1.5590   -8.5360  -17.0880 C.ar  166  PHE166     -0.0042
    169  CD2       -0.0490   -7.3040  -15.8170 C.ar  166  PHE166     -0.0042
    170  CE1        1.8170   -9.3540  -15.9880 C.ar  166  PHE166     -0.0003
    171  CE2        0.2040   -8.0930  -14.7160 C.ar  166  PHE166     -0.0003
    172  CZ         1.1390   -9.1350  -14.8000 C.ar  166  PHE166     -0.0000
    173  N          1.7310   -4.8000  -20.6990 N.am  167  GLY167     -0.1940
    174  CA         1.4290   -4.0150  -21.8950 C.3   167  GLY167      0.2014
    175  C          0.5510   -4.8250  -22.8370 C.2   167  GLY167      0.2638
    176  O          0.0210   -5.8640  -22.4530 O.2   167  GLY167     -0.2714
    177  N          0.4210   -4.3630  -24.0710 N.am  168  LEU168     -0.1977
    178  CA        -0.3090   -5.0880  -25.1110 C.3   168  LEU168      0.1596
    179  C          0.5970   -6.0880  -25.8460 C.2   168  LEU168      0.2287
    180  O          1.5990   -5.7060  -26.4550 O.2   168  LEU168     -0.2864
    181  CB        -0.9380   -4.1010  -26.1130 C.3   168  LEU168      0.0297
    182  CG        -1.7650   -2.9330  -25.5630 C.3   168  LEU168      0.0022
    183  CD1       -2.0130   -1.9110  -26.6670 C.3   168  LEU168      0.0001
    184  CD2       -3.0820   -3.4080  -24.9910 C.3   168  LEU168      0.0001
    185  N         -1.7790   -6.0370  -30.6060 N.3   171  HIS171     -0.1241
    186  CA        -2.3120   -4.7290  -30.9480 C.3   171  HIS171      0.1621
    187  C         -3.3480   -4.9180  -32.0330 C.2   171  HIS171      0.2264
    188  O         -3.0490   -5.5200  -33.0700 O.2   171  HIS171     -0.2867
    189  CB        -1.2070   -3.8400  -31.5230 C.3   171  HIS171      0.0745
    190  CG        -0.0830   -3.5730  -30.5760 C.ar  171  HIS171      0.0817
    191  ND1        0.1160   -2.3380  -29.9940 N.ar  171  HIS171     -0.2268
    192  CD2        0.9080   -4.3730  -30.1160 C.ar  171  HIS171      0.1154
    193  CE1        1.1810   -2.3920  -29.2130 C.ar  171  HIS171      0.1986
    194  NE2        1.6820   -3.6140  -29.2710 N.ar  171  HIS171     -0.2212
@<TRIPOS>BOND
     1   130   129    2
     2   188   187    2
     3   129   128    1
     4   187   186    1
     5   128   131    1
     6   128   127    1
     7   131   132    1
     8   189   186    1
     9   189   190    1
    10   134   132   am
    11   132   133    2
    12   186   185    1
    13   190   192   ar
    14   190   191   ar
    15   192   194   ar
    16   191   193   ar
    17   194   193   ar
    18     4     3    2
    19   113   112    2
    20   118   115    1
    21     2     3    1
    22     2     1    1
    23     2     5    1
    24   122   121    2
    25     6     5    1
    26   126   124   ar
    27   115   114    1
    28   115   116    1
    29     5     7    1
    30   112   114   am
    31   112   111    1
    32   119   116   am
    33   119   120    1
    34   121   120    1
    35   124   125   ar
    36   124   123    1
    37   111   110    1
    38   116   117    2
    39   183   182    1
    40   120   123    1
    41   180   179    2
    42   181   182    1
    43   181   178    1
    44   179   178    1
    45   101    99    1
    46    11    10    2
    47   110   104   am
    48   105   104    2
    49   182   184    1
    50   139   136    1
    51   139   140    1
    52   178   177    1
    53   104   103    1
    54   135   136    1
    55   136   137    1
    56    99   100    1
    57    99    98    1
    58    10     9    1
    59   177   175   am
    60     8     9    1
    61   103   102    1
    62   103   106    1
    63     9    12    1
    64    98    95    1
    65   137   138    2
    66    12    13    1
    67    12    14    1
    68   102    96   am
    69   143   142    1
    70   143   144    2
    71   106   107    1
    72   175   176    2
    73   175   174    1
    74   142   141    1
    75   142   145    1
    76    97    96    2
    77    96    95    1
    78    95    94    1
    79   107   108    1
    80   174   173    1
    81    19    16    1
    82    16    15    1
    83    16    17    1
    84    94    86   am
    85   108   109    1
    86   152   151    1
    87   173   164   am
    88    17    18    2
    89    87    86    2
    90    86    85    1
    91   164   165    2
    92   164   163    1
    93   151   153    1
    94   151   150    1
    95    21    20    1
    96    21    22    1
    97    21    24    1
    98    25    24    1
    99    25    26    1
   100   150   147    1
   101    80    79    2
   102    85    88    1
   103    85    84    1
   104    22    23    2
   105    27    26    1
   106    27    28    1
   107   163   166    1
   108   163   162    1
   109   166   167    1
   110    88    89    1
   111    83    81    1
   112    79    84   am
   113    79    78    1
   114   146   147    1
   115   162   156   am
   116   147   148    1
   117   168   167   ar
   118   168   170   ar
   119    89    91   ar
   120    89    90   ar
   121    91    93   ar
   122   167   169   ar
   123    75    74    1
   124   149   148    2
   125    65    64    2
   126    77    78    1
   127    77    72   am
   128   148   154   am
   129    81    78    1
   130    81    82    1
   131   157   156    2
   132   156   155    1
   133   170   172   ar
   134   169   171   ar
   135    53    51    1
   136    90    92   ar
   137   154   155    1
   138    93    92   ar
   139    71    74    1
   140    71    72    1
   141    71    70    1
   142    76    74    1
   143   160   159   ar
   144    72    73    2
   145    64    70   am
   146    64    63    1
   147   155   158    1
   148    51    50    1
   149    50    47    1
   150    50    52    1
   151    62    63    1
   152   172   171   ar
   153    36    35   ar
   154   159   158    1
   155   159   161   ar
   156    63    66    1
   157    47    46    1
   158    47    48    1
   159    66    67    1
   160    37    35   ar
   161    68    67    1
   162    35    34    1
   163    67    69    1
   164    48    49    2
   165    44    43    1
   166    34    33    1
   167    61    59    1
   168    45    43    1
   169    55    56    1
   170    55    54    1
   171    55    58    1
   172    43    42    1
   173    56    57    2
   174    33    30    1
   175    59    58    1
   176    59    60    1
   177    42    39    1
   178    30    31    1
   179    30    29    1
   180    32    31    2
   181    39    38    1
   182    39    40    1
   183    41    40    2
