@<TRIPOS>MOLECULE
tmp/3queA01.pdb
 164 156 0 0 0
SMALL
GASTEIGER

@<TRIPOS>ATOM
      1  N          3.8420  -11.4760   19.4670 N.3    31  TYR31      -0.1241
      2  CA         4.7280  -11.3390   18.2990 C.3    31  TYR31       0.1605
      3  C          5.9590  -10.4410   18.4620 C.2    31  TYR31       0.2264
      4  O          6.7740  -10.3390   17.5320 O.2    31  TYR31      -0.2867
      5  CB         3.9480  -10.9030   17.0570 C.3    31  TYR31       0.0534
      6  CG         2.6120  -11.5700   16.8910 C.ar   31  TYR31      -0.0201
      7  CD1        2.4940  -12.9690   16.8340 C.ar   31  TYR31      -0.0009
      8  CD2        1.4440  -10.8030   16.7980 C.ar   31  TYR31      -0.0009
      9  CE1        1.2230  -13.5890   16.6680 C.ar   31  TYR31       0.0417
     10  CE2        0.1710  -11.4110   16.6550 C.ar   31  TYR31       0.0417
     11  CZ         0.0630  -12.7930   16.5800 C.ar   31  TYR31       0.1957
     12  OH        -1.1900  -13.3670   16.4140 O.3    31  TYR31      -0.2866
     13  N          4.0790  -13.1480    8.5220 N.3    63  ARG63      -0.1245
     14  CA         3.5050  -12.1730    9.4450 C.3    63  ARG63       0.1563
     15  C          4.3870  -10.9110    9.5250 C.2    63  ARG63       0.2260
     16  O          3.8870   -9.7890    9.3880 O.2    63  ARG63      -0.2867
     17  CB         3.3080  -12.7930   10.8290 C.3    63  ARG63       0.0307
     18  CG         2.4850  -11.9330   11.7800 C.3    63  ARG63       0.0489
     19  CD         2.2670  -12.6180   13.1310 C.3    63  ARG63       0.2205
     20  NE         3.4970  -12.7860   13.9330 N.pl3  63  ARG63      -0.0865
     21  CZ         3.9470  -13.9610   14.4050 C.cat  63  ARG63       0.5346
     22  NH1        3.2660  -15.0920   14.1570 N.pl3  63  ARG63       0.1354
     23  NH2        5.0590  -14.0070   15.1430 N.pl3  63  ARG63       0.1354
     24  N          4.0070   -8.9740    6.3540 N.3    66  ARG66      -0.1245
     25  CA         2.6950   -8.3400    6.4880 C.3    66  ARG66       0.1563
     26  C          2.7410   -7.0850    7.3480 C.2    66  ARG66       0.2260
     27  O          2.1980   -6.0580    6.9640 O.2    66  ARG66      -0.2867
     28  CB         1.6760   -9.2910    7.0850 C.3    66  ARG66       0.0307
     29  CG         0.2960   -8.6510    7.2580 C.3    66  ARG66       0.0489
     30  CD        -0.6700   -9.5230    8.0890 C.3    66  ARG66       0.2205
     31  NE        -1.0290  -10.7280    7.3510 N.pl3  66  ARG66      -0.0865
     32  CZ        -0.6110  -11.9530    7.6660 C.cat  66  ARG66       0.5346
     33  NH1        0.1450  -12.1760    8.7330 N.pl3  66  ARG66       0.1354
     34  NH2       -0.9540  -12.9680    6.8980 N.pl3  66  ARG66       0.1354
     35  N          2.3420   -3.3390    6.0920 N.3    70  LEU70      -0.1231
     36  CA         1.1130   -2.7390    6.6120 C.3    70  LEU70       0.1693
     37  C          1.3990   -1.3690    7.2070 C.2    70  LEU70       0.2591
     38  O          0.7660   -0.3720    6.8700 O.2    70  LEU70      -0.2718
     39  CB         0.5540   -3.6370    7.7070 C.3    70  LEU70       0.0284
     40  CG        -0.9320   -3.7870    8.0450 C.3    70  LEU70       0.0019
     41  CD1       -1.9190   -3.7050    6.8440 C.3    70  LEU70       0.0001
     42  CD2       -1.1300   -5.1710    8.7590 C.3    70  LEU70       0.0001
     43  N          2.3610   -1.3300    8.1100 N.am   71  LEU71      -0.1980
     44  CA         2.6590   -0.1270    8.8490 C.3    71  LEU71       0.1596
     45  C          3.3500    0.8980    7.9470 C.2    71  LEU71       0.2287
     46  O          3.3350    2.0850    8.2450 O.2    71  LEU71      -0.2864
     47  CB         3.5560   -0.4780   10.0210 C.3    71  LEU71       0.0297
     48  CG         2.8530   -1.2570   11.1060 C.3    71  LEU71       0.0022
     49  CD1        3.8390   -1.9080   11.9900 C.3    71  LEU71       0.0001
     50  CD2        2.0720   -0.2790   11.8770 C.3    71  LEU71       0.0001
     51  N          0.3350    2.9680    6.2890 N.3    74  MET74      -0.1245
     52  CA        -0.5550    3.7730    7.1000 C.3    74  MET74       0.1570
     53  C          0.0590    5.1420    7.3570 C.2    74  MET74       0.2261
     54  O          1.0860    5.2420    8.0250 O.2    74  MET74      -0.2867
     55  CB        -0.8490    3.0740    8.4220 C.3    74  MET74       0.0387
     56  CG        -1.4420    1.6760    8.3010 C.3    74  MET74       0.0595
     57  SD        -3.1070    1.4900    7.6300 S.3    74  MET74      -0.1393
     58  CE        -2.7620    0.2590    6.3930 C.3    74  MET74       0.0692
     59  N         -4.2300    6.2050   12.9850 N.3    79  VAL79      -0.1231
     60  CA        -3.7370    4.9040   12.6650 C.3    79  VAL79       0.1692
     61  C         -2.2680    4.8970   12.9590 C.2    79  VAL79       0.2591
     62  O         -1.5560    5.7820   12.5270 O.2    79  VAL79      -0.2718
     63  CB        -4.0090    4.5510   11.1960 C.3    79  VAL79       0.0266
     64  CG1       -3.3210    3.2550   10.8570 C.3    79  VAL79       0.0020
     65  CG2       -5.5420    4.4140   10.9400 C.3    79  VAL79       0.0020
     66  N         -1.8010    3.9060   13.7010 N.am   80  ILE80      -0.1980
     67  CA        -0.3860    3.8660   14.0310 C.3    80  ILE80       0.1595
     68  C          0.4290    3.7220   12.7790 C.2    80  ILE80       0.2287
     69  O         -0.0280    3.0970   11.8230 O.2    80  ILE80      -0.2864
     70  CB        -0.0240    2.7710   15.0420 C.3    80  ILE80       0.0276
     71  CG1        1.2840    3.1470   15.7160 C.3    80  ILE80       0.0022
     72  CG2        0.0430    1.3890   14.4020 C.3    80  ILE80       0.0022
     73  CD1        1.6900    2.1830   16.7610 C.3    80  ILE80       0.0001
     74  N         -8.6670    2.9530    7.1430 N.3   137  ILE137     -0.1245
     75  CA        -8.1820    1.5570    6.9800 C.3   137  ILE137      0.1561
     76  C         -9.0130    0.7250    5.9780 C.2   137  ILE137      0.2260
     77  O         -8.4610    0.0110    5.1270 O.2   137  ILE137     -0.2867
     78  CB        -8.1560    0.8430    8.3340 C.3   137  ILE137      0.0252
     79  CG1       -6.8390    1.0900    9.0270 C.3   137  ILE137      0.0019
     80  CG2       -8.3900   -0.6360    8.1980 C.3   137  ILE137      0.0019
     81  CD1       -7.0230    1.0380   10.5460 C.3   137  ILE137      0.0001
     82  N         -8.5880   -3.0630    3.8720 N.3   142  ILE142     -0.1231
     83  CA        -8.1130   -3.8150    5.0120 C.3   142  ILE142      0.1692
     84  C         -9.2670   -3.9010    5.9880 C.2   142  ILE142      0.2592
     85  O        -10.0680   -2.9700    6.0740 O.2   142  ILE142     -0.2718
     86  CB        -6.9470   -3.0830    5.7250 C.3   142  ILE142      0.0266
     87  CG1       -5.7050   -3.0220    4.8500 C.3   142  ILE142      0.0019
     88  CG2       -6.5470   -3.8170    6.9620 C.3   142  ILE142      0.0020
     89  CD1       -4.8580   -1.8120    5.0880 C.3   142  ILE142      0.0001
     90  N         -9.3420   -5.0100    6.7240 N.am  143  ILE143     -0.1966
     91  CA       -10.2990   -5.2010    7.7910 C.3   143  ILE143      0.1727
     92  C         -9.4790   -5.5530    8.9820 C.2   143  ILE143      0.2616
     93  O         -8.6840   -6.4870    8.9250 O.2   143  ILE143     -0.2715
     94  CB       -11.2070   -6.3970    7.5250 C.3   143  ILE143      0.0290
     95  CG1      -12.0740   -6.1150    6.2990 C.3   143  ILE143      0.0022
     96  CG2      -12.0180   -6.7550    8.7770 C.3   143  ILE143      0.0023
     97  CD1      -12.9560   -7.2780    5.8510 C.3   143  ILE143      0.0001
     98  N         -9.6820   -4.8310   10.0810 N.am  144  HIS144     -0.1959
     99  CA        -8.8420   -5.0270   11.2410 C.3   144  HIS144      0.1787
    100  C         -9.0240   -6.4050   11.8160 C.2   144  HIS144      0.2620
    101  O         -8.0580   -7.1060   11.9760 O.2   144  HIS144     -0.2715
    102  CB        -9.1130   -4.0030   12.3100 C.3   144  HIS144      0.0785
    103  CG        -8.0720   -4.0020   13.3630 C.ar  144  HIS144      0.0821
    104  ND1       -8.1360   -4.8210   14.4640 N.ar  144  HIS144     -0.2267
    105  CD2       -6.8950   -3.3400   13.4520 C.ar  144  HIS144      0.1154
    106  CE1       -7.0620   -4.6330   15.2120 C.ar  144  HIS144      0.1986
    107  NE2       -6.2860   -3.7440   14.6160 N.ar  144  HIS144     -0.2212
    108  N        -10.2760   -6.7640   12.1140 N.am  145  ARG145     -0.1963
    109  CA       -10.6910   -8.0720   12.6020 C.3   145  ARG145      0.1729
    110  C        -10.6100   -8.2470   14.1100 C.2   145  ARG145      0.2616
    111  O        -11.3360   -9.0610   14.6740 O.2   145  ARG145     -0.2715
    112  CB        -9.9300   -9.2090   11.9070 C.3   145  ARG145      0.0348
    113  CG       -10.3980   -9.5130   10.4930 C.3   145  ARG145      0.0492
    114  CD        -9.5420  -10.5800    9.7790 C.3   145  ARG145      0.2205
    115  NE        -9.6350  -10.3800    8.3300 N.pl3 145  ARG145     -0.0865
    116  CZ        -8.7570   -9.6840    7.5940 C.cat 145  ARG145      0.5346
    117  NH1       -7.6640   -9.1390    8.1490 N.pl3 145  ARG145      0.1354
    118  NH2       -8.9610   -9.5410    6.2840 N.pl3 145  ARG145      0.1354
    119  N         -9.7230   -7.5190   14.7780 N.am  146  ASP146     -0.1971
    120  CA        -9.5760   -7.7000   16.2260 C.3   146  ASP146      0.1709
    121  C         -9.5700   -6.3930   17.0000 C.2   146  ASP146      0.2293
    122  O         -8.7790   -6.2140   17.9110 O.2   146  ASP146     -0.2864
    123  CB        -8.3270   -8.5280   16.5180 C.3   146  ASP146      0.1436
    124  CG        -8.2830   -9.0790   17.9400 C.2   146  ASP146      0.3671
    125  OD1       -9.3160   -9.5360   18.4800 O.co2 146  ASP146     -0.2456
    126  OD2       -7.1780   -9.0730   18.5280 O.co2 146  ASP146     -0.2456
    127  N         -5.2640    3.5170   16.2900 N.3   162  ILE162     -0.1245
    128  CA        -5.4910    2.0800   16.1220 C.3   162  ILE162      0.1561
    129  C         -4.1620    1.3330   15.9910 C.2   162  ILE162      0.2260
    130  O         -3.3500    1.6020   15.1020 O.2   162  ILE162     -0.2867
    131  CB        -6.4410    1.7770   14.9310 C.3   162  ILE162      0.0252
    132  CG1       -7.8070    2.4050   15.1610 C.3   162  ILE162      0.0019
    133  CG2       -6.6160    0.2790   14.7170 C.3   162  ILE162      0.0019
    134  CD1       -8.4790    2.6950   13.8620 C.3   162  ILE162      0.0001
    135  N         -1.9680   -2.2290   15.3910 N.3   164  ASP164     -0.1225
    136  CA        -2.1030   -3.5370   14.7220 C.3   164  ASP164      0.1805
    137  C         -2.2630   -4.6380   15.7780 C.2   164  ASP164      0.2597
    138  O         -3.2390   -5.3950   15.7620 O.2   164  ASP164     -0.2718
    139  CB        -0.9300   -3.8150   13.7880 C.3   164  ASP164      0.1424
    140  CG         0.4080   -3.4910   14.4150 C.2   164  ASP164      0.3668
    141  OD1        0.4200   -2.7600   15.4320 O.co2 164  ASP164     -0.2456
    142  OD2        1.4590   -3.9580   13.8890 O.co2 164  ASP164     -0.2456
    143  N         -1.3190   -4.6890   16.7120 N.am  165  PHE165     -0.1976
    144  CA        -1.3840   -5.5680   17.8800 C.3   165  PHE165      0.1639
    145  C         -1.0810   -4.7340   19.1230 C.2   165  PHE165      0.2290
    146  O         -0.1390   -3.9370   19.1300 O.2   165  PHE165     -0.2864
    147  CB        -0.3680   -6.7260   17.7760 C.3   165  PHE165      0.0560
    148  CG        -0.4410   -7.4810   16.4800 C.ar  165  PHE165     -0.0200
    149  CD1       -1.2470   -8.6010   16.3610 C.ar  165  PHE165     -0.0042
    150  CD2        0.2710   -7.0460   15.3640 C.ar  165  PHE165     -0.0042
    151  CE1       -1.3560   -9.2830   15.1310 C.ar  165  PHE165     -0.0003
    152  CE2        0.1770   -7.7110   14.1310 C.ar  165  PHE165     -0.0003
    153  CZ        -0.6280   -8.8310   14.0140 C.ar  165  PHE165     -0.0000
    154  N        -15.9160   -9.5470   19.1260 N.3   179  ARG179     -0.1245
    155  CA       -16.0340  -10.1020   17.7760 C.3   179  ARG179      0.1563
    156  C        -17.4660  -10.1090   17.2460 C.2   179  ARG179      0.2260
    157  O        -18.3960  -10.5210   17.9410 O.2   179  ARG179     -0.2867
    158  CB       -15.3740  -11.4810   17.6580 C.3   179  ARG179      0.0307
    159  CG       -13.8620  -11.4030   17.3830 C.3   179  ARG179      0.0489
    160  CD       -13.2290  -12.6900   16.8370 C.3   179  ARG179      0.2205
    161  NE       -12.2110  -12.3750   15.8210 N.pl3 179  ARG179     -0.0865
    162  CZ       -10.9010  -12.6350   15.9090 C.cat 179  ARG179      0.5346
    163  NH1      -10.3980  -13.2550   16.9630 N.pl3 179  ARG179      0.1354
    164  NH2      -10.0760  -12.2730   14.9280 N.pl3 179  ARG179      0.1354
@<TRIPOS>BOND
     1    82    83    1
     2    87    89    1
     3    87    86    1
     4    83    86    1
     5    83    84    1
     6    77    76    2
     7    86    88    1
     8    97    95    1
     9    76    75    1
    10    84    85    2
    11    84    90   am
    12    35    36    1
    13   118   116    1
    14    51    52    1
    15    95    94    1
    16    24    25    1
    17    58    57    1
    18    25    28    1
    19    25    26    1
    20    36    37    1
    21    36    39    1
    22    90    91    1
    23    41    40    1
    24    38    37    2
    25    34    32    1
    26    27    26    2
    27    75    74    1
    28    75    78    1
    29    28    29    1
    30    52    53    1
    31    52    55    1
    32    37    43   am
    33    29    30    1
    34    31    32    2
    35    31    30    1
    36    53    54    2
    37    94    91    1
    38    94    96    1
    39   116   117    1
    40   116   115    2
    41    57    56    1
    42    32    33    1
    43    39    40    1
    44    91    92    1
    45    45    46    2
    46    45    44    1
    47    40    42    1
    48    43    44    1
    49    80    78    1
    50    56    55    1
    51   115   114    1
    52    78    79    1
    53    13    14    1
    54    44    47    1
    55    93    92    2
    56    92    98   am
    57    79    81    1
    58    16    15    2
    59    14    15    1
    60    14    17    1
    61   114   113    1
    62    47    48    1
    63    98    99    1
    64   113   112    1
    65    17    18    1
    66    64    63    1
    67    65    63    1
    68    48    50    1
    69    48    49    1
    70    63    60    1
    71    99   100    1
    72    99   102    1
    73    18    19    1
    74   100   101    2
    75   100   108   am
    76    69    68    2
    77   112   109    1
    78   108   109    1
    79   102   103    1
    80    62    61    2
    81   109   110    1
    82    60    61    1
    83    60    59    1
    84    68    67    1
    85    61    66   am
    86    19    20    1
    87   103   105   ar
    88   103   104   ar
    89   105   107   ar
    90    66    67    1
    91   139   140    1
    92   139   136    1
    93   134   132    1
    94   142   140   ar
    95    20    21    2
    96   153   152   ar
    97   153   151   ar
    98    67    70    1
    99   110   111    2
   100   110   119   am
   101   152   150   ar
   102    22    21    1
   103    72    70    1
   104    21    23    1
   105   140   141   ar
   106   104   106   ar
   107   107   106   ar
   108   133   131    1
   109   136   135    1
   110   136   137    1
   111   119   120    1
   112   164   162    1
   113   131   132    1
   114   131   128    1
   115    70    71    1
   116   130   129    2
   117   151   149   ar
   118   150   148   ar
   119    71    73    1
   120   138   137    2
   121   137   143   am
   122   161   162    2
   123   161   160    1
   124   162   163    1
   125   129   128    1
   126   128   127    1
   127   120   123    1
   128   120   121    1
   129   149   148   ar
   130    12    11    1
   131   148   147    1
   132   123   124    1
   133    11    10   ar
   134    11     9   ar
   135    10     8   ar
   136     9     7   ar
   137   143   144    1
   138     8     6   ar
   139     7     6   ar
   140   160   159    1
   141     6     5    1
   142   121   122    2
   143     5     2    1
   144   156   155    1
   145   156   157    2
   146   159   158    1
   147     4     3    2
   148   158   155    1
   149   147   144    1
   150   155   154    1
   151   144   145    1
   152   124   125   ar
   153   124   126   ar
   154     2     3    1
   155     2     1    1
   156   145   146    2
