@<TRIPOS>MOLECULE
tmp/3queA02.pdb
 198 186 0 0 0
SMALL
GASTEIGER

@<TRIPOS>ATOM
      1  N          8.0440   -1.3340   28.1440 N.3    26  VAL26      -0.1245
      2  CA         6.6270   -1.0660   28.4000 C.3    26  VAL26       0.1561
      3  C          5.7860   -2.3400   28.4390 C.2    26  VAL26       0.2260
      4  O          4.9120   -2.4770   29.2820 O.2    26  VAL26      -0.2867
      5  CB         6.0060    0.0420   27.4720 C.3    26  VAL26       0.0252
      6  CG1        6.5770    1.3910   27.8130 C.3    26  VAL26       0.0019
      7  CG2        6.3140   -0.1840   26.0590 C.3    26  VAL26       0.0019
      8  N          7.9270   -4.3460   23.4560 N.3    34  VAL34      -0.1245
      9  CA         7.9020   -2.8960   23.2230 C.3    34  VAL34       0.1561
     10  C          8.5930   -2.0750   24.3310 C.2    34  VAL34       0.2260
     11  O          8.3120   -2.2460   25.5360 O.2    34  VAL34      -0.2867
     12  CB         6.4490   -2.4160   23.0520 C.3    34  VAL34       0.0252
     13  CG1        6.3930   -0.9260   23.0280 C.3    34  VAL34       0.0019
     14  CG2        5.8590   -2.9680   21.7820 C.3    34  VAL34       0.0019
     15  N          9.8750    2.0310   25.4890 N.3    36  ALA36      -0.1245
     16  CA         9.7820    3.4990   25.3910 C.3    36  ALA36       0.1562
     17  C         11.1980    4.0050   25.2080 C.2    36  ALA36       0.2260
     18  O         12.0930    3.5060   25.8650 O.2    36  ALA36      -0.2867
     19  CB         9.2060    4.0730   26.6680 C.3    36  ALA36       0.0290
     20  N          7.9930    4.7090   20.6980 N.3    47  ALA47      -0.1245
     21  CA         7.8400    3.2980   21.0190 C.3    47  ALA47       0.1562
     22  C          8.6090    2.4210   20.0070 C.2    47  ALA47       0.2260
     23  O          8.3490    2.4280   18.7990 O.2    47  ALA47      -0.2867
     24  CB         6.3840    2.9300   21.0920 C.3    47  ALA47       0.0290
     25  N          9.4100   -1.4450   18.8440 N.3    49  LYS49      -0.1245
     26  CA         8.9360   -2.8170   18.9740 C.3    49  LYS49       0.1561
     27  C          9.9630   -3.7180   18.3580 C.2    49  LYS49       0.2260
     28  O         10.2380   -3.6280   17.1480 O.2    49  LYS49      -0.2867
     29  CB         7.6160   -2.9930   18.2260 C.3    49  LYS49       0.0271
     30  CG         6.9660   -4.3570   18.3390 C.3    49  LYS49       0.0035
     31  CD         5.5690   -4.3290   17.7160 C.3    49  LYS49       0.0206
     32  CE         4.9280   -5.7470   17.7100 C.3    49  LYS49       0.1093
     33  NZ         3.7680   -5.9190   16.7660 N.3    49  LYS49      -0.1314
     34  N          2.3610   -1.3300    8.1100 N.3    71  LEU71      -0.1245
     35  CA         2.6590   -0.1270    8.8490 C.3    71  LEU71       0.1561
     36  C          3.3500    0.8980    7.9470 C.2    71  LEU71       0.2260
     37  O          3.3350    2.0850    8.2450 O.2    71  LEU71      -0.2867
     38  CB         3.5560   -0.4780   10.0210 C.3    71  LEU71       0.0270
     39  CG         2.8530   -1.2570   11.1060 C.3    71  LEU71       0.0019
     40  CD1        3.8390   -1.9080   11.9900 C.3    71  LEU71       0.0001
     41  CD2        2.0720   -0.2790   11.8770 C.3    71  LEU71       0.0001
     42  N         -1.8010    3.9060   13.7010 N.3    80  ILE80      -0.1231
     43  CA        -0.3860    3.8660   14.0310 C.3    80  ILE80       0.1692
     44  C          0.4290    3.7220   12.7790 C.2    80  ILE80       0.2593
     45  O         -0.0280    3.0970   11.8230 O.2    80  ILE80      -0.2718
     46  CB        -0.0240    2.7710   15.0420 C.3    80  ILE80       0.0266
     47  CG1        1.2840    3.1470   15.7160 C.3    80  ILE80       0.0019
     48  CG2        0.0430    1.3890   14.4020 C.3    80  ILE80       0.0020
     49  CD1        1.6900    2.1830   16.7610 C.3    80  ILE80       0.0001
     50  N          1.6190    4.3220   12.7880 N.am   81  GLY81      -0.1942
     51  CA         2.4470    4.4230   11.5980 C.3    81  GLY81       0.2014
     52  C          3.9200    4.3690   11.9300 C.2    81  GLY81       0.2638
     53  O          4.3000    4.2790   13.0950 O.2    81  GLY81      -0.2714
     54  N          4.7570    4.4620   10.9010 N.am   82  LEU82      -0.1977
     55  CA         6.1740    4.2760   11.0610 C.3    82  LEU82       0.1596
     56  C          6.9840    5.5490   11.0270 C.2    82  LEU82       0.2287
     57  O          6.9420    6.2840   10.0380 O.2    82  LEU82      -0.2864
     58  CB         6.6720    3.3820    9.9450 C.3    82  LEU82       0.0297
     59  CG         6.5480    1.8690   10.0520 C.3    82  LEU82       0.0022
     60  CD1        7.3480    1.3180    8.9330 C.3    82  LEU82       0.0001
     61  CD2        7.0740    1.3270   11.3950 C.3    82  LEU82       0.0001
     62  N         10.6850   -1.8370   14.8320 N.3   100  LEU100     -0.1231
     63  CA         9.7730   -0.8330   14.3100 C.3   100  LEU100      0.1693
     64  C          9.5710    0.3030   15.3420 C.2   100  LEU100      0.2592
     65  O          9.3670    0.0500   16.5320 O.2   100  LEU100     -0.2718
     66  CB         8.4180   -1.4680   13.9490 C.3   100  LEU100      0.0284
     67  CG         8.3340   -2.8000   13.1910 C.3   100  LEU100      0.0019
     68  CD1        6.9810   -3.3870   13.4370 C.3   100  LEU100      0.0001
     69  CD2        8.5580   -2.6630   11.7200 C.3   100  LEU100      0.0001
     70  N          9.6180    1.5420   14.8680 N.am  101  VAL101     -0.1966
     71  CA         9.5050    2.7360   15.7330 C.3   101  VAL101      0.1727
     72  C          8.2490    3.5670   15.4380 C.2   101  VAL101      0.2617
     73  O          7.9500    3.8740   14.2850 O.2   101  VAL101     -0.2715
     74  CB        10.7620    3.6960   15.6130 C.3   101  VAL101      0.0290
     75  CG1       10.7700    4.7070   16.7260 C.3   101  VAL101      0.0023
     76  CG2       12.0540    2.9280   15.6550 C.3   101  VAL101      0.0023
     77  N          7.5480    3.9610   16.4870 N.am  102  THR102     -0.1937
     78  CA         6.4370    4.8720   16.3400 C.3   102  THR102      0.2028
     79  C          6.3470    5.8640   17.5120 C.2   102  THR102      0.2642
     80  O          7.0570    5.7170   18.5150 O.2   102  THR102     -0.2714
     81  CB         5.1190    4.0880   16.2270 C.3   102  THR102      0.1808
     82  OG1        4.1890    4.8760   15.5000 O.3   102  THR102     -0.2208
     83  CG2        4.5400    3.7120   17.6290 C.3   102  THR102      0.0379
     84  N          5.4500    6.8460   17.4040 N.am  103  HIS103     -0.1959
     85  CA         5.2490    7.8160   18.4740 C.3   103  HIS103      0.1787
     86  C          4.9430    7.0860   19.7700 C.2   103  HIS103      0.2620
     87  O          4.0810    6.2420   19.7820 O.2   103  HIS103     -0.2715
     88  CB         4.0620    8.7140   18.1410 C.3   103  HIS103      0.0785
     89  CG         4.2380    9.5110   16.8900 C.ar  103  HIS103      0.0821
     90  ND1        4.9060   10.7140   16.8660 N.ar  103  HIS103     -0.2267
     91  CD2        3.8300    9.2780   15.6200 C.ar  103  HIS103      0.1154
     92  CE1        4.8970   11.1890   15.6340 C.ar  103  HIS103      0.1986
     93  NE2        4.2540   10.3350   14.8580 N.ar  103  HIS103     -0.2212
     94  N          5.6230    7.4000   20.8690 N.am  104  LEU104     -0.1963
     95  CA         5.1160    6.9660   22.1650 C.3   104  LEU104      0.1728
     96  C          3.7430    7.6120   22.4070 C.2   104  LEU104      0.2616
     97  O          3.4590    8.7020   21.9140 O.2   104  LEU104     -0.2715
     98  CB         6.0900    7.2520   23.3010 C.3   104  LEU104      0.0311
     99  CG         5.7840    6.4380   24.5690 C.3   104  LEU104      0.0022
    100  CD1        5.7360    4.9760   24.2570 C.3   104  LEU104      0.0001
    101  CD2        6.7970    6.6710   25.6820 C.3   104  LEU104      0.0001
    102  N          2.8900    6.9050   23.1330 N.am  105  MET105     -0.1963
    103  CA         1.4780    7.2280   23.2040 C.3   105  MET105      0.1736
    104  C          1.1180    7.0610   24.6830 C.2   105  MET105      0.2617
    105  O          0.3120    7.8190   25.2470 O.2   105  MET105     -0.2715
    106  CB         0.7070    6.2350   22.3390 C.3   105  MET105      0.0427
    107  CG        -0.4230    6.7600   21.5100 C.3   105  MET105      0.0599
    108  SD        -0.0140    7.9490   20.2000 S.3   105  MET105     -0.1393
    109  CE        -1.6410    8.6760   20.0340 C.3   105  MET105      0.0692
    110  N          1.7300    6.0580   25.3080 N.am  106  GLY106     -0.1940
    111  CA         1.7350    5.9780   26.7550 C.3   106  GLY106      0.2014
    112  C          0.6620    5.1710   27.4580 C.2   106  GLY106      0.2639
    113  O          0.8350    4.8570   28.6370 O.2   106  GLY106     -0.2714
    114  N         -0.4280    4.8290   26.7670 N.am  107  ALA107     -0.1963
    115  CA        -1.4960    4.0050   27.3670 C.3   107  ALA107      0.1728
    116  C         -2.3950    3.3800   26.3280 C.2   107  ALA107      0.2616
    117  O         -2.3750    3.7760   25.1680 O.2   107  ALA107     -0.2715
    118  CB        -2.3370    4.8230   28.3330 C.3   107  ALA107      0.0334
    119  N         -3.2070    2.4170   26.7320 N.am  108  ASP108     -0.1971
    120  CA        -4.2070    1.9210   25.8120 C.3   108  ASP108      0.1709
    121  C         -5.5880    2.0820   26.4200 C.2   108  ASP108      0.2293
    122  O         -5.6890    2.2270   27.6090 O.2   108  ASP108     -0.2864
    123  CB        -3.9080    0.4840   25.3980 C.3   108  ASP108      0.1436
    124  CG        -3.7760   -0.4580   26.5780 C.2   108  ASP108      0.3671
    125  OD1       -2.7450   -1.1750   26.6370 O.co2 108  ASP108     -0.2456
    126  OD2       -4.7020   -0.5060   27.4190 O.co2 108  ASP108     -0.2456
    127  N         -6.5220    0.6290   29.4820 N.3   111  ASN111     -0.1240
    128  CA        -5.8500    1.2940   30.6080 C.3   111  ASN111      0.1653
    129  C         -6.3710    2.6700   30.9970 C.2   111  ASN111      0.2266
    130  O         -5.7680    3.3350   31.8360 O.2   111  ASN111     -0.2867
    131  CB        -4.3870    1.5760   30.2290 C.3   111  ASN111      0.1155
    132  CG        -3.5060    0.3690   30.3190 C.2   111  ASN111      0.2627
    133  OD1       -2.3280    0.4350   29.9340 O.2   111  ASN111     -0.2716
    134  ND2       -4.0470   -0.7430   30.8390 N.am  111  ASN111     -0.0877
    135  N         -7.4240   -2.8960   24.1870 N.3   150  SER150     -0.1217
    136  CA        -5.9600   -2.9610   24.2060 C.3   150  SER150      0.1889
    137  C         -5.3440   -2.7160   22.8480 C.2   150  SER150      0.2288
    138  O         -4.1280   -2.5800   22.7240 O.2   150  SER150     -0.2866
    139  CB        -5.5090   -4.3240   24.6960 C.3   150  SER150      0.2089
    140  OG        -6.3120   -5.3400   24.1120 O.3   150  SER150     -0.2183
    141  N         -4.4590    2.7640   21.1330 N.3   153  ALA153     -0.1245
    142  CA        -3.5070    3.5260   21.9140 C.3   153  ALA153      0.1562
    143  C         -3.9780    4.9910   22.1260 C.2   153  ALA153      0.2260
    144  O         -4.4200    5.6800   21.1740 O.2   153  ALA153     -0.2867
    145  CB        -2.1240    3.4370   21.2900 C.3   153  ALA153      0.0290
    146  N         -3.9390    0.4140   16.9120 N.3   163  LEU163     -0.1231
    147  CA        -2.7790   -0.4500   16.8720 C.3   163  LEU163      0.1693
    148  C         -3.0330   -1.6330   15.9250 C.2   163  LEU163      0.2592
    149  O         -4.1980   -2.0140   15.6780 O.2   163  LEU163     -0.2718
    150  CB        -2.5150   -0.9710   18.2890 C.3   163  LEU163      0.0284
    151  CG        -2.0190    0.0300   19.3550 C.3   163  LEU163      0.0019
    152  CD1       -2.1600   -0.5230   20.7740 C.3   163  LEU163      0.0001
    153  CD2       -0.5700    0.5350   19.1170 C.3   163  LEU163      0.0001
    154  N         -1.9680   -2.2290   15.3910 N.am  164  ASP164     -0.1960
    155  CA        -2.1030   -3.5370   14.7220 C.3   164  ASP164      0.1840
    156  C         -2.2630   -4.6380   15.7780 C.2   164  ASP164      0.2622
    157  O         -3.2390   -5.3950   15.7620 O.2   164  ASP164     -0.2715
    158  CB        -0.9300   -3.8150   13.7880 C.3   164  ASP164      0.1450
    159  CG         0.4080   -3.4910   14.4150 C.2   164  ASP164      0.3671
    160  OD1        0.4200   -2.7600   15.4320 O.co2 164  ASP164     -0.2456
    161  OD2        1.4590   -3.9580   13.8890 O.co2 164  ASP164     -0.2456
    162  N         -1.3190   -4.6890   16.7120 N.am  165  PHE165     -0.1974
    163  CA        -1.3840   -5.5680   17.8800 C.3   165  PHE165      0.1639
    164  C         -1.0810   -4.7340   19.1230 C.2   165  PHE165      0.2290
    165  O         -0.1390   -3.9370   19.1300 O.2   165  PHE165     -0.2864
    166  CB        -0.3680   -6.7260   17.7760 C.3   165  PHE165      0.0560
    167  CG        -0.4410   -7.4810   16.4800 C.ar  165  PHE165     -0.0200
    168  CD1       -1.2470   -8.6010   16.3610 C.ar  165  PHE165     -0.0042
    169  CD2        0.2710   -7.0460   15.3640 C.ar  165  PHE165     -0.0042
    170  CE1       -1.3560   -9.2830   15.1310 C.ar  165  PHE165     -0.0003
    171  CE2        0.1770   -7.7110   14.1310 C.ar  165  PHE165     -0.0003
    172  CZ        -0.6280   -8.8310   14.0140 C.ar  165  PHE165     -0.0000
    173  N         -0.7480   -4.9390   23.6230 N.3   167  LEU167     -0.1245
    174  CA         0.0380   -5.7070   24.5710 C.3   167  LEU167      0.1561
    175  C         -0.7850   -6.7170   25.3510 C.2   167  LEU167      0.2260
    176  O         -1.8240   -6.3670   25.9300 O.2   167  LEU167     -0.2867
    177  CB         0.7030   -4.7660   25.5660 C.3   167  LEU167      0.0270
    178  CG         1.5070   -3.6130   24.9970 C.3   167  LEU167      0.0019
    179  CD1        1.7360   -2.6720   26.1330 C.3   167  LEU167      0.0001
    180  CD2        2.8250   -4.0780   24.3860 C.3   167  LEU167      0.0001
    181  N          1.7810   -6.1760   30.4010 N.3   170  HIS170     -0.1241
    182  CA         2.3500   -4.8340   30.7080 C.3   170  HIS170      0.1621
    183  C          3.4530   -4.9690   31.7720 C.2   170  HIS170      0.2264
    184  O          3.2810   -5.7050   32.7420 O.2   170  HIS170     -0.2867
    185  CB         1.2950   -3.8350   31.2420 C.3   170  HIS170      0.0745
    186  CG         0.1870   -3.5130   30.2840 C.ar  170  HIS170      0.0817
    187  ND1        0.1740   -2.3620   29.5230 N.ar  170  HIS170     -0.2268
    188  CD2       -0.9660   -4.1710   29.9930 C.ar  170  HIS170      0.1154
    189  CE1       -0.9260   -2.3350   28.7900 C.ar  170  HIS170      0.1986
    190  NE2       -1.6370   -3.4180   29.0580 N.ar  170  HIS170     -0.2212
    191  N          4.4250   -2.5090   33.9240 N.3   172  ASP172     -0.1239
    192  CA         3.8630   -1.8290   35.1210 C.3   172  ASP172      0.1674
    193  C          2.3380   -2.0060   35.2550 C.2   172  ASP172      0.2266
    194  O          1.8260   -3.1230   35.3880 O.2   172  ASP172     -0.2867
    195  CB         4.2100   -0.3210   35.1290 C.3   172  ASP172      0.1410
    196  CG         5.6340   -0.0290   35.6580 C.2   172  ASP172      0.3668
    197  OD1        5.8830   -0.2780   36.8610 O.co2 172  ASP172     -0.2456
    198  OD2        6.4950    0.4620   34.8770 O.co2 172  ASP172     -0.2456
@<TRIPOS>BOND
     1    36    37    2
     2    36    35    1
     3    34    35    1
     4    35    38    1
     5    60    59    1
     6    58    59    1
     7    58    55    1
     8    38    39    1
     9    57    56    2
    10    59    61    1
    11    54    55    1
    12    54    52   am
    13    56    55    1
    14    39    41    1
    15    39    40    1
    16    51    52    1
    17    51    50    1
    18    69    67    1
    19    45    44    2
    20    52    53    2
    21    44    50   am
    22    44    43    1
    23    67    68    1
    24    67    66    1
    25    42    43    1
    26   158   159    1
    27   158   155    1
    28   161   159   ar
    29    66    63    1
    30   172   171   ar
    31   172   170   ar
    32    43    46    1
    33   171   169   ar
    34    73    72    2
    35    63    62    1
    36    63    64    1
    37    48    46    1
    38   159   160   ar
    39   155   154    1
    40   155   156    1
    41    93    91   ar
    42    93    92   ar
    43    70    64   am
    44    70    71    1
    45    46    47    1
    46   170   168   ar
    47    64    65    2
    48   169   167   ar
    49   154   148   am
    50    72    71    1
    51    72    77   am
    52    82    81    1
    53    74    76    1
    54    74    71    1
    55    74    75    1
    56    91    89   ar
    57    92    90   ar
    58   149   148    2
    59    47    49    1
    60   157   156    2
    61   156   162   am
    62   148   147    1
    63    81    78    1
    64    81    83    1
    65    78    77    1
    66    78    79    1
    67   168   167   ar
    68   167   166    1
    69   162   163    1
    70    33    32    1
    71    90    89   ar
    72   147   146    1
    73   147   150    1
    74    89    88    1
    75    28    27    2
    76    84    79   am
    77    84    85    1
    78    79    80    2
    79    32    31    1
    80    31    30    1
    81   166   163    1
    82   163   164    1
    83    88    85    1
    84    29    30    1
    85    29    26    1
    86   150   151    1
    87    27    26    1
    88    85    86    1
    89    23    22    2
    90    25    26    1
    91   153   151    1
    92   164   165    2
    93   151   152    1
    94    86    87    2
    95    86    94   am
    96    22    21    1
    97   109   108    1
    98   108   107    1
    99    20    21    1
   100    94    95    1
   101    21    24    1
   102   141   142    1
   103   144   143    2
   104   145   142    1
   105   107   106    1
   106    14    12    1
   107   142   143    1
   108    97    96    2
   109    95    96    1
   110    95    98    1
   111   106   103    1
   112    96   102   am
   113   138   137    2
   114   137   136    1
   115    13    12    1
   116    12     9    1
   117   102   103    1
   118   103   104    1
   119     9     8    1
   120     9    10    1
   121    98    99    1
   122   173   174    1
   123   140   139    1
   124   135   136    1
   125   136   139    1
   126   100    99    1
   127    10    11    2
   128   180   178    1
   129    99   101    1
   130   174   175    1
   131   174   177    1
   132   104   105    2
   133   104   110   am
   134   178   177    1
   135   178   179    1
   136   117   116    2
   137    17    16    1
   138    17    18    2
   139   110   111    1
   140   175   176    2
   141    16    15    1
   142    16    19    1
   143   123   120    1
   144   123   124    1
   145   120   121    1
   146   120   119    1
   147     7     5    1
   148   116   119   am
   149   116   115    1
   150   121   122    2
   151   124   125   ar
   152   124   126   ar
   153   111   112    1
   154   114   115    1
   155   114   112   am
   156   115   118    1
   157   112   113    2
   158     5     6    1
   159     5     2    1
   160     1     2    1
   161     2     3    1
   162     3     4    2
   163   189   190   ar
   164   189   187   ar
   165   190   188   ar
   166   127   128    1
   167   187   186   ar
   168   133   132    2
   169   188   186   ar
   170   131   132    1
   171   131   128    1
   172   186   185    1
   173   132   134   am
   174   181   182    1
   175   128   129    1
   176   182   185    1
   177   182   183    1
   178   129   130    2
   179   183   184    2
   180   191   192    1
   181   198   196   ar
   182   192   195    1
   183   192   193    1
   184   195   196    1
   185   193   194    2
   186   196   197   ar
