@<TRIPOS>MOLECULE
tmp/3quoA00.pdb
 146 135 0 0 0
SMALL
GASTEIGER

@<TRIPOS>ATOM
      1  N         28.2700   16.9910   10.5190 N.3    21  LYS21      -0.1245
      2  CA        27.8230   16.2940    9.3420 C.3    21  LYS21       0.1561
      3  C         27.6180   14.7900    9.5810 C.2    21  LYS21       0.2260
      4  O         28.5530   14.0790   10.0400 O.2    21  LYS21      -0.2867
      5  CB        28.7850   16.5620    8.1720 C.3    21  LYS21       0.0271
      6  CG        28.2610   16.0810    6.8730 C.3    21  LYS21       0.0035
      7  CD        28.8920   14.8180    6.3610 C.3    21  LYS21       0.0206
      8  CE        28.1050   14.1670    5.2220 C.3    21  LYS21       0.1093
      9  NZ        28.9130   13.0660    4.6240 N.3    21  LYS21      -0.1314
     10  N         26.8630   11.2590    7.8900 N.3    23  GLY23      -0.1210
     11  CA        26.9660   10.5900    6.6190 C.3    23  GLY23       0.1956
     12  C         25.7550    9.7570    6.2720 C.2    23  GLY23       0.2612
     13  O         25.1180    9.1270    7.1390 O.2    23  GLY23      -0.2717
     14  N         25.4290    9.6970    4.9860 N.am   24  GLY24      -0.1942
     15  CA        24.3170    8.9220    4.5930 C.3    24  GLY24       0.2014
     16  C         24.4480    7.4620    4.9280 C.2    24  GLY24       0.2639
     17  O         23.4670    6.8130    5.1700 O.2    24  GLY24      -0.2714
     18  N         25.6790    6.9530    4.9810 N.am   25  SER25      -0.1949
     19  CA        25.9300    5.5530    5.3130 C.3    25  SER25       0.1924
     20  C         25.2940    5.1690    6.6720 C.2    25  SER25       0.2314
     21  O         25.0330    3.9680    6.9610 O.2    25  SER25      -0.2863
     22  CB        27.4720    5.2930    5.3560 C.3    25  SER25       0.2116
     23  OG        28.1060    6.0380    6.3920 O.3    25  SER25      -0.2180
     24  N         22.0620    3.3530    0.2480 N.3    30  LYS30      -0.1245
     25  CA        22.0670    3.9790   -1.0870 C.3    30  LYS30       0.1561
     26  C         21.2790    3.1790   -2.1120 C.2    30  LYS30       0.2260
     27  O         20.5280    3.7390   -2.9140 O.2    30  LYS30      -0.2867
     28  CB        23.5010    4.1100   -1.6080 C.3    30  LYS30       0.0271
     29  CG        24.1930    5.3880   -1.2290 C.3    30  LYS30       0.0035
     30  CD        25.7090    5.2000   -1.2850 C.3    30  LYS30       0.0206
     31  CE        26.4290    6.5200   -1.1790 C.3    30  LYS30       0.1093
     32  NZ        27.8490    6.3480   -0.7650 N.3    30  LYS30      -0.1314
     33  N         23.2720   12.6070    1.7710 N.3    65  GLY65      -0.1210
     34  CA        22.0960   12.4910    0.8500 C.3    65  GLY65       0.1956
     35  C         21.4840   11.1210    0.9180 C.2    65  GLY65       0.2612
     36  O         20.3150   10.9310    0.5810 O.2    65  GLY65      -0.2717
     37  N         22.2970   10.1360    1.3150 N.am   66  GLY66      -0.1956
     38  CA        21.8530    8.7330    1.2930 C.3    66  GLY66       0.1869
     39  C         21.2470    8.2910   -0.0310 C.2    66  GLY66       0.2309
     40  O         21.7260    8.6740   -1.0980 O.2    66  GLY66      -0.2863
     41  N         21.9360    9.9800   -3.8010 N.3    70  HIS70      -0.1241
     42  CA        22.5810    9.1510   -4.7820 C.3    70  HIS70       0.1621
     43  C         21.5770    8.7010   -5.8860 C.2    70  HIS70       0.2264
     44  O         21.9280    8.6960   -7.0750 O.2    70  HIS70      -0.2867
     45  CB        23.4340    8.1000   -4.0310 C.3    70  HIS70       0.0745
     46  CG        24.4980    8.7260   -3.1450 C.ar   70  HIS70       0.0817
     47  ND1       25.8030    8.9160   -3.5600 N.ar   70  HIS70      -0.2268
     48  CD2       24.4310    9.2460   -1.8890 C.ar   70  HIS70       0.1154
     49  CE1       26.5020    9.4760   -2.5870 C.ar   70  HIS70       0.1986
     50  NE2       25.6900    9.7000   -1.5660 N.ar   70  HIS70      -0.2212
     51  N         29.5200   16.9060    2.1980 N.3   162  ASP162     -0.1239
     52  CA        30.8910   16.9320    2.7860 C.3   162  ASP162      0.1674
     53  C         31.5420   18.3120    2.6330 C.2   162  ASP162      0.2266
     54  O         32.3950   18.6970    3.4440 O.2   162  ASP162     -0.2867
     55  CB        31.7150   15.8060    2.1530 C.3   162  ASP162      0.1410
     56  CG        31.3830   14.4360    2.7410 C.2   162  ASP162      0.3668
     57  OD1       31.1580   14.3710    3.9360 O.co2 162  ASP162     -0.2456
     58  OD2       31.4230   13.4850    1.9480 O.co2 162  ASP162     -0.2456
     59  N         31.1230    9.3070    9.9440 N.3   182  THR182     -0.1203
     60  CA        31.0770    8.3480    8.8750 C.3   182  THR182      0.1994
     61  C         31.0730    6.9270    9.3990 C.2   182  THR182      0.2618
     62  O         30.8680    6.6980   10.5870 O.2   182  THR182     -0.2717
     63  CB        32.1910    8.6730    7.8220 C.3   182  THR182      0.1784
     64  OG1       31.9410    7.9580    6.6020 O.3   182  THR182     -0.2211
     65  CG2       33.5620    8.5150    8.3510 C.3   182  THR182      0.0376
     66  N         31.3020    5.9830    8.5030 N.am  183  ASP183     -0.1959
     67  CA        31.2570    4.5810    8.8710 C.3   183  ASP183      0.1840
     68  C         32.6340    3.9350    9.0490 C.2   183  ASP183      0.2621
     69  O         32.7880    2.7050    8.9630 O.2   183  ASP183     -0.2715
     70  CB        30.3930    3.8120    7.8550 C.3   183  ASP183      0.1450
     71  CG        31.0070    3.7510    6.4840 C.2   183  ASP183      0.3671
     72  OD1       32.0520    4.3910    6.1780 O.co2 183  ASP183     -0.2456
     73  OD2       30.3680    3.0790    5.6440 O.co2 183  ASP183     -0.2456
     74  N         33.6380    4.7660    9.2920 N.am  184  VAL184     -0.1977
     75  CA        34.9860    4.3480    9.5590 C.3   184  VAL184      0.1596
     76  C         35.4970    5.2610   10.6820 C.2   184  VAL184      0.2287
     77  O         34.9400    6.3310   10.9420 O.2   184  VAL184     -0.2864
     78  CB        35.8840    4.4380    8.3030 C.3   184  VAL184      0.0276
     79  CG1       35.4780    3.4310    7.2530 C.3   184  VAL184      0.0022
     80  CG2       35.8770    5.8510    7.7340 C.3   184  VAL184      0.0022
     81  N         38.2390    6.9890   10.8700 N.3   186  GLY186     -0.1210
     82  CA        39.1350    8.0540   10.4500 C.3   186  GLY186      0.1956
     83  C         39.7590    7.6210    9.1170 C.2   186  GLY186      0.2612
     84  O         39.2640    6.6910    8.4800 O.2   186  GLY186     -0.2717
     85  N         40.8660    8.2720    8.7520 N.am  187  ILE187     -0.1965
     86  CA        41.6610    7.8790    7.5720 C.3   187  ILE187      0.1727
     87  C         42.5770    6.7270    7.9890 C.2   187  ILE187      0.2616
     88  O         43.4260    6.8990    8.8630 O.2   187  ILE187     -0.2715
     89  CB        42.4420    9.0450    6.9880 C.3   187  ILE187      0.0290
     90  CG1       41.4500   10.0750    6.4420 C.3   187  ILE187      0.0022
     91  CG2       43.3400    8.5490    5.8270 C.3   187  ILE187      0.0023
     92  CD1       42.0600   11.3690    5.9860 C.3   187  ILE187      0.0001
     93  N         42.3900    5.5890    7.3210 N.am  188  VAL188     -0.1977
     94  CA        43.1280    4.3690    7.5590 C.3   188  VAL188      0.1596
     95  C         44.3650    4.3440    6.6660 C.2   188  VAL188      0.2287
     96  O         44.2660    4.6210    5.4530 O.2   188  VAL188     -0.2864
     97  CB        42.2120    3.1770    7.2480 C.3   188  VAL188      0.0276
     98  CG1       42.9970    1.9560    7.1960 C.3   188  VAL188      0.0022
     99  CG2       41.0230    3.1530    8.2840 C.3   188  VAL188      0.0022
    100  N         47.1600    7.7250    1.7070 N.3   207  ALA207     -0.1231
    101  CA        46.4080    6.6280    2.3670 C.3   207  ALA207      0.1694
    102  C         45.1520    6.2220    1.6850 C.2   207  ALA207      0.2591
    103  O         44.7590    5.0810    1.7550 O.2   207  ALA207     -0.2718
    104  CB        46.0890    7.0040    3.8380 C.3   207  ALA207      0.0304
    105  N         44.4600    7.1590    1.0680 N.am  208  LEU208     -0.1980
    106  CA        43.2870    6.8480    0.3480 C.3   208  LEU208      0.1596
    107  C         43.6600    6.0760   -0.8850 C.2   208  LEU208      0.2287
    108  O         42.8820    5.2560   -1.3040 O.2   208  LEU208     -0.2864
    109  CB        42.4750    8.1080   -0.0490 C.3   208  LEU208      0.0297
    110  CG        42.2270    9.1820    0.9760 C.3   208  LEU208      0.0022
    111  CD1       41.2730   10.1200    0.4080 C.3   208  LEU208      0.0001
    112  CD2       41.6990    8.5710    2.2630 C.3   208  LEU208      0.0001
    113  N         43.7270    2.5820    0.1030 N.3   211  SER211     -0.1202
    114  CA        42.3250    2.1020    0.3490 C.3   211  SER211      0.2020
    115  C         41.1740    2.5790   -0.6200 C.2   211  SER211      0.2619
    116  O         39.9910    2.3850   -0.2980 O.2   211  SER211     -0.2717
    117  CB        41.9180    2.4780    1.8280 C.3   211  SER211      0.2103
    118  OG        41.9390    3.8660    2.0800 O.3   211  SER211     -0.2182
    119  N         41.5040    3.1960   -1.7630 N.am  212  SER212     -0.1951
    120  CA        40.5080    3.7520   -2.7290 C.3   212  SER212      0.1924
    121  C         39.3860    4.5670   -2.0730 C.2   212  SER212      0.2314
    122  O         39.4750    5.7910   -1.9100 O.2   212  SER212     -0.2863
    123  CB        39.9070    2.6280   -3.6000 C.3   212  SER212      0.2116
    124  OG        38.9710    3.0440   -4.4620 O.3   212  SER212     -0.2180
    125  N         34.0320    9.8070   -2.1430 N.3   213  ALA213     -0.1231
    126  CA        33.7000    9.8080   -0.6960 C.3   213  ALA213      0.1694
    127  C         34.7830   10.3890    0.1830 C.2   213  ALA213      0.2591
    128  O         34.7160   11.5430    0.5950 O.2   213  ALA213     -0.2718
    129  CB        33.4680    8.3710   -0.2190 C.3   213  ALA213      0.0304
    130  N         35.7780    9.5820    0.5840 N.am  214  MET214     -0.1979
    131  CA        36.7320   10.0350    1.5640 C.3   214  MET214      0.1605
    132  C         37.6080   11.1490    0.9890 C.2   214  MET214      0.2287
    133  O         37.9970   12.0460    1.7250 O.2   214  MET214     -0.2864
    134  CB        37.5630    8.9180    2.1480 C.3   214  MET214      0.0413
    135  CG        38.4130    9.3480    3.2570 C.3   214  MET214      0.0598
    136  SD        37.5560    9.9350    4.7170 S.3   214  MET214     -0.1393
    137  CE        36.6720    8.4350    5.0930 C.3   214  MET214      0.0692
    138  N         35.7810   14.3060    1.4500 N.3   217  LYS217     -0.1245
    139  CA        35.8640   14.7060    2.8670 C.3   217  LYS217      0.1561
    140  C         37.1920   15.3370    3.1770 C.2   217  LYS217      0.2260
    141  O         37.2510   16.3970    3.8330 O.2   217  LYS217     -0.2867
    142  CB        35.6810   13.4900    3.8040 C.3   217  LYS217      0.0271
    143  CG        34.2880   12.8740    3.7430 C.3   217  LYS217      0.0035
    144  CD        34.1710   11.5460    4.4510 C.3   217  LYS217      0.0206
    145  CE        32.7150   11.1110    4.5380 C.3   217  LYS217      0.1093
    146  NZ        31.9560   10.9730    3.3480 N.3   217  LYS217     -0.1314
@<TRIPOS>BOND
     1    44    43    2
     2    43    42    1
     3    42    45    1
     4    42    41    1
     5   124   123    1
     6    45    46    1
     7   123   120    1
     8    47    46   ar
     9    47    49   ar
    10    46    48   ar
    11    27    26    2
    12   120   121    1
    13   120   119    1
    14    49    50   ar
    15   125   126    1
    16    26    25    1
    17   121   122    2
    18    48    50   ar
    19   119   115   am
    20    28    29    1
    21    28    25    1
    22   108   107    2
    23    30    29    1
    24    30    31    1
    25    31    32    1
    26    40    39    2
    27    25    24    1
    28   107   106    1
    29   126   129    1
    30   126   127    1
    31   115   116    2
    32   115   114    1
    33   109   106    1
    34   109   110    1
    35    39    38    1
    36   113   114    1
    37   127   130   am
    38   127   128    2
    39   106   105    1
    40   114   117    1
    41   111   110    1
    42    36    35    2
    43   130   131    1
    44    34    35    1
    45    34    33    1
    46    35    37   am
    47   110   112    1
    48   132   131    1
    49   132   133    2
    50   105   102   am
    51    38    37    1
    52   138   139    1
    53   131   134    1
    54   102   103    2
    55   102   101    1
    56   100   101    1
    57   117   118    1
    58    58    56   ar
    59   134   135    1
    60    55    56    1
    61    55    52    1
    62    51    52    1
    63   101   104    1
    64    53    52    1
    65    53    54    2
    66    56    57   ar
    67   139   140    1
    68   139   142    1
    69   140   141    2
    70   135   136    1
    71   146   145    1
    72   143   142    1
    73   143   144    1
    74   144   145    1
    75    15    16    1
    76    15    14    1
    77     9     8    1
    78   136   137    1
    79    16    18   am
    80    16    17    2
    81    18    19    1
    82    14    12   am
    83     8     7    1
    84    19    22    1
    85    19    20    1
    86    22    23    1
    87    96    95    2
    88    73    71   ar
    89    91    89    1
    90    92    90    1
    91    72    71   ar
    92    12    11    1
    93    12    13    2
    94     7     6    1
    95    90    89    1
    96    71    70    1
    97    64    63    1
    98    11    10    1
    99    95    94    1
   100    20    21    2
   101     6     5    1
   102    89    86    1
   103    98    97    1
   104    97    94    1
   105    97    99    1
   106    79    78    1
   107    93    94    1
   108    93    87   am
   109    86    87    1
   110    86    85    1
   111    80    78    1
   112    63    65    1
   113    63    60    1
   114    70    67    1
   115    87    88    2
   116     5     2    1
   117    78    75    1
   118    84    83    2
   119    66    67    1
   120    66    61   am
   121    85    83   am
   122    67    68    1
   123    60    61    1
   124    60    59    1
   125    69    68    2
   126    68    74   am
   127    83    82    1
   128    74    75    1
   129     2     3    1
   130     2     1    1
   131    61    62    2
   132    75    76    1
   133     3     4    2
   134    82    81    1
   135    76    77    2
