@<TRIPOS>MOLECULE
tmp/3qupA00.pdb
 151 142 0 0 0
SMALL
GASTEIGER

@<TRIPOS>ATOM
      1  N         11.7750  -18.9350   23.5140 N.3    11  ARG11      -0.1245
      2  CA        12.6630  -19.3470   22.4140 C.3    11  ARG11       0.1563
      3  C         13.2990  -18.1480   21.6950 C.2    11  ARG11       0.2260
      4  O         12.7150  -17.0690   21.6450 O.2    11  ARG11      -0.2867
      5  CB        11.9230  -20.2590   21.4110 C.3    11  ARG11       0.0307
      6  CG        11.2300  -19.5370   20.2280 C.3    11  ARG11       0.0489
      7  CD        10.5720  -20.5110   19.2490 C.3    11  ARG11       0.2205
      8  NE        10.6290  -20.0460   17.8560 N.pl3  11  ARG11      -0.0865
      9  CZ         9.5790  -19.6740   17.1210 C.cat  11  ARG11       0.5346
     10  NH1        9.7590  -19.2790   15.8620 N.pl3  11  ARG11       0.1354
     11  NH2        8.3490  -19.6910   17.6290 N.pl3  11  ARG11       0.1354
     12  N         14.0820  -16.0980   18.5590 N.3    13  LEU13      -0.1245
     13  CA        13.4300  -15.8900   17.2670 C.3    13  LEU13       0.1561
     14  C         14.4300  -15.4900   16.1800 C.2    13  LEU13       0.2260
     15  O         14.3210  -15.9240   15.0400 O.2    13  LEU13      -0.2867
     16  CB        12.3100  -14.8470   17.3860 C.3    13  LEU13       0.0270
     17  CG        11.0330  -15.2000   18.1610 C.3    13  LEU13       0.0019
     18  CD1       10.1680  -13.9670   18.3800 C.3    13  LEU13       0.0001
     19  CD2       10.2260  -16.2820   17.4680 C.3    13  LEU13       0.0001
     20  N         21.7780   -5.2380   15.6350 N.3    18  PHE18      -0.1241
     21  CA        20.8330   -4.5810   16.5550 C.3    18  PHE18       0.1605
     22  C         20.6560   -5.3220   17.8860 C.2    18  PHE18       0.2264
     23  O         20.1610   -4.7510   18.8620 O.2    18  PHE18      -0.2867
     24  CB        19.4590   -4.4390   15.8790 C.3    18  PHE18       0.0534
     25  CG        18.7670   -5.7550   15.6370 C.ar   18  PHE18      -0.0203
     26  CD1       17.7890   -6.2120   16.5190 C.ar   18  PHE18      -0.0042
     27  CD2       19.1070   -6.5480   14.5380 C.ar   18  PHE18      -0.0042
     28  CE1       17.1520   -7.4370   16.3050 C.ar   18  PHE18      -0.0003
     29  CE2       18.4800   -7.7730   14.3170 C.ar   18  PHE18      -0.0003
     30  CZ        17.5000   -8.2190   15.2000 C.ar   18  PHE18      -0.0000
     31  N         16.2320  -11.1810   19.2130 N.3    21  VAL21      -0.1245
     32  CA        14.8000  -11.1740   19.4790 C.3    21  VAL21       0.1561
     33  C         14.3900  -12.5460   19.9730 C.2    21  VAL21       0.2260
     34  O         14.8010  -13.5670   19.4180 O.2    21  VAL21      -0.2867
     35  CB        13.9640  -10.8350   18.2080 C.3    21  VAL21       0.0252
     36  CG1       12.4760  -10.7000   18.5510 C.3    21  VAL21       0.0019
     37  CG2       14.4720   -9.5610   17.5450 C.3    21  VAL21       0.0019
     38  N          6.8560  -10.5920   20.7770 N.3    30  ALA30      -0.1245
     39  CA         8.2480  -10.5970   20.3840 C.3    30  ALA30       0.1562
     40  C          8.9730   -9.6030   21.2820 C.2    30  ALA30       0.2260
     41  O          8.4450   -8.5310   21.5890 O.2    30  ALA30      -0.2867
     42  CB         8.3960  -10.2150   18.9210 C.3    30  ALA30       0.0290
     43  N         12.5460   -7.5510   21.7580 N.3    32  LYS32      -0.1245
     44  CA        13.7730   -7.1060   21.1270 C.3    32  LYS32       0.1561
     45  C         14.8420   -6.8020   22.1840 C.2    32  LYS32       0.2260
     46  O         14.6120   -5.9820   23.0720 O.2    32  LYS32      -0.2867
     47  CB        13.4660   -5.8590   20.2800 C.3    32  LYS32       0.0271
     48  CG        14.2370   -5.7650   18.9800 C.3    32  LYS32       0.0035
     49  CD        13.7900   -4.5440   18.1690 C.3    32  LYS32       0.0206
     50  CE        14.7650   -4.2520   17.0290 C.3    32  LYS32       0.1093
     51  NZ        14.2830   -3.1320   16.1740 N.3    32  LYS32      -0.1314
     52  N          3.4900   -1.0370   12.8040 N.3    57  ALA57      -0.1245
     53  CA         3.5280   -1.9850   13.9130 C.3    57  ALA57       0.1562
     54  C          3.3020   -1.2600   15.2440 C.2    57  ALA57       0.2260
     55  O          3.9310   -0.2250   15.5450 O.2    57  ALA57      -0.2867
     56  CB         4.8410   -2.7750   13.9300 C.3    57  ALA57       0.0290
     57  N          6.8200   -6.1550   21.5540 N.3    72  LEU72      -0.1231
     58  CA         6.0830   -6.0130   20.2970 C.3    72  LEU72       0.1678
     59  C          5.0740   -7.1520   20.1110 C.2    72  LEU72       0.2434
     60  O          5.3300   -8.2680   20.5750 O.2    72  LEU72      -0.2733
     61  CB         7.0550   -6.1020   19.1130 C.3    72  LEU72       0.0284
     62  CG         8.0750   -5.0710   18.6240 C.3    72  LEU72       0.0019
     63  CD1        7.7100   -3.6380   19.0010 C.3    72  LEU72       0.0001
     64  CD2        9.4760   -5.4560   19.0530 C.3    72  LEU72       0.0001
     65  N          3.9650   -6.9000   19.3760 N.am   73  PRO73      -0.2718
     66  CA         3.0450   -8.0220   19.1100 C.3    73  PRO73       0.1535
     67  C          3.7370   -9.0770   18.2550 C.2    73  PRO73       0.2599
     68  O          4.5230   -8.7240   17.3600 O.2    73  PRO73      -0.2715
     69  CB         1.8740   -7.3820   18.3560 C.3    73  PRO73       0.0310
     70  CG         2.1490   -5.8860   18.3020 C.3    73  PRO73       0.0237
     71  CD         3.6130   -5.6890   18.6150 C.3    73  PRO73       0.0939
     72  N          3.4940  -10.3560   18.5530 N.am   74  PHE74      -0.1960
     73  CA         4.1360  -11.4210   17.7970 C.3    74  PHE74       0.1771
     74  C          3.4510  -11.5450   16.4420 C.2    74  PHE74       0.2619
     75  O          2.2450  -11.7720   16.3720 O.2    74  PHE74      -0.2715
     76  CB         4.1450  -12.7790   18.5300 C.3    74  PHE74       0.0574
     77  CG         4.8540  -13.8710   17.7560 C.ar   74  PHE74      -0.0200
     78  CD1        6.2430  -13.8720   17.6330 C.ar   74  PHE74      -0.0042
     79  CD2        4.1320  -14.8830   17.1310 C.ar   74  PHE74      -0.0042
     80  CE1        6.8990  -14.8660   16.9040 C.ar   74  PHE74      -0.0003
     81  CE2        4.7770  -15.8890   16.4040 C.ar   74  PHE74      -0.0003
     82  CZ         6.1590  -15.8820   16.2850 C.ar   74  PHE74      -0.0000
     83  N          4.2200  -11.3730   15.3750 N.am   75  MET75      -0.1963
     84  CA         3.6690  -11.4760   14.0340 C.3    75  MET75       0.1736
     85  C          4.2510  -12.6950   13.3500 C.2    75  MET75       0.2616
     86  O          5.3800  -12.6620   12.8360 O.2    75  MET75      -0.2715
     87  CB         3.9340  -10.1880   13.2500 C.3    75  MET75       0.0427
     88  CG         3.3490   -8.9530   13.9400 C.3    75  MET75       0.0599
     89  SD         3.7910   -7.3790   13.1200 S.3    75  MET75      -0.1393
     90  CE         2.8580   -7.6370   11.6200 C.3    75  MET75       0.0692
     91  N          3.4690  -13.7780   13.3460 N.am   76  LYS76      -0.1977
     92  CA         3.9580  -15.0870   12.9030 C.3    76  LYS76       0.1596
     93  C          4.4340  -15.1460   11.4610 C.2    76  LYS76       0.2287
     94  O          5.3420  -15.9100   11.1520 O.2    76  LYS76      -0.2864
     95  CB         2.8970  -16.1730   13.1550 C.3    76  LYS76       0.0298
     96  CG         1.6090  -15.9460   12.3990 C.3    76  LYS76       0.0038
     97  CD         0.5310  -16.9180   12.9090 C.3    76  LYS76       0.0206
     98  CE        -0.7550  -16.7210   12.1350 C.3    76  LYS76       0.1093
     99  NZ        -1.6900  -17.8200   12.4450 N.3    76  LYS76      -0.1314
    100  N          6.2480  -13.2050    9.9220 N.3    78  GLY78      -0.1210
    101  CA         7.5660  -12.5660    9.8130 C.3    78  GLY78       0.1956
    102  C          7.6520  -11.3430    8.8970 C.2    78  GLY78       0.2611
    103  O          6.6330  -10.7020    8.5580 O.2    78  GLY78      -0.2717
    104  N          8.8740  -11.0360    8.4710 N.am   79  ASP79      -0.1973
    105  CA         9.1230   -9.8350    7.6740 C.3    79  ASP79       0.1709
    106  C          8.9720  -10.0310    6.1790 C.2    79  ASP79       0.2293
    107  O          9.0580  -11.1630    5.6490 O.2    79  ASP79      -0.2864
    108  CB        10.4790   -9.1640    8.0550 C.3    79  ASP79       0.1436
    109  CG        11.7110   -9.8900    7.4730 C.2    79  ASP79       0.3671
    110  OD1       11.9260   -9.8610    6.2640 O.co2  79  ASP79      -0.2456
    111  OD2       12.4770  -10.4950    8.2260 O.co2  79  ASP79      -0.2456
    112  N         13.1200   -5.6970    4.9570 N.3   125  ARG125     -0.1231
    113  CA        13.4160   -6.4650    6.1730 C.3   125  ARG125      0.1694
    114  C         12.7600   -5.8360    7.4000 C.2   125  ARG125      0.2592
    115  O         12.5640   -6.5020    8.4130 O.2   125  ARG125     -0.2718
    116  CB        14.9590   -6.6070    6.3880 C.3   125  ARG125      0.0321
    117  CG        15.6130   -5.2430    6.6970 C.3   125  ARG125      0.0489
    118  CD        17.1640   -5.2790    6.9980 C.3   125  ARG125      0.2205
    119  NE        17.6530   -3.8910    6.9900 N.pl3 125  ARG125     -0.0865
    120  CZ        18.0170   -3.2160    5.9040 C.cat 125  ARG125      0.5346
    121  NH1       18.0150   -3.7890    4.7230 N.pl3 125  ARG125      0.1354
    122  NH2       18.3820   -1.9480    6.0050 N.pl3 125  ARG125      0.1354
    123  N         12.4170   -4.5520    7.3270 N.am  126  ASN126     -0.1974
    124  CA        11.8470   -3.8460    8.4780 C.3   126  ASN126      0.1688
    125  C         10.3360   -3.6060    8.3160 C.2   126  ASN126      0.2292
    126  O          9.7310   -2.8060    9.0300 O.2   126  ASN126     -0.2864
    127  CB        12.6080   -2.5390    8.7230 C.3   126  ASN126      0.1181
    128  CG        13.9700   -2.7860    9.3150 C.2   126  ASN126      0.2629
    129  OD1       14.1430   -3.7260   10.1330 O.2   126  ASN126     -0.2716
    130  ND2       14.9400   -1.9320    8.9670 N.am  126  ASN126     -0.0877
    131  N          6.7480   -5.7370    8.4290 N.3   128  MET128     -0.1245
    132  CA         6.2630   -7.0270    8.9350 C.3   128  MET128      0.1570
    133  C          4.9440   -7.3980    8.2530 C.2   128  MET128      0.2261
    134  O          4.1750   -6.5200    7.8640 O.2   128  MET128     -0.2867
    135  CB         6.1020   -6.9730   10.4560 C.3   128  MET128      0.0387
    136  CG         7.3840   -6.7630   11.2350 C.3   128  MET128      0.0595
    137  SD         8.5500   -8.1000   11.0310 S.3   128  MET128     -0.1393
    138  CE         7.6720   -9.4250   11.8690 C.3   128  MET128      0.0692
    139  N          7.8360   -1.2190   10.5810 N.3   138  ALA138     -0.1231
    140  CA         8.3110   -1.5760   11.9230 C.3   138  ALA138      0.1694
    141  C          9.7500   -1.0950   12.1220 C.2   138  ALA138      0.2592
    142  O         10.3730   -0.5550   11.1820 O.2   138  ALA138     -0.2718
    143  CB         8.2430   -3.1020   12.0950 C.3   138  ALA138      0.0304
    144  N         10.2780   -1.3700   13.3070 N.am  139  ASP139     -0.1974
    145  CA        11.7010   -1.2100   13.6260 C.3   139  ASP139      0.1709
    146  C         12.1010    0.2500   13.4150 C.2   139  ASP139      0.2293
    147  O         12.8150    0.5970   12.4740 O.2   139  ASP139     -0.2864
    148  CB        12.5710   -2.1570   12.8040 C.3   139  ASP139      0.1436
    149  CG        12.3150   -3.6390   13.1230 C.2   139  ASP139      0.3671
    150  OD1       12.5950   -4.0770   14.2570 O.co2 139  ASP139     -0.2456
    151  OD2       11.8480   -4.3670   12.2300 O.co2 139  ASP139     -0.2456
@<TRIPOS>BOND
     1   121   120    1
     2   112   113    1
     3   107   106    2
     4   120   122    1
     5   120   119    2
     6   113   116    1
     7   113   114    1
     8   106   105    1
     9   110   109   ar
    10   116   117    1
    11   117   118    1
    12   119   118    1
    13   123   114   am
    14   123   124    1
    15   114   115    2
    16   109   108    1
    17   109   111   ar
    18   105   108    1
    19   105   104    1
    20   134   133    2
    21   133   132    1
    22   125   124    1
    23   125   126    2
    24   131   132    1
    25   104   102   am
    26   124   127    1
    27   103   102    2
    28   127   128    1
    29   102   101    1
    30   132   135    1
    31   130   128   am
    32   128   129    2
    33   101   100    1
    34   135   136    1
    35   139   140    1
    36   137   136    1
    37   137   138    1
    38    94    93    2
    39   142   141    2
    40    93    92    1
    41    90    89    1
    42   140   143    1
    43   140   141    1
    44   141   144   am
    45    98    99    1
    46    98    97    1
    47   151   149   ar
    48    96    97    1
    49    96    95    1
    50   147   146    2
    51    52    53    1
    52   148   149    1
    53   148   145    1
    54    86    85    2
    55    92    95    1
    56    92    91    1
    57    89    88    1
    58   149   150   ar
    59    87    88    1
    60    87    84    1
    61   144   145    1
    62    91    85   am
    63    85    84    1
    64   146   145    1
    65    53    56    1
    66    53    54    1
    67    84    83    1
    68    29    27   ar
    69    29    30   ar
    70    27    25   ar
    71    15    14    2
    72    30    28   ar
    73    54    55    2
    74    83    74   am
    75    20    21    1
    76    25    24    1
    77    25    26   ar
    78    10     9    1
    79    24    21    1
    80    51    50    1
    81    14    13    1
    82    82    81   ar
    83    82    80   ar
    84    28    26   ar
    85    75    74    2
    86    81    79   ar
    87    74    73    1
    88    21    22    1
    89    80    78   ar
    90    50    49    1
    91     9    11    1
    92     9     8    2
    93    79    77   ar
    94    13    16    1
    95    13    12    1
    96    68    67    2
    97    16    17    1
    98    19    17    1
    99    37    35    1
   100    78    77   ar
   101    77    76    1
   102    73    76    1
   103    73    72    1
   104     8     7    1
   105    22    23    2
   106    17    18    1
   107    49    48    1
   108    35    36    1
   109    35    32    1
   110    67    72   am
   111    67    66    1
   112    70    69    1
   113    70    71    1
   114    69    66    1
   115    71    65    1
   116    62    63    1
   117    62    64    1
   118    62    61    1
   119    42    39    1
   120    48    47    1
   121    66    65    1
   122    61    58    1
   123    31    32    1
   124     7     6    1
   125    65    59   am
   126    34    33    2
   127    32    33    1
   128    59    58    1
   129    59    60    2
   130     6     5    1
   131    47    44    1
   132    58    57    1
   133    39    38    1
   134    39    40    1
   135    44    43    1
   136    44    45    1
   137    40    41    2
   138     5     2    1
   139     4     3    2
   140     3     2    1
   141    45    46    2
   142     2     1    1
