@<TRIPOS>MOLECULE
tmp/3quqA00.pdb
 156 150 0 0 0
SMALL
GASTEIGER

@<TRIPOS>ATOM
      1  N         15.1050  -10.4730  -10.0380 N.3    12  ASP12      -0.1239
      2  CA        14.5390   -9.3140   -9.3450 C.3    12  ASP12       0.1674
      3  C         14.7620   -9.4620   -7.8310 C.2    12  ASP12       0.2266
      4  O         14.9940  -10.5870   -7.3380 O.2    12  ASP12      -0.2867
      5  CB        13.0410   -9.3070   -9.6810 C.3    12  ASP12       0.1410
      6  CG        12.2900   -8.2480   -8.9260 C.2    12  ASP12       0.3668
      7  OD1       12.7880   -7.1000   -8.8780 O.co2  12  ASP12      -0.2456
      8  OD2       11.2250   -8.5980   -8.3470 O.co2  12  ASP12      -0.2456
      9  N         12.6990   -7.4950   -4.8220 N.3    14  ASP14      -0.1239
     10  CA        11.4850   -7.5520   -3.9890 C.3    14  ASP14       0.1674
     11  C         10.4830   -8.5500   -4.5610 C.2    14  ASP14       0.2266
     12  O         10.1040   -8.4370   -5.7320 O.2    14  ASP14      -0.2867
     13  CB        10.8210   -6.1660   -3.9150 C.3    14  ASP14       0.1410
     14  CG        11.6300   -5.1560   -3.0990 C.2    14  ASP14       0.3668
     15  OD1       11.6850   -5.2970   -1.8500 O.co2  14  ASP14      -0.2456
     16  OD2       12.2000   -4.2160   -3.6950 O.co2  14  ASP14      -0.2456
     17  N          7.3480   -8.0220   -0.2390 N.3    21  MET21      -0.1245
     18  CA         6.1490   -7.3980   -0.7650 C.3    21  MET21       0.1570
     19  C          4.9130   -7.3520    0.1680 C.2    21  MET21       0.2261
     20  O          4.1480   -6.3990    0.0730 O.2    21  MET21      -0.2867
     21  CB         5.8100   -7.9170   -2.1790 C.3    21  MET21       0.0387
     22  CG         6.7470   -7.3680   -3.3000 C.3    21  MET21       0.0595
     23  SD         6.7650   -5.5680   -3.3590 S.3    21  MET21      -0.1393
     24  CE         5.0320   -5.2460   -3.6710 C.3    21  MET21       0.0692
     25  N          5.7330   -4.1070    1.9270 N.3    24  HIS24      -0.1241
     26  CA         5.5520   -2.9220    1.0780 C.3    24  HIS24       0.1621
     27  C          4.0790   -2.6460    0.8100 C.2    24  HIS24       0.2264
     28  O          3.6400   -1.4860    0.8870 O.2    24  HIS24      -0.2867
     29  CB         6.2410   -3.0870   -0.2880 C.3    24  HIS24       0.0745
     30  CG         7.7390   -3.0200   -0.2390 C.ar   24  HIS24       0.0817
     31  ND1        8.4310   -1.8880    0.1510 N.ar   24  HIS24      -0.2268
     32  CD2        8.6760   -3.9300   -0.6070 C.ar   24  HIS24       0.1154
     33  CE1        9.7330   -2.1150    0.0450 C.ar   24  HIS24       0.1986
     34  NE2        9.9090   -3.3420   -0.4240 N.ar   24  HIS24      -0.2212
     35  N          2.0380    0.6840    2.1440 N.3    28  TRP28      -0.1241
     36  CA         1.3320    1.5460    1.1740 C.3    28  TRP28       0.1605
     37  C         -0.1470    1.6250    1.4420 C.2    28  TRP28       0.2264
     38  O         -0.7300    2.7400    1.4430 O.2    28  TRP28      -0.2867
     39  CB         1.5750    1.0530   -0.2690 C.3    28  TRP28       0.0550
     40  CG         2.8200    1.5580   -0.8740 C.ar   28  TRP28       0.0003
     41  CD1        3.9030    0.8140   -1.2850 C.ar   28  TRP28       0.0946
     42  CD2        3.1400    2.9290   -1.1890 C.ar   28  TRP28       0.0152
     43  NE1        4.8620    1.6390   -1.8450 N.ar   28  TRP28      -0.2442
     44  CE2        4.4100    2.9340   -1.7970 C.ar   28  TRP28       0.0810
     45  CE3        2.4490    4.1540   -1.0340 C.ar   28  TRP28       0.0012
     46  CZ2        5.0320    4.1120   -2.2270 C.ar   28  TRP28       0.0191
     47  CZ3        3.0610    5.3140   -1.4660 C.ar   28  TRP28       0.0001
     48  CH2        4.3400    5.2900   -2.0550 C.ar   28  TRP28       0.0015
     49  N         -1.4250   -2.1650   -4.5710 N.3    44  ALA44      -0.1245
     50  CA        -0.0310   -1.8910   -4.2580 C.3    44  ALA44       0.1562
     51  C          0.8810   -2.8830   -4.9900 C.2    44  ALA44       0.2260
     52  O          1.9240   -2.5010   -5.5130 O.2    44  ALA44      -0.2867
     53  CB         0.2060   -1.9330   -2.7420 C.3    44  ALA44       0.0290
     54  N          1.4580   -1.8490   -8.7000 N.3    47  HIS47      -0.1226
     55  CA         2.3490   -0.7280   -8.9020 C.3    47  HIS47       0.1752
     56  C          3.7890   -1.0510   -8.5590 C.2    47  HIS47       0.2596
     57  O          4.6280   -0.1690   -8.6390 O.2    47  HIS47      -0.2718
     58  CB         1.8930    0.4530   -8.0640 C.3    47  HIS47       0.0759
     59  CG         0.5580    0.9630   -8.4960 C.ar   47  HIS47       0.0818
     60  ND1        0.2810    1.2380   -9.8200 N.ar   47  HIS47      -0.2268
     61  CD2       -0.5910    1.1740   -7.8150 C.ar   47  HIS47       0.1154
     62  CE1       -0.9800    1.6170   -9.9320 C.ar   47  HIS47       0.1986
     63  NE2       -1.5280    1.5990   -8.7290 N.ar   47  HIS47      -0.2212
     64  N          4.0760   -2.3000   -8.1740 N.am   48  GLU48      -0.1965
     65  CA         5.4740   -2.6540   -7.8290 C.3    48  GLU48       0.1733
     66  C          6.4350   -2.3670   -8.9780 C.2    48  GLU48       0.2617
     67  O          6.2790   -2.8920  -10.0820 O.2    48  GLU48      -0.2715
     68  CB         5.5530   -4.1150   -7.4220 C.3    48  GLU48       0.0429
     69  CG         6.9750   -4.5430   -7.0430 C.3    48  GLU48       0.1163
     70  CD         7.0960   -6.0410   -6.7860 C.2    48  GLU48       0.3649
     71  OE1        6.0830   -6.7000   -6.5210 O.co2  48  GLU48      -0.2457
     72  OE2        8.2480   -6.5470   -6.8140 O.co2  48  GLU48      -0.2457
     73  N          7.4050   -1.5070   -8.6950 N.am   49  GLY49      -0.1940
     74  CA         8.3490   -1.0310   -9.7100 C.3    49  GLY49       0.2014
     75  C          8.2600    0.4680   -9.9340 C.2    49  GLY49       0.2639
     76  O          9.2440    1.0930  -10.3090 O.2    49  GLY49      -0.2714
     77  N          7.0840    1.0420   -9.7120 N.am   50  ARG50      -0.1963
     78  CA         6.9110    2.4940   -9.9170 C.3    50  ARG50       0.1729
     79  C          7.6070    3.2510   -8.8060 C.2    50  ARG50       0.2617
     80  O          7.7420    2.7370   -7.6820 O.2    50  ARG50      -0.2715
     81  CB         5.4380    2.8710   -9.8520 C.3    50  ARG50       0.0348
     82  CG         4.6260    2.2850  -10.9470 C.3    50  ARG50       0.0492
     83  CD         3.2620    2.9790  -11.0240 C.3    50  ARG50       0.2205
     84  NE         2.3230    2.1970  -11.8220 N.pl3  50  ARG50      -0.0865
     85  CZ         2.3350    2.1040  -13.1520 C.cat  50  ARG50       0.5346
     86  NH1        3.2360    2.7420  -13.8860 N.pl3  50  ARG50       0.1354
     87  NH2        1.4350    1.3350  -13.7520 N.pl3  50  ARG50       0.1354
     88  N          8.0190    4.4870   -9.0930 N.am   51  THR51      -0.1937
     89  CA         8.5230    5.3710   -8.0430 C.3    51  THR51       0.2028
     90  C          7.4050    5.6700   -7.0350 C.2    51  THR51       0.2642
     91  O          6.2200    5.5590   -7.3490 O.2    51  THR51      -0.2714
     92  CB         8.9850    6.7100   -8.6450 C.3    51  THR51       0.1808
     93  OG1        7.8520    7.3430   -9.2670 O.3    51  THR51      -0.2208
     94  CG2       10.0910    6.4790   -9.6730 C.3    51  THR51       0.0379
     95  N          7.8030    6.0400   -5.8160 N.am   52  GLY52      -0.1954
     96  CA         6.8650    6.4650   -4.7840 C.3    52  GLY52       0.1869
     97  C          6.0530    7.6430   -5.2960 C.2    52  GLY52       0.2309
     98  O          4.8220    7.6610   -5.1210 O.2    52  GLY52      -0.2863
     99  N          3.2500    6.3640   -7.8150 N.3    55  THR55      -0.1218
    100  CA         2.2030    5.6640   -7.0930 C.3    55  THR55       0.1862
    101  C          1.2570    6.6340   -6.3610 C.2    55  THR55       0.2287
    102  O          0.0300    6.4880   -6.4310 O.2    55  THR55      -0.2866
    103  CB         2.8600    4.6930   -6.0740 C.3    55  THR55       0.1770
    104  OG1        3.7160    3.8030   -6.8120 O.3    55  THR55      -0.2211
    105  CG2        1.8290    3.8980   -5.3160 C.3    55  THR55       0.0375
    106  N          5.6990    9.3040    1.3580 N.3    77  TYR77      -0.1241
    107  CA         6.7530    8.3120    1.1770 C.3    77  TYR77       0.1605
    108  C          7.5420    8.0900    2.4800 C.2    77  TYR77       0.2264
    109  O          7.8730    6.9470    2.8240 O.2    77  TYR77      -0.2867
    110  CB         7.7070    8.6250    0.0050 C.3    77  TYR77       0.0534
    111  CG         8.5500    7.4110   -0.3070 C.ar   77  TYR77      -0.0201
    112  CD1        7.9850    6.2860   -0.9220 C.ar   77  TYR77      -0.0009
    113  CD2        9.8940    7.3570    0.0610 C.ar   77  TYR77      -0.0009
    114  CE1        8.7570    5.1530   -1.1870 C.ar   77  TYR77       0.0417
    115  CE2       10.6730    6.2260   -0.1970 C.ar   77  TYR77       0.0417
    116  CZ        10.0940    5.1290   -0.8150 C.ar   77  TYR77       0.1957
    117  OH        10.8620    4.0040   -1.0740 O.3    77  TYR77      -0.2866
    118  N          5.3500    5.9920    4.6520 N.3    80  LYS80      -0.1245
    119  CA         5.3840    4.6110    4.1390 C.3    80  LYS80       0.1561
    120  C          6.6530    3.8970    4.6040 C.2    80  LYS80       0.2260
    121  O          6.6020    2.7150    5.0090 O.2    80  LYS80      -0.2867
    122  CB         5.2370    4.5960    2.5940 C.3    80  LYS80       0.0271
    123  CG         5.2040    3.1650    1.9880 C.3    80  LYS80       0.0035
    124  CD         6.5780    2.7420    1.5020 C.3    80  LYS80       0.0206
    125  CE         6.6260    1.2300    1.2020 C.3    80  LYS80       0.1093
    126  NZ         7.9860    0.8950    0.7130 N.3    80  LYS80      -0.1314
    127  N         17.1350   -4.6010   -9.9780 N.3   114  THR114     -0.1203
    128  CA        16.0630   -3.9410   -9.2190 C.3   114  THR114      0.1994
    129  C         16.0200   -2.4450   -9.4980 C.2   114  THR114      0.2618
    130  O         17.0500   -1.8470   -9.7610 O.2   114  THR114     -0.2717
    131  CB        16.1850   -4.2280   -7.7150 C.3   114  THR114      0.1784
    132  OG1       15.1150   -3.5490   -7.0470 O.3   114  THR114     -0.2211
    133  CG2       17.4800   -3.7330   -7.1460 C.3   114  THR114      0.0376
    134  N         14.8320   -1.8420   -9.4870 N.am  115  GLY115     -0.1942
    135  CA        14.7500   -0.3780   -9.5590 C.3   115  GLY115      0.2014
    136  C         14.8390    0.2250   -8.1590 C.2   115  GLY115      0.2640
    137  O         14.7040    1.4450   -7.9850 O.2   115  GLY115     -0.2714
    138  N         15.0470   -0.6250   -7.1510 N.am  116  SER116     -0.1935
    139  CA        15.0930   -0.1760   -5.7720 C.3   116  SER116      0.2055
    140  C         16.3490    0.6280   -5.4370 C.2   116  SER116      0.2644
    141  O         17.4560    0.3240   -5.8900 O.2   116  SER116     -0.2714
    142  CB        15.0440   -1.3840   -4.8440 C.3   116  SER116      0.2130
    143  OG        15.0600   -0.9880   -3.4980 O.3   116  SER116     -0.2179
    144  N         16.1430    1.6680   -4.6420 N.am  117  GLY117     -0.1939
    145  CA        17.2530    2.4010   -4.0420 C.3   117  GLY117      0.2014
    146  C         17.2290    2.2200   -2.5340 C.2   117  GLY117      0.2638
    147  O         17.8830    2.9710   -1.8140 O.2   117  GLY117     -0.2714
    148  N         16.4770    1.2150   -2.0560 N.am  118  GLN118     -0.1977
    149  CA        16.2760    1.0080   -0.6110 C.3   118  GLN118      0.1601
    150  C         17.5020    0.3400    0.0080 C.2   118  GLN118      0.2287
    151  O         17.6580   -0.8830   -0.0530 O.2   118  GLN118     -0.2864
    152  CB        15.0290    0.1500   -0.3950 C.3   118  GLN118      0.0394
    153  CG        14.5980    0.0500    1.0470 C.3   118  GLN118      0.0908
    154  CD        13.3280   -0.7730    1.2160 C.2   118  GLN118      0.2608
    155  OE1       12.9180   -1.5250    0.3100 O.2   118  GLN118     -0.2717
    156  NE2       12.7000   -0.6420    2.3820 N.am  118  GLN118     -0.0878
@<TRIPOS>BOND
     1    86    85    1
     2    87    85    1
     3    85    84    2
     4    84    83    1
     5    83    82    1
     6    82    81    1
     7    76    75    2
     8    67    66    2
     9     1     2    1
    10   127   128    1
    11    75    77   am
    12    75    74    1
    13    62    60   ar
    14    62    63   ar
    15    78    81    1
    16    78    77    1
    17    78    79    1
    18    60    59   ar
    19   130   129    2
    20    74    73    1
    21     5     2    1
    22     5     6    1
    23    94    92    1
    24   135   134    1
    25   135   136    1
    26   129   134   am
    27   129   128    1
    28     2     3    1
    29    93    92    1
    30   128   131    1
    31    88    79   am
    32    88    89    1
    33    66    73   am
    34    66    65    1
    35     6     7   ar
    36     6     8   ar
    37    55    54    1
    38    55    56    1
    39    55    58    1
    40    79    80    2
    41    63    61   ar
    42    92    89    1
    43    57    56    2
    44    56    64   am
    45    59    58    1
    46    59    61   ar
    47    64    65    1
    48   136   137    2
    49   136   138   am
    50    89    90    1
    51     3     4    2
    52    65    68    1
    53    99   100    1
    54   131   133    1
    55   131   132    1
    56    68    69    1
    57    91    90    2
    58   138   139    1
    59   100   101    1
    60   100   103    1
    61    69    70    1
    62    90    95   am
    63    72    70   ar
    64   104   103    1
    65    70    71   ar
    66   102   101    2
    67   103   105    1
    68   141   140    2
    69    95    96    1
    70   139   140    1
    71   139   142    1
    72    12    11    2
    73    52    51    2
    74   140   144   am
    75    97    98    2
    76    97    96    1
    77    51    50    1
    78   142   143    1
    79     9    10    1
    80   144   145    1
    81    49    50    1
    82    11    10    1
    83    50    53    1
    84   145   146    1
    85    10    13    1
    86    13    14    1
    87    16    14   ar
    88    24    23    1
    89    23    22    1
    90    22    21    1
    91    14    15   ar
    92   146   148   am
    93   146   147    2
    94    46    48   ar
    95    46    44   ar
    96    21    18    1
    97   148   149    1
    98    48    47   ar
    99    43    44   ar
   100    43    41   ar
   101    44    42   ar
   102    47    45   ar
   103    41    40   ar
   104    42    45   ar
   105    42    40   ar
   106   114   112   ar
   107   114   116   ar
   108   117   116    1
   109   112   111   ar
   110    40    39    1
   111   116   115   ar
   112    18    17    1
   113    18    19    1
   114   149   152    1
   115   149   150    1
   116    32    34   ar
   117    32    30   ar
   118    34    33   ar
   119   152   153    1
   120   111   110    1
   121   111   113   ar
   122    29    30    1
   123    29    26    1
   124    39    36    1
   125    30    31   ar
   126   115   113   ar
   127   151   150    2
   128   110   107    1
   129    33    31   ar
   130    20    19    2
   131   155   154    2
   132   126   125    1
   133    27    28    2
   134    27    26    1
   135   153   154    1
   136    26    25    1
   137    36    37    1
   138    36    35    1
   139   107   106    1
   140   107   108    1
   141   125   124    1
   142   154   156   am
   143    37    38    2
   144   124   123    1
   145   123   122    1
   146   108   109    2
   147   122   119    1
   148   119   120    1
   149   119   118    1
   150   120   121    2
