@<TRIPOS>MOLECULE
tmp/3qurA01.pdb
 121 112 0 0 0
SMALL
GASTEIGER

@<TRIPOS>ATOM
      1  N         28.5560   17.2240   10.4170 N.3    18  LYS18      -0.1241
      2  CA        28.0410   16.5740    9.2120 C.3    18  LYS18       0.1604
      3  C         27.8680   15.0650    9.4890 C.2    18  LYS18       0.2264
      4  O         28.7770   14.3880    9.9000 O.2    18  LYS18      -0.2867
      5  CB        29.0060   16.8170    8.0370 C.3    18  LYS18       0.0527
      6  CG        28.5000   16.3540    6.7070 C.2    18  LYS18      -0.0273
      7  CD        28.9560   15.0100    6.2980 C.2    18  LYS18      -0.0103
      8  CE        28.2700   14.3800    5.0870 C.3    18  LYS18       0.1350
      9  NZ        29.0700   13.2980    4.5430 N.3    18  LYS18      -0.1262
     10  N         27.1000   11.5050    7.7740 N.3    20  GLY20      -0.1210
     11  CA        27.1870   10.8070    6.5420 C.3    20  GLY20       0.1956
     12  C         25.9470   10.0140    6.2080 C.2    20  GLY20       0.2612
     13  O         25.3790    9.3310    7.0890 O.2    20  GLY20      -0.2717
     14  N         25.5830    9.9980    4.9350 N.am   21  GLY21      -0.1942
     15  CA        24.4430    9.1970    4.4820 C.3    21  GLY21       0.2014
     16  C         24.5480    7.7300    4.8600 C.2    21  GLY21       0.2639
     17  O         23.5170    7.1110    5.1150 O.2    21  GLY21      -0.2714
     18  N         25.7670    7.1640    4.8180 N.am   22  SER22      -0.1949
     19  CA        26.0630    5.7550    5.1880 C.3    22  SER22       0.1924
     20  C         25.4680    5.3890    6.5530 C.2    22  SER22       0.2314
     21  O         25.2390    4.1760    6.8120 O.2    22  SER22      -0.2863
     22  CB        27.6160    5.4530    5.2300 C.3    22  SER22       0.2116
     23  OG        28.3630    6.3220    6.1330 O.3    22  SER22      -0.2180
     24  N         22.2350    2.6060    0.0970 N.3    27  LYS27      -0.1245
     25  CA        22.1730    2.8420   -1.3780 C.3    27  LYS27       0.1561
     26  C         21.3820    1.7280   -2.0980 C.2    27  LYS27       0.2260
     27  O         20.6070    2.0170   -3.0390 O.2    27  LYS27      -0.2867
     28  CB        23.6060    2.9910   -1.9970 C.3    27  LYS27       0.0271
     29  CG        24.4680    4.0500   -1.3210 C.3    27  LYS27       0.0035
     30  CD        23.9580    5.4560   -1.5940 C.3    27  LYS27       0.0206
     31  CE        24.7660    6.5110   -0.8610 C.3    27  LYS27       0.1093
     32  NZ        24.3200    6.6950    0.5490 N.3    27  LYS27      -0.1314
     33  N         24.3110   14.3320    4.9450 N.3    61  GLY61      -0.1210
     34  CA        24.5880   13.7060    3.7080 C.3    61  GLY61       0.1956
     35  C         23.3340   13.0490    3.1390 C.2    61  GLY61       0.2612
     36  O         22.2210   13.2530    3.6280 O.2    61  GLY61      -0.2717
     37  N         23.5060   12.2390    2.1240 N.am   62  GLY62      -0.1942
     38  CA        22.4280   11.2780    1.6880 C.3    62  GLY62       0.2014
     39  C         21.5570   12.0910    0.7820 C.2    62  GLY62       0.2636
     40  O         21.9010   13.2380    0.4090 O.2    62  GLY62      -0.2714
     41  N         20.4410   11.5090    0.3850 N.am   63  GLY63      -0.2011
     42  CA        19.5970   12.1610   -0.6620 C.3    63  GLY63       0.1506
     43  C         19.7780   11.6710   -2.1280 C.3    63  GLY63       0.2054
     44  O         20.7150   12.1510   -2.8790 O.3    63  GLY63      -0.2184
     45  N         18.3630   17.1810   -7.7650 N.3    71  LEU71      -0.1245
     46  CA        19.1650   17.0340   -6.6090 C.3    71  LEU71       0.1561
     47  C         18.7220   17.9890   -5.5080 C.2    71  LEU71       0.2260
     48  O         18.7320   17.6500   -4.3390 O.2    71  LEU71      -0.2867
     49  CB        20.6310   17.2260   -6.9440 C.3    71  LEU71       0.0270
     50  CG        21.6220   17.1140   -5.8100 C.3    71  LEU71       0.0019
     51  CD1       21.5710   15.7320   -5.0880 C.3    71  LEU71       0.0001
     52  CD2       23.0640   17.4260   -6.3090 C.3    71  LEU71       0.0001
     53  N         17.8180   16.5410   -1.7960 N.3    75  THR75      -0.1218
     54  CA        18.4670   16.8870   -0.5480 C.3    75  THR75       0.1862
     55  C         17.5600   17.7310    0.3270 C.2    75  THR75       0.2287
     56  O         17.7790   17.7830    1.5330 O.2    75  THR75      -0.2866
     57  CB        19.8160   17.5200   -0.7000 C.3    75  THR75       0.1770
     58  OG1       19.7060   18.8940   -1.1000 O.3    75  THR75      -0.2211
     59  CG2       20.7360   16.8020   -1.7090 C.3    75  THR75       0.0375
     60  N         24.1320   18.9130    1.0750 N.3   130  GLY130     -0.1210
     61  CA        24.6250   19.1860   -0.2770 C.3   130  GLY130      0.1956
     62  C         23.5140   19.6130   -1.2030 C.2   130  GLY130      0.2611
     63  O         22.3230   19.6520   -0.7780 O.2   130  GLY130     -0.2717
     64  N         23.8570   19.9840   -2.4470 N.am  131  ASP131     -0.1973
     65  CA        22.8470   20.6050   -3.2890 C.3   131  ASP131      0.1709
     66  C         23.3470   20.6590   -4.7140 C.2   131  ASP131      0.2293
     67  O         24.5300   20.4490   -4.9670 O.2   131  ASP131     -0.2864
     68  CB        22.4300   21.9740   -2.6980 C.3   131  ASP131      0.1436
     69  CG        20.9250   22.2590   -2.8350 C.2   131  ASP131      0.3671
     70  OD1       20.3860   21.8930   -3.8850 O.co2 131  ASP131     -0.2456
     71  OD2       20.3690   22.8630   -1.8830 O.co2 131  ASP131     -0.2456
     72  N         26.7960   19.4690   -8.8820 N.3   142  ALA142     -0.1231
     73  CA        26.5590   18.7780   -7.6080 C.3   142  ALA142      0.1694
     74  C         27.6070   19.1770   -6.6090 C.2   142  ALA142      0.2592
     75  O         28.8180   19.0070   -6.9000 O.2   142  ALA142     -0.2718
     76  CB        26.5600   17.2690   -7.8150 C.3   142  ALA142      0.0304
     77  N         27.1700   19.7320   -5.4890 N.am  143  PHE143     -0.1962
     78  CA        28.0290   20.2440   -4.4290 C.3   143  PHE143      0.1771
     79  C         27.8240   19.3500   -3.2430 C.2   143  PHE143      0.2620
     80  O         26.7760   19.3080   -2.6440 O.2   143  PHE143     -0.2715
     81  CB        27.6960   21.6730   -4.1200 C.3   143  PHE143      0.0574
     82  CG        28.6210   22.3490   -3.1740 C.ar  143  PHE143     -0.0200
     83  CD1       29.8610   22.8640   -3.5910 C.ar  143  PHE143     -0.0042
     84  CD2       28.2590   22.5100   -1.8380 C.ar  143  PHE143     -0.0042
     85  CE1       30.6840   23.5400   -2.7020 C.ar  143  PHE143     -0.0003
     86  CE2       29.1150   23.1750   -0.9710 C.ar  143  PHE143     -0.0003
     87  CZ        30.2570   23.7080   -1.3970 C.ar  143  PHE143     -0.0000
     88  N         28.8290   18.5500   -2.9410 N.am  144  SER144     -0.1936
     89  CA        28.7280   17.5700   -1.8670 C.3   144  SER144      0.2055
     90  C         28.4320   18.1310   -0.5160 C.2   144  SER144      0.2644
     91  O         28.9410   19.2050   -0.1160 O.2   144  SER144     -0.2714
     92  CB        30.0680   16.8160   -1.7810 C.3   144  SER144      0.2130
     93  OG        29.9950   15.8490   -0.7320 O.3   144  SER144     -0.2179
     94  N         27.6270   17.3970    0.2840 N.am  145  SER145     -0.1935
     95  CA        27.4930   17.7180    1.7050 C.3   145  SER145      0.2055
     96  C         28.7920   17.9610    2.4770 C.2   145  SER145      0.2643
     97  O         28.8560   18.8220    3.3250 O.2   145  SER145     -0.2714
     98  CB        26.6690   16.6720    2.4120 C.3   145  SER145      0.2130
     99  OG        27.2290   15.3790    2.3300 O.3   145  SER145     -0.2179
    100  N         29.7930   17.1630    2.1060 N.am  146  ASP146     -0.1971
    101  CA        31.1340   17.2410    2.7120 C.3   146  ASP146      0.1709
    102  C         31.7860   18.6060    2.5150 C.2   146  ASP146      0.2293
    103  O         32.6080   19.0200    3.3670 O.2   146  ASP146     -0.2864
    104  CB        32.0200   16.1360    2.1000 C.3   146  ASP146      0.1436
    105  CG        31.6430   14.7050    2.5750 C.2   146  ASP146      0.3671
    106  OD1       31.3520   14.5930    3.7160 O.co2 146  ASP146     -0.2456
    107  OD2       31.7140   13.7600    1.7820 O.co2 146  ASP146     -0.2456
    108  N         34.5840    9.4890   -2.1000 N.3   199  ALA199     -0.1245
    109  CA        33.9780   10.0500   -0.9080 C.3   199  ALA199      0.1562
    110  C         34.9990   10.5690    0.0990 C.2   199  ALA199      0.2260
    111  O         34.9340   11.7120    0.4780 O.2   199  ALA199     -0.2867
    112  CB        33.0700    8.9740   -0.2810 C.3   199  ALA199      0.0290
    113  N         36.0460   14.5130    1.3440 N.3   203  LYS203     -0.1245
    114  CA        36.1480   14.9140    2.7410 C.3   203  LYS203      0.1561
    115  C         37.4660   15.5670    3.0470 C.2   203  LYS203      0.2260
    116  O         37.5470   16.5960    3.6910 O.2   203  LYS203     -0.2867
    117  CB        35.8980   13.7540    3.7170 C.3   203  LYS203      0.0271
    118  CG        34.5370   13.1570    3.5420 C.3   203  LYS203      0.0035
    119  CD        34.3690   11.8800    4.3870 C.3   203  LYS203      0.0206
    120  CE        32.9050   11.4480    4.4490 C.3   203  LYS203      0.1093
    121  NZ        32.1790   11.2830    3.2220 N.3   203  LYS203     -0.1314
@<TRIPOS>BOND
     1    72    73    1
     2    76    73    1
     3    45    46    1
     4    73    74    1
     5    49    46    1
     6    49    50    1
     7    75    74    2
     8    46    47    1
     9    74    77   am
    10    52    50    1
    11    50    51    1
    12    47    48    2
    13    77    78    1
    14    67    66    2
    15    66    65    1
    16    78    81    1
    17    78    79    1
    18    81    82    1
    19    70    69   ar
    20    83    82   ar
    21    83    85   ar
    22    65    68    1
    23    65    64    1
    24    79    88   am
    25    79    80    2
    26    82    84   ar
    27    27    26    2
    28    88    89    1
    29    44    43    1
    30    69    68    1
    31    69    71   ar
    32    85    87   ar
    33    64    62   am
    34    43    42    1
    35   108   109    1
    36    26    25    1
    37    28    25    1
    38    28    29    1
    39    89    92    1
    40    89    90    1
    41    84    86   ar
    42    53    54    1
    43    92    93    1
    44    59    57    1
    45    30    29    1
    46    30    31    1
    47    87    86   ar
    48    25    24    1
    49    62    63    2
    50    62    61    1
    51    58    57    1
    52   109   112    1
    53   109   110    1
    54    31    32    1
    55    57    54    1
    56    42    41    1
    57    54    55    1
    58    90    91    2
    59    90    94   am
    60    61    60    1
    61   110   111    2
    62    94    95    1
    63    55    56    2
    64    41    39   am
    65    40    39    2
    66    39    38    1
    67   113   114    1
    68    38    37    1
    69    95    98    1
    70    95    96    1
    71   107   105   ar
    72   104   105    1
    73   104   101    1
    74   100    96   am
    75   100   101    1
    76    37    35   am
    77    99    98    1
    78    96    97    2
    79   102   101    1
    80   102   103    2
    81   105   106   ar
    82   114   115    1
    83   114   117    1
    84   115   116    2
    85    35    36    2
    86    35    34    1
    87   121   120    1
    88   118   117    1
    89   118   119    1
    90    34    33    1
    91   119   120    1
    92    15    16    1
    93    15    14    1
    94     9     8    1
    95    18    16   am
    96    18    19    1
    97    16    17    2
    98    14    12   am
    99     8     7    1
   100    19    22    1
   101    19    20    1
   102    22    23    1
   103    12    11    1
   104    12    13    2
   105     7     6    2
   106    11    10    1
   107    20    21    2
   108     6     5    1
   109     5     2    1
   110     2     3    1
   111     2     1    1
   112     3     4    2
