@<TRIPOS>MOLECULE
tmp/3qusB00.pdb
 110 107 0 0 0
SMALL
GASTEIGER

@<TRIPOS>ATOM
      1  N        -30.8220  -36.7150   28.3410 N.3     3  GLU3       -0.1245
      2  CA       -29.5400  -36.0240   28.4640 C.3     3  GLU3        0.1567
      3  C        -29.0480  -35.8220   29.9220 C.2     3  GLU3        0.2260
      4  O        -27.8370  -35.7910   30.1740 O.2     3  GLU3       -0.2867
      5  CB       -29.5900  -34.7170   27.6860 C.3     3  GLU3        0.0388
      6  CG       -30.2440  -34.8620   26.3260 C.3     3  GLU3        0.1160
      7  CD       -30.6850  -33.5280   25.7350 C.2     3  GLU3        0.3649
      8  OE1      -30.9570  -33.4750   24.5130 O.co2   3  GLU3       -0.2457
      9  OE2      -30.7630  -32.5220   26.4800 O.co2   3  GLU3       -0.2457
     10  N        -37.9990  -28.1160   16.6280 N.3    65  GLY65      -0.1210
     11  CA       -36.6710  -28.0930   17.2250 C.3    65  GLY65       0.1956
     12  C        -35.6350  -28.1840   16.1220 C.2    65  GLY65       0.2612
     13  O        -35.8670  -28.8090   15.0890 O.2    65  GLY65      -0.2717
     14  N        -34.4920  -27.5450   16.3190 N.am   66  GLU66      -0.1965
     15  CA       -33.4010  -27.6530   15.3550 C.3    66  GLU66       0.1733
     16  C        -32.1650  -28.1830   16.0910 C.2    66  GLU66       0.2617
     17  O        -31.9750  -29.4000   16.1880 O.2    66  GLU66      -0.2715
     18  CB       -33.1690  -26.3140   14.6470 C.3    66  GLU66       0.0429
     19  CG       -34.4600  -25.6950   14.0400 C.3    66  GLU66       0.1163
     20  CD       -35.2170  -24.7370   15.0020 C.2    66  GLU66       0.3649
     21  OE1      -34.7170  -23.6090   15.2550 O.co2  66  GLU66      -0.2457
     22  OE2      -36.3210  -25.1040   15.4800 O.co2  66  GLU66      -0.2457
     23  N        -31.3590  -27.2790   16.6460 N.am   67  GLY67      -0.1940
     24  CA       -30.2980  -27.6620   17.5680 C.3    67  GLY67       0.2014
     25  C        -29.0190  -26.8640   17.4210 C.2    67  GLY67       0.2639
     26  O        -27.9710  -27.4450   17.1510 O.2    67  GLY67      -0.2714
     27  N        -29.0970  -25.5410   17.5950 N.am   68  LYS68      -0.1963
     28  CA       -27.9000  -24.6960   17.7140 C.3    68  LYS68       0.1728
     29  C        -26.9050  -25.3010   18.7160 C.2    68  LYS68       0.2617
     30  O        -25.9140  -25.9300   18.3490 O.2    68  LYS68      -0.2715
     31  CB       -28.2730  -23.2920   18.2190 C.3    68  LYS68       0.0311
     32  CG       -28.6540  -22.2420   17.1990 C.3    68  LYS68       0.0038
     33  CD       -29.4700  -21.1180   17.8680 C.3    68  LYS68       0.0206
     34  CE       -30.7450  -21.6680   18.5150 C.3    68  LYS68       0.1093
     35  NZ       -31.5130  -22.6310   17.6560 N.3    68  LYS68      -0.1314
     36  N        -27.2020  -25.1010   19.9930 N.am   69  THR69      -0.1937
     37  CA       -26.3240  -25.4690   21.0910 C.3    69  THR69       0.2028
     38  C        -25.7580  -26.9010   20.9480 C.2    69  THR69       0.2642
     39  O        -24.5410  -27.1230   20.9980 O.2    69  THR69      -0.2714
     40  CB       -27.0830  -25.3050   22.4250 C.3    69  THR69       0.1808
     41  OG1      -27.7210  -24.0230   22.4490 O.3    69  THR69      -0.2208
     42  CG2      -26.1400  -25.4430   23.6100 C.3    69  THR69       0.0379
     43  N        -26.6560  -27.8600   20.7600 N.am   70  THR70      -0.1950
     44  CA       -26.2730  -29.2440   20.6320 C.3    70  THR70       0.1897
     45  C        -25.2420  -29.3750   19.5310 C.2    70  THR70       0.2313
     46  O        -24.1590  -29.8840   19.7580 O.2    70  THR70      -0.2863
     47  CB       -27.4810  -30.1090   20.3490 C.3    70  THR70       0.1794
     48  OG1      -28.4680  -29.8600   21.3570 O.3    70  THR70      -0.2208
     49  CG2      -27.0930  -31.5700   20.3560 C.3    70  THR70       0.0378
     50  N        -30.7660  -29.4380   29.1700 N.3   105  ALA105     -0.1245
     51  CA       -29.3030  -29.5370   29.1320 C.3   105  ALA105      0.1562
     52  C        -28.6680  -28.5180   28.1850 C.2   105  ALA105      0.2260
     53  O        -29.2880  -28.1080   27.2040 O.2   105  ALA105     -0.2867
     54  CB       -28.8900  -30.9370   28.7390 C.3   105  ALA105      0.0290
     55  N        -26.9050  -27.9000   25.3350 N.3   107  GLY107     -0.1225
     56  CA       -26.6410  -28.7680   24.1860 C.3   107  GLY107      0.1811
     57  C        -27.5420  -29.9700   24.3330 C.2   107  GLY107      0.2280
     58  O        -28.7120  -29.8210   24.7040 O.2   107  GLY107     -0.2866
     59  N        -32.6050  -28.7550   10.3380 N.3   327  THR327     -0.1218
     60  CA       -33.0980  -30.1320   10.4460 C.3   327  THR327      0.1862
     61  C        -34.0260  -30.4340    9.2710 C.2   327  THR327      0.2287
     62  O        -34.4480  -29.5240    8.5590 O.2   327  THR327     -0.2866
     63  CB       -33.8340  -30.3910   11.7870 C.3   327  THR327      0.1770
     64  OG1      -34.1330  -29.1440   12.4160 O.3   327  THR327     -0.2211
     65  CG2      -32.9810  -31.2050   12.7280 C.3   327  THR327      0.0375
     66  N        -28.4290  -31.4070   11.7460 N.3   376  ASN376     -0.1225
     67  CA       -28.5130  -32.3440   12.8730 C.3   376  ASN376      0.1785
     68  C        -29.3410  -33.5580   12.4380 C.2   376  ASN376      0.2597
     69  O        -30.5420  -33.4340   12.1700 O.2   376  ASN376     -0.2718
     70  CB       -29.0990  -31.6800   14.1340 C.3   376  ASN376      0.1169
     71  CG       -29.0840  -32.5710   15.3620 C.2   376  ASN376      0.2627
     72  OD1      -28.9640  -33.7980   15.3050 O.2   376  ASN376     -0.2716
     73  ND2      -29.2740  -32.0180   16.5440 N.am  376  ASN376     -0.0877
     74  N        -28.6940  -34.7170   12.3330 N.am  377  ALA377     -0.1966
     75  CA       -29.3660  -35.9350   11.8620 C.3   377  ALA377      0.1728
     76  C        -30.4020  -36.4610   12.8640 C.2   377  ALA377      0.2616
     77  O        -30.2030  -36.3490   14.0690 O.2   377  ALA377     -0.2715
     78  CB       -28.3400  -37.0090   11.5390 C.3   377  ALA377      0.0334
     79  N        -31.4940  -37.0430   12.3590 N.am  378  PHE378     -0.1960
     80  CA       -32.5990  -37.5330   13.2110 C.3   378  PHE378      0.1756
     81  C        -33.0270  -39.0000   12.9130 C.2   378  PHE378      0.2461
     82  O        -32.8070  -39.4760   11.7990 O.2   378  PHE378     -0.2730
     83  CB       -33.7890  -36.5600   13.1130 C.3   378  PHE378      0.0574
     84  CG       -34.7830  -36.7100   14.2290 C.ar  378  PHE378     -0.0200
     85  CD1      -34.5080  -36.2010   15.5050 C.ar  378  PHE378     -0.0042
     86  CD2      -35.9940  -37.3800   14.0180 C.ar  378  PHE378     -0.0042
     87  CE1      -35.4290  -36.3630   16.5470 C.ar  378  PHE378     -0.0003
     88  CE2      -36.9240  -37.5450   15.0530 C.ar  378  PHE378     -0.0003
     89  CZ       -36.6380  -37.0400   16.3200 C.ar  378  PHE378     -0.0000
     90  N        -33.5950  -39.7300   13.9170 N.am  379  PRO379     -0.2727
     91  CA       -34.1540  -41.0870   13.7130 C.3   379  PRO379      0.1402
     92  C        -35.2150  -41.2060   12.6230 C.2   379  PRO379      0.2269
     93  O        -35.2410  -42.2180   11.9160 O.2   379  PRO379     -0.2865
     94  CB       -34.7890  -41.4410   15.0790 C.3   379  PRO379      0.0296
     95  CG       -34.6330  -40.2350   15.9460 C.3   379  PRO379      0.0237
     96  CD       -33.4780  -39.4500   15.3600 C.3   379  PRO379      0.0939
     97  N        -25.5220  -35.5250   18.3840 N.3   404  TRP404     -0.1241
     98  CA       -26.4720  -35.8290   19.4510 C.3   404  TRP404      0.1605
     99  C        -26.4750  -37.2980   19.8540 C.2   404  TRP404      0.2264
    100  O        -26.9360  -37.6310   20.9450 O.2   404  TRP404     -0.2867
    101  CB       -27.8900  -35.4360   19.0180 C.3   404  TRP404      0.0550
    102  CG       -28.9460  -35.6510   20.0850 C.ar  404  TRP404      0.0003
    103  CD1      -29.3040  -34.7830   21.0740 C.ar  404  TRP404      0.0946
    104  CD2      -29.7680  -36.8150   20.2610 C.ar  404  TRP404      0.0152
    105  NE1      -30.3040  -35.3370   21.8540 N.ar  404  TRP404     -0.2442
    106  CE2      -30.6140  -36.5980   21.3760 C.ar  404  TRP404      0.0810
    107  CE3      -29.8810  -38.0530   19.5740 C.ar  404  TRP404      0.0012
    108  CZ2      -31.5450  -37.5120   21.8400 C.ar  404  TRP404      0.0191
    109  CZ3      -30.8110  -38.9850   20.0260 C.ar  404  TRP404      0.0001
    110  CH2      -31.6310  -38.7170   21.1440 C.ar  404  TRP404      0.0015
@<TRIPOS>BOND
     1    62    61    2
     2    61    60    1
     3    59    60    1
     4    60    63    1
     5    78    75    1
     6    66    67    1
     7    63    64    1
     8    63    65    1
     9    82    81    2
    10    75    74    1
    11    75    76    1
    12    93    92    2
    13    69    68    2
    14    74    68   am
    15    79    76   am
    16    79    80    1
    17    68    67    1
    18    92    91    1
    19    76    77    2
    20    67    70    1
    21    81    80    1
    22    81    90   am
    23    83    80    1
    24    83    84    1
    25    91    90    1
    26    91    94    1
    27    90    96    1
    28    86    84   ar
    29    86    88   ar
    30    19    18    1
    31    19    20    1
    32    70    71    1
    33    84    85   ar
    34    18    15    1
    35    20    21   ar
    36    20    22   ar
    37    88    89   ar
    38    94    95    1
    39    13    12    2
    40    72    71    2
    41    15    16    1
    42    15    14    1
    43    96    95    1
    44    71    73   am
    45    85    87   ar
    46    16    17    2
    47    16    23   am
    48    12    14   am
    49    12    11    1
    50    89    87   ar
    51    10    11    1
    52    23    24    1
    53    26    25    2
    54    32    33    1
    55    32    31    1
    56    25    24    1
    57    25    27   am
    58    27    28    1
    59    35    34    1
    60    28    31    1
    61    28    29    1
    62    33    34    1
    63    30    29    2
    64    97    98    1
    65    29    36   am
    66   101    98    1
    67   101   102    1
    68    98    99    1
    69    45    46    2
    70    45    44    1
    71   107   109   ar
    72   107   104   ar
    73    99   100    2
    74    36    37    1
    75   109   110   ar
    76   102   104   ar
    77   102   103   ar
    78   104   106   ar
    79    47    49    1
    80    47    44    1
    81    47    48    1
    82    44    43    1
    83    43    38   am
    84    38    39    2
    85    38    37    1
    86   103   105   ar
    87    37    40    1
    88   110   108   ar
    89   106   108   ar
    90   106   105   ar
    91    40    41    1
    92    40    42    1
    93    56    57    1
    94    56    55    1
    95    57    58    2
    96     8     7   ar
    97     7     6    1
    98     7     9   ar
    99     6     5    1
   100    53    52    2
   101     5     2    1
   102    52    51    1
   103     1     2    1
   104     2     3    1
   105    54    51    1
   106    51    50    1
   107     3     4    2
