@<TRIPOS>MOLECULE
tmp/3qutA00.pdb
 81 74 0 0 0
SMALL
GASTEIGER

@<TRIPOS>ATOM
      1  N         15.4400  -10.4520  -10.0500 N.3    12  ASP12      -0.1225
      2  CA        14.8910   -9.3260   -9.3190 C.3    12  ASP12       0.1805
      3  C         15.0980   -9.5030   -7.8000 C.2    12  ASP12       0.2598
      4  O         15.3590  -10.6160   -7.3240 O.2    12  ASP12      -0.2718
      5  CB        13.4310   -9.2280   -9.6950 C.3    12  ASP12       0.1424
      6  CG        12.7200   -8.1960   -8.9430 C.2    12  ASP12       0.3668
      7  OD1       13.2260   -7.0550   -8.8890 O.co2  12  ASP12      -0.2456
      8  OD2       11.6290   -8.5490   -8.4000 O.co2  12  ASP12      -0.2456
      9  N         15.0250   -8.4050   -7.0480 N.am   13  MET13      -0.1965
     10  CA        15.1970   -8.4670   -5.6020 C.3    13  MET13       0.1736
     11  C         13.8630   -8.6350   -4.8320 C.2    13  MET13       0.2616
     12  O         13.6280   -9.7040   -4.2350 O.2    13  MET13      -0.2715
     13  CB        16.0400   -7.2960   -5.0780 C.3    13  MET13       0.0427
     14  CG        16.2840   -7.4630   -3.6040 C.3    13  MET13       0.0599
     15  SD        17.2330   -6.1320   -2.8720 S.3    13  MET13      -0.1393
     16  CE        16.0610   -4.7940   -2.9790 C.3    13  MET13       0.0692
     17  N         13.0190   -7.6030   -4.7980 N.am   14  ASN14      -0.1972
     18  CA        11.8140   -7.6960   -3.9620 C.3    14  ASN14       0.1688
     19  C         10.8180   -8.6830   -4.5690 C.2    14  ASN14       0.2292
     20  O         10.4450   -8.5760   -5.7550 O.2    14  ASN14      -0.2864
     21  CB        11.1400   -6.3430   -3.7730 C.3    14  ASN14       0.1181
     22  CG        11.9610   -5.3940   -2.9670 C.2    14  ASN14       0.2629
     23  OD1       12.6660   -5.8000   -2.0440 O.2    14  ASN14      -0.2716
     24  ND2       11.8720   -4.1190   -3.2880 N.am   14  ASN14      -0.0877
     25  N          4.2700   -2.3990   -8.3020 N.3    48  GLU48      -0.1231
     26  CA         5.6420   -2.6810   -7.9030 C.3    48  GLU48       0.1699
     27  C          6.5940   -2.3270   -9.0390 C.2    48  GLU48       0.2592
     28  O          6.5100   -2.8840  -10.1460 O.2    48  GLU48      -0.2718
     29  CB         5.8040   -4.1570   -7.5290 C.3    48  GLU48       0.0402
     30  CG         7.2520   -4.4790   -7.1190 C.3    48  GLU48       0.1161
     31  CD         7.4740   -5.9540   -6.8590 C.2    48  GLU48       0.3649
     32  OE1        6.5140   -6.7150   -6.5840 O.co2  48  GLU48      -0.2457
     33  OE2        8.6620   -6.3380   -6.8500 O.co2  48  GLU48      -0.2457
     34  N          7.4940   -1.3940   -8.7680 N.am   49  GLY49      -0.1957
     35  CA         8.3760   -0.8670   -9.8150 C.3    49  GLY49       0.1869
     36  C          8.1610    0.6090  -10.0800 C.2    49  GLY49       0.2309
     37  O          9.0940    1.3040  -10.5100 O.2    49  GLY49      -0.2863
     38  N         17.5380   -4.7220   -9.8380 N.3   114  THR114     -0.1203
     39  CA        16.5150   -4.1750   -8.9330 C.3   114  THR114      0.1994
     40  C         16.2570   -2.7040   -9.1980 C.2   114  THR114      0.2618
     41  O         17.1790   -1.9550   -9.5250 O.2   114  THR114     -0.2717
     42  CB        16.8970   -4.4300   -7.4430 C.3   114  THR114      0.1784
     43  OG1       15.9160   -3.8590   -6.5670 O.3   114  THR114     -0.2211
     44  CG2       18.2570   -3.8630   -7.0950 C.3   114  THR114      0.0376
     45  N         15.0040   -2.2950   -9.0480 N.am  115  GLY115     -0.1942
     46  CA        14.6830   -0.8590   -9.0290 C.3   115  GLY115      0.2014
     47  C         14.8920   -0.1790   -7.6900 C.2   115  GLY115      0.2639
     48  O         14.6480    1.0310   -7.5370 O.2   115  GLY115     -0.2714
     49  N         15.3290   -0.9410   -6.6970 N.am  116  SER116     -0.1949
     50  CA        15.5540   -0.3930   -5.3710 C.3   116  SER116      0.1924
     51  C         16.7980    0.4770   -5.3500 C.2   116  SER116      0.2314
     52  O         17.7790    0.1830   -6.0290 O.2   116  SER116     -0.2863
     53  CB        15.7060   -1.5110   -4.3510 C.3   116  SER116      0.2116
     54  OG        15.3480   -1.0670   -3.0620 O.3   116  SER116     -0.2180
     55  N         12.2010   -0.1600  -14.4650 N.3   148  LYS148     -0.1245
     56  CA        11.1610   -1.0590  -14.9900 C.3   148  LYS148      0.1561
     57  C          9.8040   -0.2960  -14.9660 C.2   148  LYS148      0.2260
     58  O          9.5130    0.4090  -13.9860 O.2   148  LYS148     -0.2867
     59  CB        11.0970   -2.3290  -14.1280 C.3   148  LYS148      0.0271
     60  CG        12.4600   -3.0560  -13.9530 C.3   148  LYS148      0.0035
     61  CD        12.3920   -4.0900  -12.8350 C.3   148  LYS148      0.0206
     62  CE        13.7630   -4.6650  -12.4490 C.3   148  LYS148      0.1093
     63  NZ        13.5740   -5.6240  -11.3360 N.3   148  LYS148     -0.1314
     64  N         11.4340  -12.8250  -12.3840 N.3   172  GLU172     -0.1245
     65  CA        10.6680  -11.6640  -11.9380 C.3   172  GLU172      0.1567
     66  C          9.3500  -12.0440  -11.2850 C.2   172  GLU172      0.2260
     67  O          8.7410  -13.0330  -11.6870 O.2   172  GLU172     -0.2867
     68  CB        10.3470  -10.7540  -13.1460 C.3   172  GLU172      0.0388
     69  CG        11.3600   -9.7030  -13.3970 C.3   172  GLU172      0.1160
     70  CD        11.2100   -8.5390  -12.4430 C.2   172  GLU172      0.3649
     71  OE1       10.2540   -8.5400  -11.6220 O.co2 172  GLU172     -0.2457
     72  OE2       12.0390   -7.5940  -12.5400 O.co2 172  GLU172     -0.2457
     73  N          6.8620   -9.3500  -10.7250 N.3   174  ALA174     -0.1245
     74  CA         5.9280   -8.2120  -10.8410 C.3   174  ALA174      0.1562
     75  C          5.6240   -7.9510  -12.2990 C.2   174  ALA174      0.2260
     76  O          6.4950   -8.1160  -13.1530 O.2   174  ALA174     -0.2867
     77  CB         6.5350   -6.9580  -10.2260 C.3   174  ALA174      0.0290
     78  N          8.0360   -5.5860  -13.9460 N.3   177  GLY177     -0.1225
     79  CA         9.3760   -6.1690  -14.0630 C.3   177  GLY177      0.1811
     80  C          9.4280   -7.2060  -15.1690 C.2   177  GLY177      0.2280
     81  O         10.4170   -7.2930  -15.9140 O.2   177  GLY177     -0.2866
@<TRIPOS>BOND
     1    81    80    2
     2    80    79    1
     3    56    57    1
     4    56    55    1
     5    56    59    1
     6    57    58    2
     7    59    60    1
     8    79    78    1
     9    60    61    1
    10    69    68    1
    11    69    70    1
    12    76    75    2
    13    68    65    1
    14    61    62    1
    15    72    70   ar
    16    62    63    1
    17    70    71   ar
    18    64    65    1
    19    75    74    1
    20    65    66    1
    21    67    66    2
    22    74    73    1
    23    74    77    1
    24    37    36    2
    25    28    27    2
    26    36    35    1
    27     1     2    1
    28    38    39    1
    29    35    34    1
    30     5     2    1
    31     5     6    1
    32    41    40    2
    33     2     3    1
    34    40    45   am
    35    40    39    1
    36    45    46    1
    37    27    34   am
    38    27    26    1
    39    46    47    1
    40     6     7   ar
    41     6     8   ar
    42    39    42    1
    43    25    26    1
    44    26    29    1
    45     3     4    2
    46     3     9   am
    47    47    48    2
    48    47    49   am
    49    29    30    1
    50    42    44    1
    51    42    43    1
    52    30    31    1
    53     9    10    1
    54    31    33   ar
    55    31    32   ar
    56    49    50    1
    57    52    51    2
    58    20    19    2
    59    10    13    1
    60    10    11    1
    61    50    51    1
    62    50    53    1
    63    13    14    1
    64    11    17   am
    65    11    12    2
    66    17    18    1
    67    19    18    1
    68    53    54    1
    69    18    21    1
    70    21    22    1
    71    14    15    1
    72    24    22   am
    73    16    15    1
    74    22    23    2
