@<TRIPOS>MOLECULE
tmp/3quyC00.pdb
 79 75 0 0 0
SMALL
GASTEIGER

@<TRIPOS>ATOM
      1  N         22.3130   34.6690  -27.4120 N.3    27  THR27      -0.1204
      2  CA        22.8930   33.3610  -27.1000 C.3    27  THR27       0.1979
      3  C         23.6330   33.4040  -25.7430 C.2    27  THR27       0.2460
      4  O         24.4710   34.2670  -25.5410 O.2    27  THR27      -0.2732
      5  CB        23.8810   32.8940  -28.2150 C.3    27  THR27       0.1783
      6  OG1       23.1990   32.8670  -29.4810 O.3    27  THR27      -0.2211
      7  CG2       24.4320   31.4830  -27.9260 C.3    27  THR27       0.0376
      8  N         23.3070   32.4850  -24.8080 N.am   28  PRO28      -0.2717
      9  CA        22.2060   31.5160  -24.8780 C.3    28  PRO28       0.1535
     10  C         20.8430   32.1780  -24.6440 C.2    28  PRO28       0.2599
     11  O         20.7610   33.3730  -24.3050 O.2    28  PRO28      -0.2715
     12  CB        22.5310   30.5170  -23.7570 C.3    28  PRO28       0.0310
     13  CG        23.4420   31.2500  -22.8190 C.3    28  PRO28       0.0237
     14  CD        24.1640   32.2820  -23.6250 C.3    28  PRO28       0.0939
     15  N         19.7700   31.4140  -24.8350 N.am   29  ASP29      -0.1958
     16  CA        18.4200   31.9580  -24.6570 C.3    29  ASP29       0.1840
     17  C         17.7010   31.1320  -23.6130 C.2    29  ASP29       0.2622
     18  O         17.0020   30.1610  -23.9100 O.2    29  ASP29      -0.2715
     19  CB        17.6680   31.9800  -25.9890 C.3    29  ASP29       0.1450
     20  CG        17.6860   30.6360  -26.7220 C.2    29  ASP29       0.3671
     21  OD1       18.5570   29.7900  -26.4140 O.co2  29  ASP29      -0.2456
     22  OD2       16.8460   30.4410  -27.6440 O.co2  29  ASP29      -0.2456
     23  N         17.9050   31.5040  -22.3540 N.am   30  ASN30      -0.1972
     24  CA        17.2970   30.7670  -21.2690 C.3    30  ASN30       0.1688
     25  C         15.7830   30.9010  -21.2960 C.2    30  ASN30       0.2292
     26  O         15.0500   29.9030  -21.2110 O.2    30  ASN30      -0.2864
     27  CB        17.8750   31.2430  -19.9390 C.3    30  ASN30       0.1181
     28  CG        17.2020   30.5900  -18.7580 C.2    30  ASN30       0.2629
     29  OD1       16.3200   31.1840  -18.1350 O.2    30  ASN30      -0.2716
     30  ND2       17.6050   29.3720  -18.4400 N.am   30  ASN30      -0.0877
     31  N         12.8370   27.7990  -29.6960 N.3    67  LYS67      -0.1245
     32  CA        14.2370   28.1210  -29.4800 C.3    67  LYS67       0.1561
     33  C         15.1490   27.7290  -30.6510 C.2    67  LYS67       0.2260
     34  O         16.1950   28.3350  -30.8490 O.2    67  LYS67      -0.2867
     35  CB        14.7170   27.5280  -28.1490 C.3    67  LYS67       0.0271
     36  CG        14.2600   28.3560  -26.8950 C.3    67  LYS67       0.0035
     37  CD        14.9830   27.8810  -25.6440 C.3    67  LYS67       0.0206
     38  CE        14.4830   28.5810  -24.3680 C.3    67  LYS67       0.1093
     39  NZ        15.2700   28.0910  -23.1830 N.3    67  LYS67      -0.1314
     40  N         14.4540   30.6410  -32.8460 N.3    70  LYS70      -0.1245
     41  CA        14.6830   31.8900  -32.1150 C.3    70  LYS70       0.1561
     42  C         13.5700   32.8850  -32.4280 C.2    70  LYS70       0.2260
     43  O         13.7780   34.0330  -32.8410 O.2    70  LYS70      -0.2867
     44  CB        16.0830   32.4380  -32.3760 C.3    70  LYS70       0.0271
     45  CG        17.1810   31.4050  -32.0340 C.3    70  LYS70       0.0035
     46  CD        18.4290   32.0230  -31.4660 C.3    70  LYS70       0.0206
     47  CE        19.3000   30.9640  -30.7630 C.3    70  LYS70       0.1093
     48  NZ        20.3660   31.6210  -29.9230 N.3    70  LYS70      -0.1314
     49  N         19.5430   35.7420  -20.9590 N.3    93  ASP93      -0.1225
     50  CA        20.5870   34.8580  -21.4440 C.3    93  ASP93       0.1805
     51  C         21.1260   33.8810  -20.3740 C.2    93  ASP93       0.2598
     52  O         22.0240   33.1070  -20.6610 O.2    93  ASP93      -0.2718
     53  CB        21.6990   35.6670  -22.1730 C.3    93  ASP93       0.1424
     54  CG        22.4280   36.6760  -21.2550 C.2    93  ASP93       0.3668
     55  OD1       22.3930   36.5370  -20.0160 O.co2  93  ASP93      -0.2456
     56  OD2       23.0850   37.6080  -21.7700 O.co2  93  ASP93      -0.2456
     57  N         20.5750   33.8940  -19.1570 N.am   94  ARG94      -0.1966
     58  CA        20.9230   32.8910  -18.1310 C.3    94  ARG94       0.1729
     59  C         19.7010   32.4630  -17.3370 C.2    94  ARG94       0.2616
     60  O         18.7110   33.1940  -17.2850 O.2    94  ARG94      -0.2715
     61  CB        21.9650   33.4220  -17.1360 C.3    94  ARG94       0.0348
     62  CG        23.3180   33.7800  -17.7370 C.3    94  ARG94       0.0492
     63  CD        24.1550   32.5450  -18.2250 C.3    94  ARG94       0.2205
     64  NE        25.5130   33.0220  -18.4570 N.pl3  94  ARG94      -0.0865
     65  CZ        25.9240   33.6080  -19.5790 C.cat  94  ARG94       0.5346
     66  NH1       27.1660   34.0440  -19.6760 N.pl3  94  ARG94       0.1354
     67  NH2       25.1000   33.7620  -20.6080 N.pl3  94  ARG94       0.1354
     68  N         19.7510   31.2920  -16.7110 N.am   95  GLY95      -0.1955
     69  CA        18.6840   30.9160  -15.7750 C.3    95  GLY95       0.1869
     70  C         18.9070   31.3340  -14.3130 C.2    95  GLY95       0.2309
     71  O         18.4320   30.6460  -13.3860 O.2    95  GLY95      -0.2863
     72  N         23.0340   35.8680  -12.8510 N.3    98  LEU98      -0.1245
     73  CA        24.2030   36.1040  -13.7160 C.3    98  LEU98       0.1561
     74  C         23.8020   36.5660  -15.1380 C.2    98  LEU98       0.2260
     75  O         24.6260   37.0700  -15.9110 O.2    98  LEU98      -0.2867
     76  CB        25.0850   34.8540  -13.7870 C.3    98  LEU98       0.0270
     77  CG        25.6640   34.4210  -12.4500 C.3    98  LEU98       0.0019
     78  CD1       26.5690   33.2440  -12.6130 C.3    98  LEU98       0.0001
     79  CD2       26.3800   35.5740  -11.7140 C.3    98  LEU98       0.0001
@<TRIPOS>BOND
     1    40    41    1
     2    43    42    2
     3    42    41    1
     4    44    41    1
     5    44    45    1
     6    45    46    1
     7    46    47    1
     8    34    33    2
     9    47    48    1
    10    33    32    1
    11    31    32    1
    12     6     5    1
    13    32    35    1
    14     5     7    1
    15     5     2    1
    16    35    36    1
    17    22    20   ar
    18     1     2    1
    19     2     3    1
    20    36    37    1
    21    20    21   ar
    22    20    19    1
    23    19    16    1
    24     3     4    2
    25     3     8   am
    26    37    38    1
    27     9     8    1
    28     9    10    1
    29     9    12    1
    30    15    16    1
    31    15    10   am
    32     8    14    1
    33    16    17    1
    34    10    11    2
    35    38    39    1
    36    18    17    2
    37    12    13    1
    38    14    13    1
    39    17    23   am
    40    23    24    1
    41    53    50    1
    42    53    54    1
    43    56    54   ar
    44    50    49    1
    45    50    51    1
    46    25    24    1
    47    25    26    2
    48    24    27    1
    49    54    55   ar
    50    52    51    2
    51    67    65    1
    52    51    57   am
    53    27    28    1
    54    66    65    1
    55    65    64    2
    56    57    58    1
    57    28    30   am
    58    28    29    2
    59    64    63    1
    60    63    62    1
    61    58    59    1
    62    58    61    1
    63    62    61    1
    64    59    60    2
    65    59    68   am
    66    68    69    1
    67    75    74    2
    68    69    70    1
    69    74    73    1
    70    70    71    2
    71    76    73    1
    72    76    77    1
    73    73    72    1
    74    78    77    1
    75    77    79    1
