@<TRIPOS>MOLECULE
tmp/3qv2A00.pdb
 178 172 0 0 0
SMALL
GASTEIGER

@<TRIPOS>ATOM
      1  N         17.1160  -23.4330   24.8750 N.3    10  PHE10      -0.1227
      2  CA        17.3560  -22.9990   23.5030 C.3    10  PHE10       0.1736
      3  C         16.5840  -21.7120   23.2390 C.2    10  PHE10       0.2596
      4  O         15.8960  -21.5810   22.2270 O.2    10  PHE10      -0.2718
      5  CB        16.9390  -24.0890   22.5120 C.3    10  PHE10       0.0547
      6  CG        17.3130  -25.4780   22.9480 C.ar   10  PHE10      -0.0202
      7  CD1       18.6020  -25.9550   22.7690 C.ar   10  PHE10      -0.0042
      8  CD2       16.3750  -26.3070   23.5430 C.ar   10  PHE10      -0.0042
      9  CE1       18.9480  -27.2330   23.1750 C.ar   10  PHE10      -0.0003
     10  CE2       16.7140  -27.5840   23.9510 C.ar   10  PHE10      -0.0003
     11  CZ        18.0020  -28.0470   23.7670 C.ar   10  PHE10      -0.0000
     12  N         16.7170  -20.7630   24.1610 N.am   11  SER11      -0.1938
     13  CA        15.9070  -19.5460   24.1680 C.3    11  SER11       0.2055
     14  C         15.9700  -18.7190   22.8850 C.2    11  SER11       0.2644
     15  O         15.0030  -18.0440   22.5340 O.2    11  SER11      -0.2714
     16  CB        16.2730  -18.6730   25.3720 C.3    11  SER11       0.2130
     17  OG        17.6770  -18.5260   25.4870 O.3    11  SER11      -0.2179
     18  N         17.1010  -18.7650   22.1900 N.am   12  GLY12      -0.1939
     19  CA        17.2640  -17.9890   20.9730 C.3    12  GLY12       0.2014
     20  C         17.0320  -16.5070   21.2060 C.2    12  GLY12       0.2638
     21  O         17.7360  -15.8830   22.0000 O.2    12  GLY12      -0.2714
     22  N         16.0440  -15.9400   20.5190 N.am   13  ILE13      -0.1977
     23  CA        15.7350  -14.5200   20.6670 C.3    13  ILE13       0.1596
     24  C         14.5090  -14.2850   21.5480 C.2    13  ILE13       0.2287
     25  O         14.0170  -13.1620   21.6530 O.2    13  ILE13      -0.2864
     26  CB        15.5240  -13.8290   19.3020 C.3    13  ILE13       0.0276
     27  CG1       14.2690  -14.3670   18.6130 C.3    13  ILE13       0.0022
     28  CG2       16.7470  -14.0080   18.4140 C.3    13  ILE13       0.0022
     29  CD1       13.9840  -13.7120   17.2780 C.3    13  ILE13       0.0001
     30  N         11.4460  -16.2430   21.4680 N.3    15  GLY15      -0.1210
     31  CA        10.1790  -16.4800   20.8020 C.3    15  GLY15       0.1956
     32  C          9.1560  -17.1330   21.7120 C.2    15  GLY15       0.2611
     33  O          7.9840  -16.7540   21.7190 O.2    15  GLY15      -0.2717
     34  N          9.5990  -18.1210   22.4830 N.am   16  LEU16      -0.1979
     35  CA         8.7100  -18.8350   23.3940 C.3    16  LEU16       0.1596
     36  C          8.2090  -17.9210   24.5070 C.2    16  LEU16       0.2287
     37  O          7.0380  -17.9700   24.8830 O.2    16  LEU16      -0.2864
     38  CB         9.4120  -20.0550   23.9880 C.3    16  LEU16       0.0297
     39  CG         9.9460  -21.0640   22.9710 C.3    16  LEU16       0.0022
     40  CD1       10.6530  -22.2080   23.6740 C.3    16  LEU16       0.0001
     41  CD2        8.8190  -21.5810   22.0970 C.3    16  LEU16       0.0001
     42  N         18.3200  -20.3940   28.4640 N.3    34  PHE34      -0.1227
     43  CA        19.5930  -21.0750   28.2520 C.3    34  PHE34       0.1736
     44  C         19.9010  -21.1400   26.7600 C.2    34  PHE34       0.2595
     45  O         19.0910  -21.6330   25.9740 O.2    34  PHE34      -0.2718
     46  CB        19.5520  -22.4970   28.8210 C.3    34  PHE34       0.0547
     47  CG        19.7320  -22.5680   30.3110 C.ar   34  PHE34      -0.0202
     48  CD1       20.9540  -22.9250   30.8590 C.ar   34  PHE34      -0.0042
     49  CD2       18.6780  -22.2920   31.1640 C.ar   34  PHE34      -0.0042
     50  CE1       21.1210  -22.9980   32.2290 C.ar   34  PHE34      -0.0003
     51  CE2       18.8390  -22.3610   32.5350 C.ar   34  PHE34      -0.0003
     52  CZ        20.0620  -22.7150   33.0680 C.ar   34  PHE34      -0.0000
     53  N         21.0700  -20.6410   26.3720 N.am   35  ASP35      -0.1960
     54  CA        21.5070  -20.7150   24.9830 C.3    35  ASP35       0.1840
     55  C         22.9800  -20.3310   24.8660 C.2    35  ASP35       0.2622
     56  O         23.4600  -19.4520   25.5820 O.2    35  ASP35      -0.2715
     57  CB        20.6400  -19.8220   24.0920 C.3    35  ASP35       0.1450
     58  CG        20.7100  -20.2140   22.6270 C.2    35  ASP35       0.3671
     59  OD1       21.8310  -20.3980   22.1120 O.co2  35  ASP35      -0.2456
     60  OD2       19.6410  -20.3480   21.9950 O.co2  35  ASP35      -0.2456
     61  N         23.6920  -21.0010   23.9660 N.am   36  ILE36      -0.1963
     62  CA        25.1260  -20.7860   23.8040 C.3    36  ILE36       0.1727
     63  C         25.4500  -19.8240   22.6640 C.2    36  ILE36       0.2616
     64  O         26.6070  -19.4500   22.4700 O.2    36  ILE36      -0.2715
     65  CB        25.8600  -22.1150   23.5570 C.3    36  ILE36       0.0290
     66  CG1       25.3570  -22.7670   22.2680 C.3    36  ILE36       0.0022
     67  CG2       25.6710  -23.0510   24.7370 C.3    36  ILE36       0.0023
     68  CD1       26.0150  -24.0950   21.9540 C.3    36  ILE36       0.0001
     69  N         24.4280  -19.4290   21.9110 N.am   37  ASN37      -0.1972
     70  CA        24.6160  -18.5180   20.7870 C.3    37  ASN37       0.1688
     71  C         24.7660  -17.0720   21.2550 C.2    37  ASN37       0.2292
     72  O         23.7950  -16.4430   21.6810 O.2    37  ASN37      -0.2864
     73  CB        23.4510  -18.6420   19.8010 C.3    37  ASN37       0.1181
     74  CG        23.7340  -17.9650   18.4750 C.2    37  ASN37       0.2629
     75  OD1       23.5600  -16.7550   18.3340 O.2    37  ASN37      -0.2716
     76  ND2       24.1700  -18.7450   17.4920 N.am   37  ASN37      -0.0877
     77  N         22.4580  -14.4900   19.4440 N.3    40  ALA40      -0.1245
     78  CA        21.0730  -14.6810   19.8540 C.3    40  ALA40       0.1562
     79  C         20.8450  -14.1200   21.2530 C.2    40  ALA40       0.2260
     80  O         19.8680  -13.4110   21.4960 O.2    40  ALA40      -0.2867
     81  CB        20.7020  -16.1540   19.8030 C.3    40  ALA40       0.0290
     82  N         25.4950  -22.1550   29.9390 N.3    55  LYS55      -0.1231
     83  CA        25.8430  -23.5240   30.2980 C.3    55  LYS55       0.1693
     84  C         25.3400  -24.4860   29.2260 C.2    55  LYS55       0.2592
     85  O         24.1490  -24.5130   28.9190 O.2    55  LYS55      -0.2718
     86  CB        25.2490  -23.8860   31.6610 C.3    55  LYS55       0.0285
     87  CG        25.6030  -25.2820   32.1450 C.3    55  LYS55       0.0035
     88  CD        27.1070  -25.4500   32.2900 C.3    55  LYS55       0.0206
     89  CE        27.4670  -26.8480   32.7710 C.3    55  LYS55       0.1093
     90  NZ        28.9300  -27.0020   33.0100 N.3    55  LYS55      -0.1314
     91  N         26.2500  -25.2710   28.6570 N.am   56  ASN56      -0.1960
     92  CA        25.8950  -26.1810   27.5710 C.3    56  ASN56       0.1819
     93  C         24.8720  -27.2260   28.0070 C.2    56  ASN56       0.2621
     94  O         25.0650  -27.9170   29.0060 O.2    56  ASN56      -0.2715
     95  CB        27.1420  -26.8670   27.0080 C.3    56  ASN56       0.1195
     96  CG        26.9340  -27.3890   25.6000 C.2    56  ASN56       0.2630
     97  OD1       26.2210  -28.3690   25.3870 O.2    56  ASN56      -0.2716
     98  ND2       27.5630  -26.7370   24.6290 N.am   56  ASN56      -0.0877
     99  N         23.7860  -27.3350   27.2480 N.am   57  LEU57      -0.1963
    100  CA        22.6800  -28.2190   27.6000 C.3    57  LEU57       0.1728
    101  C         23.0010  -29.6920   27.3680 C.2    57  LEU57       0.2616
    102  O         22.2110  -30.5690   27.7220 O.2    57  LEU57      -0.2715
    103  CB        21.4120  -27.8250   26.8370 C.3    57  LEU57       0.0311
    104  CG        20.5450  -26.7240   27.4550 C.3    57  LEU57       0.0022
    105  CD1       21.3980  -25.6270   28.0610 C.3    57  LEU57       0.0001
    106  CD2       19.5790  -26.1480   26.4300 C.3    57  LEU57       0.0001
    107  N         24.1600  -29.9620   26.7780 N.am   58  ASP58      -0.1971
    108  CA        24.5930  -31.3380   26.5560 C.3    58  ASP58       0.1709
    109  C         24.9500  -32.0310   27.8650 C.2    58  ASP58       0.2293
    110  O         24.7970  -33.2450   27.9940 O.2    58  ASP58      -0.2864
    111  CB        25.8010  -31.3870   25.6150 C.3    58  ASP58       0.1436
    112  CG        25.4520  -30.9990   24.1930 C.2    58  ASP58       0.3671
    113  OD1       24.2510  -30.9840   23.8540 O.co2  58  ASP58      -0.2456
    114  OD2       26.3850  -30.7210   23.4110 O.co2  58  ASP58      -0.2456
    115  N         12.5360  -25.1370   22.0040 N.3    76  SER76      -0.1203
    116  CA        12.5140  -25.4620   20.5870 C.3    76  SER76       0.2005
    117  C         13.9080  -25.9280   20.1870 C.2    76  SER76       0.2461
    118  O         14.7370  -25.1320   19.7420 O.2    76  SER76      -0.2732
    119  CB        12.0780  -24.2570   19.7540 C.3    76  SER76       0.2103
    120  OG        12.8860  -23.1300   20.0290 O.3    76  SER76      -0.2182
    121  N         14.1750  -27.2290   20.3670 N.am   77  PRO77      -0.2718
    122  CA        15.4930  -27.8330   20.1460 C.3    77  PRO77       0.1520
    123  C         15.9850  -27.6290   18.7200 C.2    77  PRO77       0.2440
    124  O         15.1690  -27.4140   17.8250 O.2    77  PRO77      -0.2731
    125  CB        15.2390  -29.3230   20.4010 C.3    77  PRO77       0.0310
    126  CG        14.0290  -29.3600   21.2780 C.3    77  PRO77       0.0237
    127  CD        13.1800  -28.2200   20.8130 C.3    77  PRO77       0.0939
    128  N         17.3090  -27.6950   18.5100 N.am   78  PRO78      -0.2727
    129  CA        17.8710  -27.6090   17.1600 C.3    78  PRO78       0.1402
    130  C         17.1250  -28.5450   16.2150 C.2    78  PRO78       0.2269
    131  O         16.8540  -29.6900   16.5770 O.2    78  PRO78      -0.2865
    132  CB        19.3110  -28.0810   17.3590 C.3    78  PRO78       0.0296
    133  CG        19.6310  -27.6930   18.7620 C.3    78  PRO78       0.0237
    134  CD        18.3520  -27.8740   19.5350 C.3    78  PRO78       0.0939
    135  N         23.7560  -32.7180   17.5380 N.3    97  ARG97      -0.1245
    136  CA        22.8970  -31.5590   17.7700 C.3    97  ARG97       0.1563
    137  C         21.6170  -31.9360   18.5110 C.2    97  ARG97       0.2260
    138  O         20.8580  -31.0660   18.9370 O.2    97  ARG97      -0.2867
    139  CB        22.5520  -30.8590   16.4550 C.3    97  ARG97       0.0307
    140  CG        23.7610  -30.4210   15.6470 C.3    97  ARG97       0.0489
    141  CD        23.8400  -31.1870   14.3400 C.3    97  ARG97       0.2205
    142  NE        23.6940  -30.3130   13.1830 N.pl3  97  ARG97      -0.0865
    143  CZ        23.3820  -30.7330   11.9610 C.cat  97  ARG97       0.5346
    144  NH1       23.1680  -32.0210   11.7290 N.pl3  97  ARG97       0.1354
    145  NH2       23.2750  -29.8600   10.9690 N.pl3  97  ARG97       0.1354
    146  N         21.6360  -32.4830   23.3350 N.3   100  SER100     -0.1217
    147  CA        21.1240  -31.6310   24.4040 C.3   100  SER100      0.1889
    148  C         19.6850  -31.9680   24.7980 C.2   100  SER100      0.2288
    149  O         19.3620  -32.0340   25.9830 O.2   100  SER100     -0.2866
    150  CB        21.2440  -30.1530   24.0190 C.3   100  SER100      0.2089
    151  OG        20.6990  -29.9130   22.7330 O.3   100  SER100     -0.2183
    152  N         18.8530  -15.1970   12.9750 N.3   297  CYS297     -0.1235
    153  CA        18.1340  -15.4150   14.2240 C.3   297  CYS297      0.1677
    154  C         16.6310  -15.4990   13.9790 C.2   297  CYS297      0.2270
    155  O         15.9650  -16.4110   14.4660 O.2   297  CYS297     -0.2867
    156  CB        18.4420  -14.2980   15.2250 C.3   297  CYS297      0.0956
    157  SG        20.1520  -14.2730   15.8120 S.3   297  CYS297     -0.0801
    158  N         15.4010  -18.5970   12.4010 N.3   300  ASN300     -0.1225
    159  CA        15.4170  -19.7280   13.3230 C.3   300  ASN300      0.1785
    160  C         14.4010  -19.6010   14.4560 C.2   300  ASN300      0.2598
    161  O         14.3040  -20.4840   15.3090 O.2   300  ASN300     -0.2718
    162  CB        16.8210  -19.9220   13.9050 C.3   300  ASN300      0.1169
    163  CG        17.7990  -20.4910   12.8970 C.2   300  ASN300      0.2627
    164  OD1       17.4400  -21.3320   12.0740 O.2   300  ASN300     -0.2716
    165  ND2       19.0450  -20.0340   12.9560 N.am  300  ASN300     -0.0877
    166  N         13.6450  -18.5070   14.4630 N.am  301  SER301     -0.1938
    167  CA        12.6920  -18.2460   15.5390 C.3   301  SER301      0.2055
    168  C         11.3790  -18.9990   15.3370 C.2   301  SER301      0.2642
    169  O         11.3660  -20.1080   14.8040 O.2   301  SER301     -0.2714
    170  CB        12.4240  -16.7460   15.6780 C.3   301  SER301      0.2130
    171  OG        11.7030  -16.2530   14.5640 O.3   301  SER301     -0.2179
    172  N         10.2770  -18.3880   15.7640 N.am  302  VAL302     -0.1977
    173  CA         8.9760  -19.0500   15.7430 C.3   302  VAL302      0.1596
    174  C          7.8470  -18.0920   15.3760 C.2   302  VAL302      0.2287
    175  O          8.0670  -16.8940   15.1920 O.2   302  VAL302     -0.2864
    176  CB         8.6430  -19.6570   17.1220 C.3   302  VAL302      0.0276
    177  CG1        9.6550  -20.7300   17.5020 C.3   302  VAL302      0.0022
    178  CG2        8.5900  -18.5650   18.1780 C.3   302  VAL302      0.0022
@<TRIPOS>BOND
     1   145   143    1
     2   144   143    1
     3   143   142    2
     4   164   163    2
     5   158   159    1
     6   163   165   am
     7   163   162    1
     8   152   153    1
     9   142   141    1
    10   159   162    1
    11   159   160    1
    12   154   153    1
    13   154   155    2
    14   153   156    1
    15   141   140    1
    16   160   166   am
    17   160   161    2
    18   166   167    1
    19   171   170    1
    20   169   168    2
    21   175   174    2
    22   156   157    1
    23   168   167    1
    24   168   172   am
    25   174   173    1
    26   167   170    1
    27   140   139    1
    28   173   172    1
    29   173   176    1
    30   130   131    2
    31   130   129    1
    32   139   136    1
    33   176   177    1
    34   176   178    1
    35   129   132    1
    36   129   128    1
    37    29    27    1
    38   132   133    1
    39    76    74   am
    40   135   136    1
    41   136   137    1
    42   124   123    2
    43    75    74    2
    44    28    26    1
    45    74    73    1
    46   128   123   am
    47   128   134    1
    48   137   138    2
    49    27    26    1
    50   123   122    1
    51   133   134    1
    52    26    23    1
    53    77    78    1
    54   118   117    2
    55   119   120    1
    56   119   116    1
    57    73    70    1
    58    81    78    1
    59    78    79    1
    60   122   121    1
    61   122   125    1
    62   117   121   am
    63   117   116    1
    64   121   127    1
    65   125   126    1
    66    22    23    1
    67    22    20   am
    68   116   115    1
    69    23    24    1
    70    70    71    1
    71    70    69    1
    72    31    30    1
    73    31    32    1
    74   127   126    1
    75    19    20    1
    76    19    18    1
    77    20    21    2
    78    79    80    2
    79    71    72    2
    80    24    25    2
    81    32    33    2
    82    32    34   am
    83    69    63   am
    84    68    66    1
    85    60    58   ar
    86    41    39    1
    87    59    58   ar
    88    18    14   am
    89     4     3    2
    90    66    65    1
    91    64    63    2
    92    34    35    1
    93     5     6    1
    94     5     2    1
    95    15    14    2
    96    58    57    1
    97    63    62    1
    98   151   150    1
    99     7     6   ar
   100     7     9   ar
   101    14    13    1
   102     6     8   ar
   103    39    40    1
   104    39    38    1
   105     9    11   ar
   106     3     2    1
   107     3    12   am
   108   146   147    1
   109    35    38    1
   110    35    36    1
   111   114   112   ar
   112     2     1    1
   113     8    10   ar
   114    65    62    1
   115    65    67    1
   116    11    10   ar
   117    62    61    1
   118   113   112   ar
   119    61    55   am
   120   150   147    1
   121    57    54    1
   122    12    13    1
   123    13    16    1
   124   112   111    1
   125   147   148    1
   126    36    37    2
   127    98    96   am
   128   148   149    2
   129    55    54    1
   130    55    56    2
   131    54    53    1
   132    16    17    1
   133    97    96    2
   134    96    95    1
   135   111   108    1
   136    45    44    2
   137    53    44   am
   138   106   104    1
   139   108   107    1
   140   108   109    1
   141    44    43    1
   142   107   101   am
   143   103   104    1
   144   103   100    1
   145    95    92    1
   146    99   100    1
   147    99    93   am
   148   101   100    1
   149   101   102    2
   150   104   105    1
   151    92    93    1
   152    92    91    1
   153   109   110    2
   154    93    94    2
   155    43    42    1
   156    43    46    1
   157    91    84   am
   158    46    47    1
   159    85    84    2
   160    84    83    1
   161    82    83    1
   162    83    86    1
   163    47    48   ar
   164    47    49   ar
   165    48    50   ar
   166    49    51   ar
   167    86    87    1
   168    87    88    1
   169    50    52   ar
   170    88    89    1
   171    51    52   ar
   172    89    90    1
