@<TRIPOS>MOLECULE
tmp/3qv4B00.pdb
 142 141 0 0 0
SMALL
GASTEIGER

@<TRIPOS>ATOM
      1  N         -7.4260  -34.3240  -68.5580 N.3    37  HIS37      -0.1226
      2  CA        -8.7650  -33.8820  -68.8830 C.3    37  HIS37       0.1752
      3  C         -9.4390  -35.1870  -69.2810 C.2    37  HIS37       0.2597
      4  O         -8.7840  -36.0760  -69.8260 O.2    37  HIS37      -0.2718
      5  CB        -8.7600  -32.7600  -69.9670 C.3    37  HIS37       0.0759
      6  CG        -8.5670  -33.2110  -71.3850 C.ar   37  HIS37       0.0818
      7  ND1       -7.7810  -34.2860  -71.7320 N.ar   37  HIS37      -0.2268
      8  CD2       -8.9820  -32.6570  -72.5530 C.ar   37  HIS37       0.1154
      9  CE1       -7.7180  -34.3760  -73.0490 C.ar   37  HIS37       0.1986
     10  NE2       -8.4380  -33.4000  -73.5710 N.ar   37  HIS37      -0.2212
     11  N        -10.7110  -35.3530  -68.9420 N.am   38  THR38      -0.1939
     12  CA       -11.4100  -36.5980  -69.2490 C.3    38  THR38       0.2028
     13  C        -11.6090  -36.8460  -70.7450 C.2    38  THR38       0.2642
     14  O        -11.6530  -38.0030  -71.1970 O.2    38  THR38      -0.2714
     15  CB       -12.7960  -36.6260  -68.5650 C.3    38  THR38       0.1808
     16  OG1      -13.6000  -35.5520  -69.0750 O.3    38  THR38      -0.2208
     17  CG2      -12.6630  -36.4660  -67.0640 C.3    38  THR38       0.0379
     18  N        -11.7130  -35.7460  -71.4890 N.am   39  ALA39      -0.1977
     19  CA       -11.9320  -35.7310  -72.9350 C.3    39  ALA39       0.1597
     20  C        -13.3370  -36.2240  -73.2520 C.2    39  ALA39       0.2287
     21  O        -13.5970  -36.7680  -74.3300 O.2    39  ALA39      -0.2864
     22  CB       -10.8980  -36.5760  -73.6510 C.3    39  ALA39       0.0319
     23  N        -18.0310  -45.6910  -67.1220 N.3    59  TYR59      -0.1227
     24  CA       -17.2640  -46.1950  -68.2420 C.3    59  TYR59       0.1736
     25  C        -16.0400  -46.9390  -67.7160 C.2    59  TYR59       0.2595
     26  O        -15.5730  -47.8920  -68.3400 O.2    59  TYR59      -0.2718
     27  CB       -16.8400  -45.0540  -69.1680 C.3    59  TYR59       0.0548
     28  CG       -15.9010  -45.4970  -70.2680 C.ar   59  TYR59      -0.0200
     29  CD1      -16.3700  -46.1910  -71.3860 C.ar   59  TYR59      -0.0009
     30  CD2      -14.5350  -45.2400  -70.1790 C.ar   59  TYR59      -0.0009
     31  CE1      -15.4990  -46.6170  -72.3880 C.ar   59  TYR59       0.0417
     32  CE2      -13.6580  -45.6610  -71.1710 C.ar   59  TYR59       0.0417
     33  CZ       -14.1460  -46.3490  -72.2740 C.ar   59  TYR59       0.1957
     34  OH       -13.2720  -46.7580  -73.2550 O.3    59  TYR59      -0.2866
     35  N        -15.5260  -46.5120  -66.5660 N.am   60  HIS60      -0.1975
     36  CA       -14.3590  -47.1580  -65.9800 C.3    60  HIS60       0.1656
     37  C        -14.6920  -48.4500  -65.2640 C.2    60  HIS60       0.2291
     38  O        -13.8550  -49.3490  -65.1730 O.2    60  HIS60      -0.2864
     39  CB       -13.6780  -46.2420  -64.9770 C.3    60  HIS60       0.0771
     40  CG       -13.0260  -45.0490  -65.5910 C.ar   60  HIS60       0.0820
     41  ND1      -12.2240  -44.1900  -64.8690 N.ar   60  HIS60      -0.2267
     42  CD2      -13.0630  -44.5670  -66.8550 C.ar   60  HIS60       0.1154
     43  CE1      -11.7940  -43.2280  -65.6660 C.ar   60  HIS60       0.1986
     44  NE2      -12.2890  -43.4340  -66.8760 N.ar   60  HIS60      -0.2212
     45  N        -14.2940  -50.7960  -68.5290 N.3    64  LEU64      -0.1245
     46  CA       -12.8740  -51.0820  -68.3830 C.3    64  LEU64       0.1561
     47  C        -12.5660  -52.1180  -67.3120 C.2    64  LEU64       0.2260
     48  O        -11.4550  -52.6440  -67.2450 O.2    64  LEU64      -0.2867
     49  CB       -12.1180  -49.7900  -68.0960 C.3    64  LEU64       0.0270
     50  CG       -12.1770  -48.7680  -69.2420 C.3    64  LEU64       0.0019
     51  CD1      -11.3530  -47.5390  -68.8880 C.3    64  LEU64       0.0001
     52  CD2      -11.6720  -49.4130  -70.5180 C.3    64  LEU64       0.0001
     53  N        -12.3510  -51.5950  -64.1040 N.3    66  TRP66      -0.1241
     54  CA       -11.6500  -51.0340  -62.9470 C.3    66  TRP66       0.1605
     55  C        -12.4460  -51.0910  -61.6480 C.2    66  TRP66       0.2264
     56  O        -13.6700  -51.1850  -61.6640 O.2    66  TRP66      -0.2867
     57  CB       -11.2430  -49.5850  -63.2120 C.3    66  TRP66       0.0550
     58  CG       -10.1900  -49.4400  -64.2530 C.ar   66  TRP66       0.0003
     59  CD1       -9.4560  -50.4410  -64.8180 C.ar   66  TRP66       0.0946
     60  CD2       -9.7720  -48.2250  -64.8860 C.ar   66  TRP66       0.0152
     61  NE1       -8.6090  -49.9290  -65.7730 N.ar   66  TRP66      -0.2442
     62  CE2       -8.7810  -48.5710  -65.8370 C.ar   66  TRP66       0.0810
     63  CE3      -10.1370  -46.8780  -64.7440 C.ar   66  TRP66       0.0012
     64  CZ2       -8.1500  -47.6170  -66.6480 C.ar   66  TRP66       0.0191
     65  CZ3       -9.5060  -45.9260  -65.5520 C.ar   66  TRP66       0.0001
     66  CH2       -8.5230  -46.3050  -66.4920 C.ar   66  TRP66       0.0015
     67  N         -9.5860  -41.5140  -61.5690 N.3    71  TYR71      -0.1241
     68  CA        -9.0720  -40.3350  -60.8660 C.3    71  TYR71       0.1605
     69  C         -9.3340  -40.2040  -59.3640 C.2    71  TYR71       0.2264
     70  O        -10.3350  -40.6780  -58.8330 O.2    71  TYR71      -0.2867
     71  CB        -9.5970  -39.0780  -61.5590 C.3    71  TYR71       0.0534
     72  CG        -9.6410  -39.1910  -63.0620 C.ar   71  TYR71      -0.0201
     73  CD1      -10.8490  -39.3170  -63.7340 C.ar   71  TYR71      -0.0009
     74  CD2       -8.4730  -39.1550  -63.8130 C.ar   71  TYR71      -0.0009
     75  CE1      -10.8980  -39.3970  -65.1180 C.ar   71  TYR71       0.0417
     76  CE2       -8.5060  -39.2380  -65.2000 C.ar   71  TYR71       0.0417
     77  CZ        -9.7190  -39.3570  -65.8490 C.ar   71  TYR71       0.1957
     78  OH        -9.7470  -39.4320  -67.2290 O.3    71  TYR71      -0.2866
     79  N         -4.4850  -43.4060  -63.5220 N.3    93  HIS93      -0.1241
     80  CA        -4.8020  -42.3310  -64.3990 C.3    93  HIS93       0.1621
     81  C         -3.6330  -41.8970  -65.1670 C.2    93  HIS93       0.2264
     82  O         -3.7810  -41.1150  -66.0550 O.2    93  HIS93      -0.2867
     83  CB        -5.2720  -41.1570  -63.5820 C.3    93  HIS93       0.0745
     84  CG        -4.3380  -40.8130  -62.4840 C.ar   93  HIS93       0.0817
     85  ND1       -4.5290  -41.2320  -61.1990 N.ar   93  HIS93      -0.2268
     86  CD2       -3.1660  -40.1530  -62.4940 C.ar   93  HIS93       0.1154
     87  CE1       -3.5220  -40.8280  -60.4560 C.ar   93  HIS93       0.1986
     88  NE2       -2.6830  -40.1680  -61.2210 N.ar   93  HIS93      -0.2212
     89  N        -13.1660  -31.3850  -72.8390 N.3   110  ASN110     -0.1240
     90  CA       -12.0440  -31.5140  -73.7520 C.3   110  ASN110      0.1653
     91  C        -11.4580  -30.1310  -73.7110 C.2   110  ASN110      0.2266
     92  O        -12.1780  -29.1600  -73.8890 O.2   110  ASN110     -0.2867
     93  CB       -12.5130  -31.8260  -75.1720 C.3   110  ASN110      0.1155
     94  CG       -11.4040  -32.4190  -76.0320 C.2   110  ASN110      0.2627
     95  OD1      -10.2360  -32.0430  -75.9030 O.2   110  ASN110     -0.2716
     96  ND2      -11.7680  -33.3370  -76.9240 N.am  110  ASN110     -0.0877
     97  N         -8.7120  -29.0920  -75.5690 N.3   112  MET112     -0.1245
     98  CA        -7.8040  -29.0140  -76.6940 C.3   112  MET112      0.1570
     99  C         -8.0630  -27.6850  -77.3900 C.2   112  MET112      0.2261
    100  O         -7.1330  -26.9730  -77.7650 O.2   112  MET112     -0.2867
    101  CB        -8.0900  -30.1650  -77.6650 C.3   112  MET112      0.0387
    102  CG        -7.1500  -31.3590  -77.5670 C.3   112  MET112      0.0595
    103  SD        -5.5050  -30.8910  -78.1090 S.3   112  MET112     -0.1393
    104  CE        -4.5360  -31.6120  -76.8830 C.3   112  MET112      0.0692
    105  N         -0.4430  -34.4090  -67.9780 N.3   146  HIS146     -0.1241
    106  CA        -0.5390  -35.7860  -68.4510 C.3   146  HIS146      0.1621
    107  C          0.4840  -36.0450  -69.5600 C.2   146  HIS146      0.2264
    108  O          1.0860  -37.1170  -69.6170 O.2   146  HIS146     -0.2867
    109  CB        -1.9570  -36.0850  -68.9570 C.3   146  HIS146      0.0745
    110  CG        -2.3360  -37.5350  -68.8790 C.ar  146  HIS146      0.0817
    111  ND1       -3.5430  -38.0140  -69.3410 N.ar  146  HIS146     -0.2268
    112  CD2       -1.6670  -38.6100  -68.3970 C.ar  146  HIS146      0.1154
    113  CE1       -3.6000  -39.3200  -69.1510 C.ar  146  HIS146      0.1986
    114  NE2       -2.4740  -39.7070  -68.5800 N.ar  146  HIS146     -0.2212
    115  N          2.5530  -40.4650  -73.1480 N.3   151  PRO151     -0.2102
    116  CA         2.0800  -40.0360  -74.4650 C.3   151  PRO151      0.1504
    117  C          0.5620  -39.8560  -74.5450 C.2   151  PRO151      0.2576
    118  O         -0.1730  -40.8240  -74.7430 O.2   151  PRO151     -0.2718
    119  CB         2.6000  -41.1420  -75.3970 C.3   151  PRO151      0.0282
    120  CG         2.8800  -42.3140  -74.4580 C.3   151  PRO151      0.0208
    121  CD         3.4520  -41.6220  -73.2670 C.3   151  PRO151      0.0893
    122  N          0.1120  -38.6140  -74.3620 N.am  152  THR152     -0.1939
    123  CA        -1.3090  -38.2520  -74.4300 C.3   152  THR152      0.2028
    124  C         -1.4760  -36.8070  -74.8450 C.2   152  THR152      0.2642
    125  O         -0.6540  -35.9520  -74.5150 O.2   152  THR152     -0.2714
    126  CB        -2.0570  -38.3650  -73.0700 C.3   152  THR152      0.1808
    127  OG1       -1.1140  -38.3950  -71.9890 O.3   152  THR152     -0.2208
    128  CG2       -2.9500  -39.5910  -73.0460 C.3   152  THR152      0.0379
    129  N         -2.5540  -36.5290  -75.5570 N.am  153  LEU153     -0.1963
    130  CA        -2.8180  -35.1690  -75.9550 C.3   153  LEU153      0.1728
    131  C         -3.4500  -34.5020  -74.7230 C.2   153  LEU153      0.2616
    132  O         -3.5450  -33.2730  -74.6450 O.2   153  LEU153     -0.2715
    133  CB        -3.7390  -35.1670  -77.1750 C.3   153  LEU153      0.0311
    134  CG        -3.3940  -34.1920  -78.3250 C.3   153  LEU153      0.0022
    135  CD1       -1.9360  -34.3070  -78.7120 C.3   153  LEU153      0.0001
    136  CD2       -4.2770  -34.4690  -79.5220 C.3   153  LEU153      0.0001
    137  N         -3.8380  -35.3330  -73.7510 N.am  154  SER154     -0.1950
    138  CA        -4.4130  -34.8790  -72.4880 C.3   154  SER154      0.1924
    139  C         -3.3720  -34.0260  -71.7640 C.2   154  SER154      0.2314
    140  O         -2.1870  -34.3250  -71.8490 O.2   154  SER154     -0.2863
    141  CB        -4.7920  -36.1040  -71.6390 C.3   154  SER154      0.2116
    142  OG        -4.8400  -35.8080  -70.2560 O.3   154  SER154     -0.2180
@<TRIPOS>BOND
     1   136   134    1
     2   135   134    1
     3   134   133    1
     4   103   102    1
     5   103   104    1
     6   100    99    2
     7   101   102    1
     8   101    98    1
     9    99    98    1
    10   133   130    1
    11    96    94   am
    12    98    97    1
    13    94    95    2
    14    94    93    1
    15   130   129    1
    16   130   131    1
    17   129   124   am
    18   119   116    1
    19   119   120    1
    20    93    90    1
    21   124   125    2
    22   124   123    1
    23   118   117    2
    24   131   132    2
    25   131   137   am
    26   117   116    1
    27   117   122   am
    28   116   115    1
    29   120   121    1
    30   123   122    1
    31   123   126    1
    32    21    20    2
    33    92    91    2
    34    90    91    1
    35    90    89    1
    36   137   138    1
    37    22    19    1
    38    10     9   ar
    39    10     8   ar
    40   121   115    1
    41    34    33    1
    42    20    19    1
    43   126   128    1
    44   126   127    1
    45     9     7   ar
    46    19    18    1
    47     8     6   ar
    48   138   139    1
    49   138   141    1
    50    31    33   ar
    51    31    29   ar
    52    33    32   ar
    53   140   139    2
    54     7     6   ar
    55   141   142    1
    56    18    13   am
    57    29    28   ar
    58     6     5    1
    59    14    13    2
    60    32    30   ar
    61    13    12    1
    62    52    50    1
    63    28    30   ar
    64    28    27    1
    65     5     2    1
    66     4     3    2
    67   108   107    2
    68   107   106    1
    69   111   113   ar
    70   111   110   ar
    71     3    11   am
    72     3     2    1
    73    12    11    1
    74    12    15    1
    75    50    51    1
    76    50    49    1
    77    27    24    1
    78   113   114   ar
    79    16    15    1
    80   109   110    1
    81   109   106    1
    82     2     1    1
    83   110   112   ar
    84   114   112   ar
    85    15    17    1
    86    45    46    1
    87   106   105    1
    88    46    49    1
    89    46    47    1
    90    26    25    2
    91    24    25    1
    92    24    23    1
    93    25    35   am
    94    47    48    2
    95    78    77    1
    96    44    42   ar
    97    44    43   ar
    98    42    40   ar
    99    64    66   ar
   100    64    62   ar
   101    35    36    1
   102    66    65   ar
   103    82    81    2
   104    36    37    1
   105    36    39    1
   106    77    76   ar
   107    77    75   ar
   108    62    61   ar
   109    62    60   ar
   110    61    59   ar
   111    43    41   ar
   112    40    39    1
   113    40    41   ar
   114    65    63   ar
   115    37    38    2
   116    76    74   ar
   117    81    80    1
   118    75    73   ar
   119    60    63   ar
   120    60    58   ar
   121    59    58   ar
   122    80    83    1
   123    80    79    1
   124    58    57    1
   125    53    54    1
   126    74    72   ar
   127    73    72   ar
   128    83    84    1
   129    57    54    1
   130    72    71    1
   131    54    55    1
   132    86    84   ar
   133    86    88   ar
   134    84    85   ar
   135    56    55    2
   136    67    68    1
   137    71    68    1
   138    88    87   ar
   139    85    87   ar
   140    68    69    1
   141    69    70    2
