@<TRIPOS>MOLECULE
tmp/3qv6A00.pdb
 121 116 0 0 0
SMALL
GASTEIGER

@<TRIPOS>ATOM
      1  N         25.1020  -40.4890  -35.8030 N.3    26  THR26      -0.1203
      2  CA        25.6400  -41.5770  -36.6060 C.3    26  THR26       0.1994
      3  C         26.6640  -41.0190  -37.5890 C.2    26  THR26       0.2618
      4  O         26.3720  -40.0870  -38.3470 O.2    26  THR26      -0.2717
      5  CB        24.5220  -42.3200  -37.3600 C.3    26  THR26       0.1784
      6  OG1       23.6240  -42.9020  -36.4100 O.3    26  THR26      -0.2211
      7  CG2       25.0870  -43.4190  -38.2530 C.3    26  THR26       0.0376
      8  N         27.8650  -41.5920  -37.5610 N.am   27  ILE27      -0.1965
      9  CA        28.9580  -41.1590  -38.4270 C.3    27  ILE27       0.1727
     10  C         28.8710  -41.8540  -39.7860 C.2    27  ILE27       0.2617
     11  O         28.6910  -43.0730  -39.8680 O.2    27  ILE27      -0.2715
     12  CB        30.3530  -41.4180  -37.7760 C.3    27  ILE27       0.0290
     13  CG1       30.3950  -40.9410  -36.3100 C.3    27  ILE27       0.0022
     14  CG2       31.4810  -40.8040  -38.6120 C.3    27  ILE27       0.0023
     15  CD1       30.0520  -39.4660  -36.0820 C.3    27  ILE27       0.0001
     16  N         28.9870  -41.0620  -40.8470 N.am   28  GLY28      -0.1941
     17  CA        29.0020  -41.5750  -42.2120 C.3    28  GLY28       0.1998
     18  C         29.8280  -40.6650  -43.1010 C.2    28  GLY28       0.2481
     19  O         30.4320  -39.7110  -42.6080 O.2    28  GLY28      -0.2729
     20  N         29.8500  -40.9370  -44.4200 N.am   29  PRO29      -0.2715
     21  CA        30.6790  -40.1730  -45.3600 C.3    29  PRO29       0.1536
     22  C         30.4970  -38.6610  -45.2510 C.2    29  PRO29       0.2599
     23  O         31.4100  -37.9050  -45.5820 O.2    29  PRO29      -0.2715
     24  CB        30.1930  -40.6600  -46.7260 C.3    29  PRO29       0.0310
     25  CG        29.7290  -42.0290  -46.4720 C.3    29  PRO29       0.0237
     26  CD        29.0990  -42.0020  -45.1090 C.3    29  PRO29       0.0939
     27  N         29.3310  -38.2380  -44.7740 N.am   30  SER30      -0.1950
     28  CA        29.0110  -36.8240  -44.6330 C.3    30  SER30       0.1924
     29  C         29.7070  -36.1860  -43.4260 C.2    30  SER30       0.2314
     30  O         29.7940  -34.9570  -43.3400 O.2    30  SER30      -0.2863
     31  CB        27.4940  -36.6470  -44.5270 C.3    30  SER30       0.2116
     32  OG        27.0790  -35.3920  -45.0220 O.3    30  SER30      -0.2180
     33  N         28.0980  -42.5770  -33.0740 N.3    49  ARG49      -0.1245
     34  CA        27.5910  -43.9250  -33.3190 C.3    49  ARG49       0.1563
     35  C         28.1070  -44.5050  -34.6350 C.2    49  ARG49       0.2260
     36  O         27.9430  -43.8970  -35.6930 O.2    49  ARG49      -0.2867
     37  CB        26.0620  -43.9200  -33.3110 C.3    49  ARG49       0.0307
     38  CG        25.4330  -45.2290  -33.7290 C.3    49  ARG49       0.0489
     39  CD        23.9480  -45.0660  -33.9330 C.3    49  ARG49       0.2205
     40  NE        23.3320  -46.2750  -34.4730 N.pl3  49  ARG49      -0.0865
     41  CZ        22.9570  -46.4360  -35.7400 C.cat  49  ARG49       0.5346
     42  NH1       23.1220  -45.4610  -36.6230 N.pl3  49  ARG49       0.1354
     43  NH2       22.4070  -47.5790  -36.1270 N.pl3  49  ARG49       0.1354
     44  N         27.6140  -47.4840  -37.3170 N.3    51  ASN51      -0.1240
     45  CA        26.6700  -48.5090  -37.7540 C.3    51  ASN51       0.1653
     46  C         27.3850  -49.6660  -38.4510 C.2    51  ASN51       0.2266
     47  O         27.6990  -49.5950  -39.6410 O.2    51  ASN51      -0.2867
     48  CB        25.5780  -47.9100  -38.6470 C.3    51  ASN51       0.1155
     49  CG        24.4450  -48.8880  -38.9380 C.2    51  ASN51       0.2627
     50  OD1       24.4020  -50.0020  -38.4070 O.2    51  ASN51      -0.2716
     51  ND2       23.5130  -48.4670  -39.7810 N.am   51  ASN51      -0.0877
     52  N         27.1850  -51.6590  -42.0500 N.3    54  HIS54      -0.1226
     53  CA        27.8500  -51.2110  -43.2660 C.3    54  HIS54       0.1752
     54  C         29.2530  -50.6940  -42.9670 C.2    54  HIS54       0.2596
     55  O         29.5050  -50.1400  -41.8920 O.2    54  HIS54      -0.2718
     56  CB        27.0080  -50.1360  -43.9490 C.3    54  HIS54       0.0759
     57  CG        25.5790  -50.5360  -44.1500 C.ar   54  HIS54       0.0818
     58  ND1       24.5750  -50.1800  -43.2740 N.ar   54  HIS54      -0.2268
     59  CD2       24.9920  -51.2900  -45.1090 C.ar   54  HIS54       0.1154
     60  CE1       23.4280  -50.6850  -43.6940 C.ar   54  HIS54       0.1986
     61  NE2       23.6530  -51.3610  -44.8060 N.ar   54  HIS54      -0.2212
     62  N         30.1640  -50.8850  -43.9180 N.am   55  GLY55      -0.1957
     63  CA        31.5590  -50.4880  -43.7490 C.3    55  GLY55       0.1869
     64  C         32.3940  -51.5390  -43.0400 C.2    55  GLY55       0.2309
     65  O         31.9130  -52.2320  -42.1380 O.2    55  GLY55      -0.2863
     66  N         37.0810  -49.0950  -42.1440 N.3    59  TYR59      -0.1241
     67  CA        36.2160  -47.9200  -42.1950 C.3    59  TYR59       0.1605
     68  C         35.9050  -47.3830  -40.8050 C.2    59  TYR59       0.2264
     69  O         35.9870  -46.1770  -40.5650 O.2    59  TYR59      -0.2867
     70  CB        34.9130  -48.2250  -42.9310 C.3    59  TYR59       0.0534
     71  CG        34.0220  -47.0120  -43.0880 C.ar   59  TYR59      -0.0201
     72  CD1       34.2590  -46.0790  -44.0950 C.ar   59  TYR59      -0.0009
     73  CD2       32.9500  -46.7900  -42.2220 C.ar   59  TYR59      -0.0009
     74  CE1       33.4490  -44.9610  -44.2410 C.ar   59  TYR59       0.0417
     75  CE2       32.1340  -45.6730  -42.3600 C.ar   59  TYR59       0.0417
     76  CZ        32.3890  -44.7660  -43.3720 C.ar   59  TYR59       0.1957
     77  OH        31.5890  -43.6600  -43.5230 O.3    59  TYR59      -0.2866
     78  N         13.9960  -53.5820  -47.3240 N.3   145  ASP145     -0.1239
     79  CA        13.5190  -52.4830  -46.4730 C.3   145  ASP145      0.1674
     80  C         11.9940  -52.3420  -46.4280 C.2   145  ASP145      0.2266
     81  O         11.4700  -51.2360  -46.2870 O.2   145  ASP145     -0.2867
     82  CB        14.1610  -51.1490  -46.8810 C.3   145  ASP145      0.1410
     83  CG        15.6290  -51.0730  -46.5190 C.2   145  ASP145      0.3668
     84  OD1       16.4470  -51.7470  -47.1820 O.co2 145  ASP145     -0.2456
     85  OD2       15.9660  -50.3310  -45.5730 O.co2 145  ASP145     -0.2456
     86  N         17.7990  -33.9340  -46.5260 N.3   304  TYR304     -0.1241
     87  CA        17.8980  -33.2940  -47.8370 C.3   304  TYR304      0.1605
     88  C         17.3780  -31.8520  -47.8550 C.2   304  TYR304      0.2264
     89  O         17.7210  -31.0820  -48.7560 O.2   304  TYR304     -0.2867
     90  CB        17.1920  -34.1440  -48.9070 C.3   304  TYR304      0.0534
     91  CG        17.6810  -35.5800  -48.9760 C.ar  304  TYR304     -0.0201
     92  CD1       19.0000  -35.8780  -49.3480 C.ar  304  TYR304     -0.0009
     93  CD2       16.8250  -36.6440  -48.6690 C.ar  304  TYR304     -0.0009
     94  CE1       19.4550  -37.2000  -49.4090 C.ar  304  TYR304      0.0417
     95  CE2       17.2680  -37.9720  -48.7310 C.ar  304  TYR304      0.0417
     96  CZ        18.5820  -38.2410  -49.1010 C.ar  304  TYR304      0.1957
     97  OH        19.0210  -39.5440  -49.1620 O.3   304  TYR304     -0.2866
     98  N         20.4270  -40.4680  -37.3400 N.3   330  SER330     -0.1202
     99  CA        20.9250  -41.5580  -38.1750 C.3   330  SER330      0.2020
    100  C         21.4750  -41.0180  -39.4910 C.2   330  SER330      0.2619
    101  O         22.6050  -40.5350  -39.5390 O.2   330  SER330     -0.2717
    102  CB        19.8320  -42.6060  -38.4210 C.3   330  SER330      0.2103
    103  OG        19.4910  -43.2910  -37.2260 O.3   330  SER330     -0.2182
    104  N         20.6690  -41.0860  -40.5480 N.am  331  GLY331     -0.1956
    105  CA        21.0770  -40.6160  -41.8670 C.3   331  GLY331      0.1869
    106  C         21.2410  -39.1110  -41.9670 C.2   331  GLY331      0.2309
    107  O         21.8470  -38.6130  -42.9140 O.2   331  GLY331     -0.2863
    108  N         24.8800  -38.9250  -41.0630 N.3   334  ALA334     -0.1231
    109  CA        25.7150  -39.8900  -41.7740 C.3   334  ALA334      0.1694
    110  C         25.8610  -39.5820  -43.2650 C.2   334  ALA334      0.2591
    111  O         26.9510  -39.7060  -43.8250 O.2   334  ALA334     -0.2718
    112  CB        25.1890  -41.3030  -41.5690 C.3   334  ALA334      0.0304
    113  N         24.7640  -39.1800  -43.9010 N.am  335  LYS335     -0.1980
    114  CA        24.7530  -38.9450  -45.3430 C.3   335  LYS335      0.1596
    115  C         24.0540  -37.6340  -45.7310 C.2   335  LYS335      0.2287
    116  O         23.9960  -37.2840  -46.9090 O.2   335  LYS335     -0.2864
    117  CB        24.1200  -40.1410  -46.0710 C.3   335  LYS335      0.0298
    118  CG        22.6710  -40.4240  -45.6850 C.3   335  LYS335      0.0038
    119  CD        22.0760  -41.5430  -46.5120 C.3   335  LYS335      0.0206
    120  CE        20.5660  -41.5790  -46.3700 C.3   335  LYS335      0.1093
    121  NZ        19.9530  -42.5390  -47.3200 N.3   335  LYS335     -0.1314
@<TRIPOS>BOND
     1    94    92   ar
     2    94    96   ar
     3    92    91   ar
     4    97    96    1
     5    96    95   ar
     6    91    90    1
     7    91    93   ar
     8    90    87    1
     9    89    88    2
    10    95    93   ar
    11    88    87    1
    12    87    86    1
    13    78    79    1
    14   121   120    1
    15    84    83   ar
    16   116   115    2
    17    82    83    1
    18    82    79    1
    19    24    25    1
    20    24    21    1
    21    83    85   ar
    22   119   120    1
    23   119   118    1
    24    79    80    1
    25    25    26    1
    26    80    81    2
    27   117   118    1
    28   117   114    1
    29   115   114    1
    30    23    22    2
    31    21    22    1
    32    21    20    1
    33   114   113    1
    34    22    27   am
    35    26    20    1
    36    59    61   ar
    37    59    57   ar
    38    32    31    1
    39    61    60   ar
    40    27    28    1
    41    28    31    1
    42    28    29    1
    43    20    18   am
    44    74    72   ar
    45    74    76   ar
    46    57    56    1
    47    57    58   ar
    48    72    71   ar
    49    56    53    1
    50    62    63    1
    51    62    54   am
    52   113   110   am
    53   111   110    2
    54    63    64    1
    55    60    58   ar
    56    77    76    1
    57    29    30    2
    58    76    75   ar
    59    53    54    1
    60    53    52    1
    61   110   109    1
    62    18    19    2
    63    18    17    1
    64    71    70    1
    65    71    73   ar
    66    64    65    2
    67    54    55    2
    68    70    67    1
    69   107   106    2
    70    75    73   ar
    71    17    16    1
    72    67    66    1
    73    67    68    1
    74   106   105    1
    75   105   104    1
    76   109   112    1
    77   109   108    1
    78    16    10   am
    79    68    69    2
    80   104   100   am
    81    11    10    2
    82    10     9    1
    83    51    49   am
    84    47    46    2
    85   101   100    2
    86   100    99    1
    87    49    48    1
    88    49    50    2
    89    48    45    1
    90    14    12    1
    91    46    45    1
    92     9    12    1
    93     9     8    1
    94   102    99    1
    95   102   103    1
    96     4     3    2
    97     7     5    1
    98    99    98    1
    99    12    13    1
   100    45    44    1
   101     3     8   am
   102     3     2    1
   103     5     2    1
   104     5     6    1
   105    42    41    1
   106     2     1    1
   107    13    15    1
   108    43    41    1
   109    41    40    2
   110    36    35    2
   111    35    34    1
   112    40    39    1
   113    39    38    1
   114    38    37    1
   115    34    37    1
   116    34    33    1
