@<TRIPOS>MOLECULE
tmp/3qv8A00.pdb
 91 87 0 0 0
SMALL
GASTEIGER

@<TRIPOS>ATOM
      1  N        -17.2850  -27.7630    7.9140 N.3    26  THR26      -0.1203
      2  CA       -16.3170  -26.6910    8.0870 C.3    26  THR26       0.1994
      3  C        -14.9280  -27.3250    8.1030 C.2    26  THR26       0.2618
      4  O        -14.6810  -28.3420    8.7740 O.2    26  THR26      -0.2717
      5  CB       -16.5650  -25.8410    9.3600 C.3    26  THR26       0.1784
      6  OG1      -17.9470  -25.4690    9.4370 O.3    26  THR26      -0.2211
      7  CG2      -15.7050  -24.5710    9.3400 C.3    26  THR26       0.0376
      8  N        -14.0450  -26.7220    7.3200 N.am   27  ILE27      -0.1965
      9  CA       -12.6780  -27.1910    7.1720 C.3    27  ILE27       0.1727
     10  C        -11.7360  -26.4480    8.1220 C.2    27  ILE27       0.2617
     11  O        -11.7680  -25.2100    8.2230 O.2    27  ILE27      -0.2715
     12  CB       -12.1980  -27.0520    5.6930 C.3    27  ILE27       0.0290
     13  CG1      -13.1820  -27.7570    4.7460 C.3    27  ILE27       0.0022
     14  CG2      -10.7590  -27.5920    5.5170 C.3    27  ILE27       0.0023
     15  CD1      -13.6140  -29.1640    5.2190 C.3    27  ILE27       0.0001
     16  N        -10.9180  -27.2280    8.8220 N.am   28  GLY28      -0.1941
     17  CA        -9.8250  -26.6930    9.6280 C.3    28  GLY28       0.1998
     18  C         -8.7390  -27.7270    9.8940 C.2    28  GLY28       0.2480
     19  O         -8.7060  -28.7830    9.2430 O.2    28  GLY28      -0.2729
     20  N         -7.8550  -27.4440   10.8750 N.am   29  PRO29      -0.2726
     21  CA        -6.7130  -28.2870   11.2180 C.3    29  PRO29       0.1402
     22  C         -6.9400  -29.7660   10.9420 C.2    29  PRO29       0.2269
     23  O         -6.1300  -30.3710   10.2490 O.2    29  PRO29      -0.2865
     24  CB        -6.5480  -28.0380   12.7180 C.3    29  PRO29       0.0296
     25  CG        -6.9650  -26.6030   12.8880 C.3    29  PRO29       0.0237
     26  CD        -7.9330  -26.2690   11.7680 C.3    29  PRO29       0.0939
     27  N        -17.0410  -25.6130    3.8680 N.3    49  ARG49      -0.1245
     28  CA       -17.1660  -24.2710    4.4320 C.3    49  ARG49       0.1563
     29  C        -15.8450  -23.7850    5.0380 C.2    49  ARG49       0.2260
     30  O        -15.2090  -24.4740    5.8580 O.2    49  ARG49      -0.2867
     31  CB       -18.2730  -24.2480    5.4890 C.3    49  ARG49       0.0307
     32  CG       -18.4390  -22.9330    6.2370 C.3    49  ARG49       0.0489
     33  CD       -19.3590  -23.1420    7.4220 C.3    49  ARG49       0.2205
     34  NE       -19.5010  -21.9490    8.2580 N.pl3  49  ARG49      -0.0865
     35  CZ       -19.0010  -21.8210    9.4870 C.cat  49  ARG49       0.5346
     36  NH1      -18.3190  -22.8060   10.0620 N.pl3  49  ARG49       0.1354
     37  NH2      -19.1950  -20.6990   10.1490 N.pl3  49  ARG49       0.1354
     38  N        -14.3630  -20.8380    7.3340 N.3    51  ASN51      -0.1240
     39  CA       -14.7610  -19.8470    8.3150 C.3    51  ASN51       0.1653
     40  C        -13.7610  -18.7000    8.3610 C.2    51  ASN51       0.2266
     41  O        -12.7550  -18.7870    9.0430 O.2    51  ASN51      -0.2867
     42  CB       -14.8850  -20.5070    9.6890 C.3    51  ASN51       0.1155
     43  CG       -15.5110  -19.5970   10.7300 C.2    51  ASN51       0.2627
     44  OD1      -15.7500  -18.4150   10.4890 O.2    51  ASN51      -0.2716
     45  ND2      -15.7890  -20.1590   11.9020 N.am   51  ASN51      -0.0877
     46  N        -11.5620  -16.9570   11.3560 N.3    54  HIS54      -0.1241
     47  CA       -10.1750  -17.3050   11.6320 C.3    54  HIS54       0.1621
     48  C         -9.4080  -17.4030   10.3150 C.2    54  HIS54       0.2264
     49  O         -9.9830  -17.1420    9.2590 O.2    54  HIS54      -0.2867
     50  CB       -10.1370  -18.6080   12.4290 C.3    54  HIS54       0.0745
     51  CG       -11.0710  -18.6040   13.6020 C.ar   54  HIS54       0.0817
     52  ND1      -12.1700  -19.4350   13.6860 N.ar   54  HIS54      -0.2268
     53  CD2      -11.1020  -17.8270   14.7130 C.ar   54  HIS54       0.1154
     54  CE1      -12.8190  -19.1930   14.8130 C.ar   54  HIS54       0.1986
     55  NE2      -12.1930  -18.2190   15.4520 N.ar   54  HIS54      -0.2212
     56  N         -4.3650  -19.2030    4.3040 N.3    59  TYR59      -0.1241
     57  CA        -4.8460  -20.4780    4.8640 C.3    59  TYR59       0.1605
     58  C         -5.9880  -21.0360    4.0240 C.2    59  TYR59       0.2264
     59  O         -6.0880  -22.2520    3.8190 O.2    59  TYR59      -0.2867
     60  CB        -5.3050  -20.3310    6.3310 C.3    59  TYR59       0.0534
     61  CG        -5.7860  -21.6430    6.9790 C.ar   59  TYR59      -0.0201
     62  CD1       -4.8900  -22.4910    7.6280 C.ar   59  TYR59      -0.0009
     63  CD2       -7.1390  -22.0320    6.9370 C.ar   59  TYR59      -0.0009
     64  CE1       -5.3150  -23.6890    8.2180 C.ar   59  TYR59       0.0417
     65  CE2       -7.5730  -23.2280    7.5270 C.ar   59  TYR59       0.0417
     66  CZ        -6.6530  -24.0500    8.1610 C.ar   59  TYR59       0.1957
     67  OH        -7.0480  -25.2350    8.7460 O.3    59  TYR59      -0.2866
     68  N        -19.5160  -27.8850   12.2930 N.3   330  SER330     -0.1202
     69  CA       -18.5520  -26.8230   12.5660 C.3   330  SER330      0.2020
     70  C        -17.2470  -27.4040   13.1510 C.2   330  SER330      0.2619
     71  O        -16.4690  -28.0410   12.4250 O.2   330  SER330     -0.2717
     72  CB       -19.1720  -25.7370   13.4670 C.3   330  SER330      0.2103
     73  OG       -20.1360  -24.9640   12.7580 O.3   330  SER330     -0.2182
     74  N        -17.0310  -27.1900   14.4520 N.am  331  GLY331     -0.1956
     75  CA       -15.8710  -27.7190   15.1710 C.3   331  GLY331      0.1869
     76  C        -15.6640  -29.2090   14.9690 C.2   331  GLY331      0.2309
     77  O        -14.5180  -29.6620   14.8390 O.2   331  GLY331     -0.2863
     78  N        -13.7910  -29.1370   11.7330 N.3   334  ALA334     -0.1231
     79  CA       -12.7090  -28.1570   11.7420 C.3   334  ALA334      0.1694
     80  C        -11.5440  -28.5930   12.6480 C.2   334  ALA334      0.2591
     81  O        -10.3770  -28.4780   12.2620 O.2   334  ALA334     -0.2718
     82  CB       -13.2380  -26.7800   12.1530 C.3   334  ALA334      0.0304
     83  N        -11.8580  -29.1040   13.8380 N.am  335  LYS335     -0.1980
     84  CA       -10.8170  -29.4490   14.8000 C.3   335  LYS335      0.1596
     85  C        -11.1750  -30.6310   15.6810 C.2   335  LYS335      0.2287
     86  O        -10.6080  -30.7930   16.7560 O.2   335  LYS335     -0.2864
     87  CB       -10.4360  -28.2370   15.6600 C.3   335  LYS335      0.0298
     88  CG       -11.5570  -27.6930   16.5540 C.3   335  LYS335      0.0038
     89  CD       -11.1240  -26.4130   17.2880 C.3   335  LYS335      0.0206
     90  CE       -12.3320  -25.6290   17.8240 C.3   335  LYS335      0.1093
     91  NZ       -13.0370  -26.3420   18.9360 N.3   335  LYS335     -0.1314
@<TRIPOS>BOND
     1    59    58    2
     2    27    28    1
     3    58    57    1
     4    56    57    1
     5    28    29    1
     6    28    31    1
     7    13    15    1
     8    13    12    1
     9    57    60    1
    10    29    30    2
    11    31    32    1
    12    14    12    1
    13    12     9    1
    14    32    33    1
    15    60    61    1
    16    63    61   ar
    17    63    65   ar
    18    61    62   ar
    19     9     8    1
    20     9    10    1
    21     8     3   am
    22    38    39    1
    23    33    34    1
    24    65    66   ar
    25    62    64   ar
    26     1     2    1
    27     2     3    1
    28     2     5    1
    29     3     4    2
    30    10    11    2
    31    10    16   am
    32    66    64   ar
    33    66    67    1
    34    34    35    2
    35    39    40    1
    36    39    42    1
    37    40    41    2
    38    16    17    1
    39    19    18    2
    40    49    48    2
    41     7     5    1
    42     5     6    1
    43    35    36    1
    44    35    37    1
    45    17    18    1
    46    42    43    1
    47    18    20   am
    48    23    22    2
    49    48    47    1
    50    44    43    2
    51    43    45   am
    52    20    21    1
    53    20    26    1
    54    22    21    1
    55    21    24    1
    56    46    47    1
    57    47    50    1
    58    78    79    1
    59    79    82    1
    60    79    80    1
    61    26    25    1
    62    81    80    2
    63    68    69    1
    64    71    70    2
    65    50    51    1
    66    69    70    1
    67    69    72    1
    68    80    83   am
    69    24    25    1
    70    73    72    1
    71    70    74   am
    72    51    52   ar
    73    51    53   ar
    74    52    54   ar
    75    83    84    1
    76    74    75    1
    77    53    55   ar
    78    84    87    1
    79    84    85    1
    80    54    55   ar
    81    77    76    2
    82    76    75    1
    83    87    88    1
    84    85    86    2
    85    88    89    1
    86    89    90    1
    87    90    91    1
