@<TRIPOS>MOLECULE
tmp/3qv9B00.pdb
 103 101 0 0 0
SMALL
GASTEIGER

@<TRIPOS>ATOM
      1  N         11.8120   22.2860   12.1270 N.3    27  THR27      -0.1203
      2  CA        11.2020   21.2280   11.3320 C.3    27  THR27       0.1994
      3  C         10.5490   21.8520   10.0980 C.2    27  THR27       0.2618
      4  O          9.8820   22.8470   10.1690 O.2    27  THR27      -0.2717
      5  CB        10.1660   20.5340   12.1150 C.3    27  THR27       0.1784
      6  OG1       10.7490   20.0310   13.3500 O.3    27  THR27      -0.2211
      7  CG2        9.5460   19.4450   11.2720 C.3    27  THR27       0.0376
      8  N         10.8170   21.2810    8.9510 N.am   28  ILE28      -0.1965
      9  CA        10.2960   21.7990    7.7080 C.3    28  ILE28       0.1727
     10  C          9.0270   21.0280    7.3610 C.2    28  ILE28       0.2617
     11  O          8.9950   19.7450    7.4120 O.2    28  ILE28      -0.2715
     12  CB        11.2880   21.6490    6.5680 C.3    28  ILE28       0.0290
     13  CG1       12.7010   22.2250    6.9540 C.3    28  ILE28       0.0022
     14  CG2       10.7170   22.3540    5.3020 C.3    28  ILE28       0.0023
     15  CD1       12.6270   23.6790    7.4360 C.3    28  ILE28       0.0001
     16  N          7.9940   21.8040    7.0650 N.am   29  GLY29      -0.1941
     17  CA         6.7200   21.2520    6.5540 C.3    29  GLY29       0.1998
     18  C          6.0690   22.2590    5.6250 C.2    29  GLY29       0.2480
     19  O          6.7260   23.2330    5.2000 O.2    29  GLY29      -0.2729
     20  N          4.7480   22.1150    5.3910 N.am   30  PRO30      -0.2726
     21  CA         4.0160   22.9900    4.4710 C.3    30  PRO30       0.1402
     22  C          4.1630   24.4690    4.7340 C.2    30  PRO30       0.2269
     23  O          4.0600   25.2710    3.7930 O.2    30  PRO30      -0.2865
     24  CB         2.5510   22.5650    4.6680 C.3    30  PRO30       0.0296
     25  CG         2.6810   21.0500    5.0050 C.3    30  PRO30       0.0237
     26  CD         3.8900   21.0540    5.9530 C.3    30  PRO30       0.0939
     27  N         10.8870   15.3510    9.3080 N.3    52  ASN52      -0.1240
     28  CA        10.2490   14.3580   10.1520 C.3    52  ASN52       0.1653
     29  C          9.6940   13.2330    9.3080 C.2    52  ASN52       0.2266
     30  O          8.6450   13.3770    8.6900 O.2    52  ASN52      -0.2867
     31  CB         9.1450   14.9990   10.9940 C.3    52  ASN52       0.1155
     32  CG         8.4860   14.0390   11.9470 C.2    52  ASN52       0.2627
     33  OD1        8.9290   12.8900   12.1360 O.2    52  ASN52      -0.2716
     34  ND2        7.4100   14.5000   12.5760 N.am   52  ASN52      -0.0877
     35  N          6.0300   11.3750    8.7570 N.3    55  HIS55      -0.1226
     36  CA         4.9700   11.7760    7.8670 C.3    55  HIS55       0.1752
     37  C          5.5870   12.1290    6.5070 C.2    55  HIS55       0.2597
     38  O          6.7880   12.2510    6.4110 O.2    55  HIS55      -0.2718
     39  CB         4.2040   12.9370    8.4940 C.3    55  HIS55       0.0759
     40  CG         3.6970   12.6360    9.8770 C.ar   55  HIS55       0.0818
     41  ND1        2.6580   11.7610   10.1180 N.ar   55  HIS55      -0.2268
     42  CD2        4.0900   13.0890   11.0920 C.ar   55  HIS55       0.1154
     43  CE1        2.4410   11.6750   11.4190 C.ar   55  HIS55       0.1986
     44  NE2        3.3020   12.4690   12.0310 N.ar   55  HIS55      -0.2212
     45  N          4.7580   12.2620    5.4750 N.am   56  GLY56      -0.1942
     46  CA         5.2020   12.4490    4.1000 C.3    56  GLY56       0.2014
     47  C          6.0090   11.3150    3.4920 C.2    56  GLY56       0.2639
     48  O          6.5280   10.4340    4.1890 O.2    56  GLY56      -0.2714
     49  N          6.1710   11.3800    2.1800 N.am   57  SER57      -0.1949
     50  CA         6.8000   10.3660    1.3660 C.3    57  SER57       0.1924
     51  C          8.2330   10.8470    1.1030 C.2    57  SER57       0.2314
     52  O          8.5340   12.0120    1.3140 O.2    57  SER57      -0.2863
     53  CB         6.0680   10.3670    0.0270 C.3    57  SER57       0.2116
     54  OG         6.2390   11.6780   -0.5540 O.3    57  SER57      -0.2180
     55  N          9.3590   11.7020   -1.7970 N.3    59  GLU59      -0.1231
     56  CA         9.2930   12.8220   -2.7490 C.3    59  GLU59       0.1699
     57  C          8.8720   14.1090   -2.0890 C.2    59  GLU59       0.2592
     58  O          9.2620   15.2010   -2.5160 O.2    59  GLU59      -0.2718
     59  CB         8.4040   12.5150   -3.9690 C.3    59  GLU59       0.0402
     60  CG         7.2480   11.5800   -3.6750 C.3    59  GLU59       0.1161
     61  CD         7.5700   10.1390   -4.0690 C.2    59  GLU59       0.3649
     62  OE1        7.5140    9.8810   -5.2940 O.co2  59  GLU59      -0.2457
     63  OE2        7.8640    9.2870   -3.1800 O.co2  59  GLU59      -0.2457
     64  N          8.0850   14.0000   -1.0380 N.am   60  TYR60      -0.1962
     65  CA         7.7760   15.1780   -0.2560 C.3    60  TYR60       0.1771
     66  C          9.0800   15.7690    0.3270 C.2    60  TYR60       0.2619
     67  O          9.3650   16.9660    0.2290 O.2    60  TYR60      -0.2715
     68  CB         6.8070   14.8860    0.8940 C.3    60  TYR60       0.0574
     69  CG         6.5520   16.1770    1.6250 C.ar   60  TYR60      -0.0198
     70  CD1        5.7780   17.1570    1.0290 C.ar   60  TYR60      -0.0009
     71  CD2        7.1370   16.4500    2.8960 C.ar   60  TYR60      -0.0009
     72  CE1        5.5510   18.3780    1.6540 C.ar   60  TYR60       0.0417
     73  CE2        6.9020   17.6830    3.5570 C.ar   60  TYR60       0.0417
     74  CZ         6.1030   18.6350    2.9270 C.ar   60  TYR60       0.1957
     75  OH         5.8520   19.8800    3.4880 O.3    60  TYR60      -0.2866
     76  N          9.8720   14.9060    0.9380 N.am   61  HIS61      -0.1973
     77  CA        11.0220   15.4140    1.6800 C.3    61  HIS61       0.1656
     78  C         12.1400   15.8100    0.7310 C.2    61  HIS61       0.2291
     79  O         12.9190   16.7580    1.0150 O.2    61  HIS61      -0.2864
     80  CB        11.4510   14.4130    2.7530 C.3    61  HIS61       0.0771
     81  CG        10.4970   14.3370    3.8900 C.ar   61  HIS61       0.0820
     82  ND1       10.2760   15.4120    4.7440 N.ar   61  HIS61      -0.2267
     83  CD2        9.7010   13.3310    4.3250 C.ar   61  HIS61       0.1154
     84  CE1        9.3740   15.0610    5.6490 C.ar   61  HIS61       0.1986
     85  NE2        9.0210   13.8020    5.4260 N.ar   61  HIS61      -0.2212
     86  N          6.0520   21.6100   15.1280 N.3   236  GLY236     -0.1225
     87  CA         4.8660   22.2040   14.5150 C.3   236  GLY236      0.1811
     88  C          4.9550   23.7330   14.3420 C.2   236  GLY236      0.2280
     89  O          4.4730   24.2420   13.3570 O.2   236  GLY236     -0.2866
     90  N          6.8980   23.8030   11.1850 N.3   239  ALA239     -0.1231
     91  CA         6.3930   22.8970   10.1830 C.3   239  ALA239      0.1694
     92  C          5.0030   23.2690    9.6370 C.2   239  ALA239      0.2591
     93  O          4.7930   23.2180    8.4070 O.2   239  ALA239     -0.2718
     94  CB         6.3570   21.4730   10.7230 C.3   239  ALA239      0.0304
     95  N          4.0900   23.6400   10.5530 N.am  240  LYS240     -0.1980
     96  CA         2.6470   23.8710   10.2990 C.3   240  LYS240      0.1596
     97  C          2.1950   25.2690   10.7880 C.2   240  LYS240      0.2287
     98  O          1.0280   25.6820   10.6180 O.2   240  LYS240     -0.2864
     99  CB         1.8030   22.8370   11.0540 C.3   240  LYS240      0.0298
    100  CG         2.1270   21.3870   10.7050 C.3   240  LYS240      0.0038
    101  CD         1.3340   20.3950   11.5760 C.3   240  LYS240      0.0206
    102  CE         1.6790   18.9810   11.1040 C.3   240  LYS240      0.1093
    103  NZ         0.9730   17.8000   11.7240 N.3   240  LYS240     -0.1314
@<TRIPOS>BOND
     1    62    61   ar
     2    61    60    1
     3    61    63   ar
     4    59    60    1
     5    59    56    1
     6    56    57    1
     7    56    55    1
     8    58    57    2
     9    57    64   am
    10    64    65    1
    11    54    53    1
    12    65    66    1
    13    65    68    1
    14    53    50    1
    15    67    66    2
    16    66    76   am
    17    78    79    2
    18    78    77    1
    19    68    69    1
    20    76    77    1
    21    70    69   ar
    22    70    72   ar
    23    51    52    2
    24    51    50    1
    25    50    49    1
    26    69    71   ar
    27    72    74   ar
    28    77    80    1
    29    49    47   am
    30    80    81    1
    31    71    73   ar
    32    74    75    1
    33    74    73   ar
    34    47    46    1
    35    47    48    2
    36    23    22    2
    37    81    83   ar
    38    81    82   ar
    39    46    45    1
    40    83    85   ar
    41    21    24    1
    42    21    22    1
    43    21    20    1
    44    24    25    1
    45    82    84   ar
    46    25    26    1
    47    19    18    2
    48    14    12    1
    49    20    18   am
    50    20    26    1
    51    85    84   ar
    52    45    37   am
    53    18    17    1
    54    38    37    2
    55    37    36    1
    56    17    16    1
    57    12    13    1
    58    12     9    1
    59    13    15    1
    60    16    10   am
    61    10    11    2
    62    10     9    1
    63     9     8    1
    64    36    39    1
    65    36    35    1
    66    93    92    2
    67    39    40    1
    68    30    29    2
    69     8     3   am
    70    29    28    1
    71    27    28    1
    72    92    91    1
    73    92    95   am
    74    40    41   ar
    75    40    42   ar
    76     3     4    2
    77     3     2    1
    78    41    43   ar
    79    28    31    1
    80    91    94    1
    81    91    90    1
    82    96    95    1
    83    96    97    1
    84    96    99    1
    85    98    97    2
    86   100    99    1
    87   100   101    1
    88    31    32    1
    89    42    44   ar
    90   102   101    1
    91   102   103    1
    92     7     5    1
    93     2     5    1
    94     2     1    1
    95    43    44   ar
    96    32    33    2
    97    32    34   am
    98     5     6    1
    99    89    88    2
   100    88    87    1
   101    87    86    1
