@<TRIPOS>MOLECULE
tmp/3qvfA00.pdb
 173 163 0 0 0
SMALL
GASTEIGER

@<TRIPOS>ATOM
      1  N          0.5320   33.0750   29.0520 N.3    21  LYS21      -0.1245
      2  CA         0.2150   32.3060   30.2380 C.3    21  LYS21       0.1561
      3  C         -0.9700   31.4130   29.9550 C.2    21  LYS21       0.2260
      4  O         -2.0350   31.9010   29.5080 O.2    21  LYS21      -0.2867
      5  CB        -0.0650   33.2660   31.3760 C.3    21  LYS21       0.0271
      6  CG        -0.2050   32.6200   32.7020 C.3    21  LYS21       0.0035
      7  CD        -1.5970   32.5050   33.1640 C.3    21  LYS21       0.0206
      8  CE        -1.6350   31.5260   34.3250 C.3    21  LYS21       0.1093
      9  NZ        -2.8000   31.6710   35.1120 N.3    21  LYS21      -0.1314
     10  N         -3.6820   29.0440   31.7470 N.3    23  GLY23      -0.1210
     11  CA        -4.3360   28.7280   33.0120 C.3    23  GLY23       0.1956
     12  C         -4.4440   27.2230   33.2790 C.2    23  GLY23       0.2612
     13  O         -4.7160   26.4150   32.3580 O.2    23  GLY23      -0.2717
     14  N         -4.3130   26.8490   34.5450 N.am   24  GLY24      -0.1942
     15  CA        -4.4520   25.4540   34.9500 C.3    24  GLY24       0.2014
     16  C         -5.7910   24.8540   34.5730 C.2    24  GLY24       0.2639
     17  O         -5.8520   23.6560   34.3350 O.2    24  GLY24      -0.2714
     18  N         -6.8470   25.6870   34.5740 N.am   25  SER25      -0.1949
     19  CA        -8.2380   25.3240   34.1680 C.3    25  SER25       0.1924
     20  C         -8.2710   24.5680   32.8180 C.2    25  SER25       0.2314
     21  O         -9.1880   23.7560   32.5570 O.2    25  SER25      -0.2863
     22  CB        -9.1330   26.6170   34.0780 C.3    25  SER25       0.2116
     23  OG        -8.5220   27.6830   33.2520 O.3    25  SER25      -0.2180
     24  N         -8.4010   20.9090   39.1910 N.3    30  LYS30      -0.1245
     25  CA        -7.7810   21.3520   40.4640 C.3    30  LYS30       0.1561
     26  C         -8.1540   20.4060   41.6100 C.2    30  LYS30       0.2260
     27  O         -7.2730   19.9100   42.3350 O.2    30  LYS30      -0.2867
     28  CB        -8.1250   22.8480   40.7660 C.3    30  LYS30       0.0271
     29  CG        -7.1950   23.7960   39.9620 C.3    30  LYS30       0.0035
     30  CD        -7.7380   25.1840   39.5090 C.3    30  LYS30       0.0206
     31  CE        -6.9190   25.6510   38.2330 C.3    30  LYS30       0.1093
     32  NZ        -6.9890   27.0980   37.7440 N.3    30  LYS30      -0.1314
     33  N         -2.2370   24.4130   43.2380 N.3    70  HIS70      -0.1241
     34  CA        -3.2490   24.7610   44.1950 C.3    70  HIS70       0.1621
     35  C         -3.2370   23.7820   45.3710 C.2    70  HIS70       0.2264
     36  O         -3.3890   24.2210   46.5270 O.2    70  HIS70      -0.2867
     37  CB        -4.6020   24.8590   43.5000 C.3    70  HIS70       0.0745
     38  CG        -4.7280   26.0840   42.6540 C.ar   70  HIS70       0.0817
     39  ND1       -5.0660   27.3150   43.1760 N.ar   70  HIS70      -0.2268
     40  CD2       -4.4920   26.2860   41.3330 C.ar   70  HIS70       0.1154
     41  CE1       -5.1340   28.1990   42.1980 C.ar   70  HIS70       0.1986
     42  NE2       -4.7700   27.6100   41.0730 N.ar   70  HIS70      -0.2212
     43  N         -0.0010   34.1180   37.2990 N.3   162  ASP162     -0.1239
     44  CA        -0.6400   35.3020   36.7070 C.3   162  ASP162      0.1674
     45  C          0.2100   36.5310   36.8490 C.2   162  ASP162      0.2266
     46  O          0.0670   37.4460   36.0590 O.2   162  ASP162     -0.2867
     47  CB        -1.9850   35.5400   37.3460 C.3   162  ASP162      0.1410
     48  CG        -3.0110   34.5280   36.9320 C.2   162  ASP162      0.3668
     49  OD1       -3.1830   34.3340   35.7300 O.co2 162  ASP162     -0.2456
     50  OD2       -3.7110   34.0390   37.8410 O.co2 162  ASP162     -0.2456
     51  N         -4.4590   33.1080   28.8740 N.3   181  LEU181     -0.1231
     52  CA        -5.4650   32.2000   28.3930 C.3   181  LEU181      0.1693
     53  C         -6.1680   31.5710   29.5920 C.2   181  LEU181      0.2593
     54  O         -5.5240   30.9520   30.4660 O.2   181  LEU181     -0.2718
     55  CB        -4.7810   31.1250   27.5080 C.3   181  LEU181      0.0284
     56  CG        -3.9810   31.6000   26.3100 C.3   181  LEU181      0.0019
     57  CD1       -3.2710   30.3600   25.6130 C.3   181  LEU181      0.0001
     58  CD2       -4.8170   32.3950   25.3200 C.3   181  LEU181      0.0001
     59  N         -7.4910   31.6640   29.5920 N.am  182  THR182     -0.1939
     60  CA        -8.2800   31.1940   30.6660 C.3   182  THR182      0.2028
     61  C         -9.5480   30.5230   30.1370 C.2   182  THR182      0.2642
     62  O         -9.6860   30.2310   28.9430 O.2   182  THR182     -0.2714
     63  CB        -8.5080   32.3710   31.7020 C.3   182  THR182      0.1808
     64  OG1       -9.1610   31.8860   32.8920 O.3   182  THR182     -0.2208
     65  CG2       -9.3390   33.5030   31.1380 C.3   182  THR182      0.0379
     66  N        -10.4580   30.2200   31.0390 N.am  183  ASP183     -0.1957
     67  CA       -11.6520   29.4480   30.7000 C.3   183  ASP183      0.1840
     68  C        -12.8670   30.3280   30.5700 C.2   183  ASP183      0.2621
     69  O        -14.0280   29.8400   30.6510 O.2   183  ASP183     -0.2715
     70  CB       -11.8920   28.3000   31.7040 C.3   183  ASP183      0.1450
     71  CG       -12.0900   28.7740   33.1490 C.2   183  ASP183      0.3671
     72  OD1      -12.1240   30.0000   33.4450 O.co2 183  ASP183     -0.2456
     73  OD2      -12.2170   27.8650   34.0020 O.co2 183  ASP183     -0.2456
     74  N        -12.6150   31.6160   30.3160 N.am  184  VAL184     -0.1977
     75  CA       -13.6380   32.6050   30.0690 C.3   184  VAL184      0.1596
     76  C        -13.1170   33.4930   28.9490 C.2   184  VAL184      0.2287
     77  O        -11.9180   33.5250   28.6880 O.2   184  VAL184     -0.2864
     78  CB       -14.0130   33.4750   31.2980 C.3   184  VAL184      0.0276
     79  CG1      -14.7270   32.6930   32.3340 C.3   184  VAL184      0.0022
     80  CG2      -12.7820   34.1220   31.8830 C.3   184  VAL184      0.0022
     81  N        -13.0830   36.6850   28.7120 N.3   186  GLY186     -0.1210
     82  CA       -12.5410   37.9460   29.1610 C.3   186  GLY186      0.1956
     83  C        -13.2380   38.3040   30.4550 C.2   186  GLY186      0.2612
     84  O        -13.7800   37.4220   31.1070 O.2   186  GLY186     -0.2717
     85  N        -13.2680   39.5970   30.7780 N.am  187  ILE187     -0.1965
     86  CA       -13.9650   40.0960   31.9730 C.3   187  ILE187      0.1727
     87  C        -15.4380   40.2550   31.6230 C.2   187  ILE187      0.2616
     88  O        -15.7700   41.0660   30.7450 O.2   187  ILE187     -0.2715
     89  CB       -13.4370   41.4780   32.5060 C.3   187  ILE187      0.0290
     90  CG1      -11.9600   41.4380   32.8740 C.3   187  ILE187      0.0022
     91  CG2      -14.2980   41.9780   33.7370 C.3   187  ILE187      0.0023
     92  CD1      -11.6390   40.6380   34.0260 C.3   187  ILE187      0.0001
     93  N        -16.3000   39.4750   32.2820 N.am  188  VAL188     -0.1977
     94  CA       -17.7200   39.5390   31.9620 C.3   188  VAL188      0.1596
     95  C        -18.3750   40.5220   32.9150 C.2   188  VAL188      0.2287
     96  O        -18.0870   40.5590   34.1320 O.2   188  VAL188     -0.2864
     97  CB       -18.4860   38.1600   31.8460 C.3   188  VAL188      0.0276
     98  CG1      -17.5630   36.9810   31.6400 C.3   188  VAL188      0.0022
     99  CG2      -19.4880   37.9500   32.9500 C.3   188  VAL188      0.0022
    100  N        -16.8600   44.4800   38.0360 N.3   212  ALA212     -0.1231
    101  CA       -17.4650   43.3000   37.3860 C.3   212  ALA212      0.1694
    102  C        -17.1360   41.9500   38.0430 C.2   212  ALA212      0.2592
    103  O        -17.8730   40.9810   37.9060 O.2   212  ALA212     -0.2718
    104  CB       -17.0180   43.2690   35.8670 C.3   212  ALA212      0.0304
    105  N        -16.0160   41.8780   38.7400 N.am  213  LEU213     -0.1966
    106  CA       -15.5200   40.6330   39.2890 C.3   213  LEU213      0.1728
    107  C        -16.3490   39.9610   40.3750 C.2   213  LEU213      0.2616
    108  O        -16.8970   40.6300   41.1980 O.2   213  LEU213     -0.2715
    109  CB       -14.1200   40.8690   39.8480 C.3   213  LEU213      0.0311
    110  CG       -13.0680   41.2070   38.8140 C.3   213  LEU213      0.0022
    111  CD1      -11.7580   40.9760   39.4460 C.3   213  LEU213      0.0001
    112  CD2      -13.2730   40.3450   37.5230 C.3   213  LEU213      0.0001
    113  N        -16.3660   38.6150   40.3510 N.am  214  TRP214     -0.1960
    114  CA       -16.9840   37.7710   41.3900 C.3   214  TRP214      0.1771
    115  C        -15.9160   36.8810   42.0410 C.2   214  TRP214      0.2620
    116  O        -14.7240   36.9480   41.6760 O.2   214  TRP214     -0.2715
    117  CB       -18.1660   36.9330   40.8430 C.3   214  TRP214      0.0590
    118  CG       -17.8660   35.9100   39.7370 C.ar  214  TRP214      0.0006
    119  CD1      -17.3960   34.6180   39.8890 C.ar  214  TRP214      0.0946
    120  CD2      -18.0790   36.0850   38.3310 C.ar  214  TRP214      0.0152
    121  NE1      -17.2770   34.0050   38.6620 N.ar  214  TRP214     -0.2442
    122  CE2      -17.6960   34.8750   37.6900 C.ar  214  TRP214      0.0810
    123  CE3      -18.5450   37.1470   37.5490 C.ar  214  TRP214      0.0012
    124  CZ2      -17.7780   34.7020   36.3000 C.ar  214  TRP214      0.0191
    125  CZ3      -18.6140   36.9780   36.1660 C.ar  214  TRP214      0.0001
    126  CH2      -18.2340   35.7610   35.5590 C.ar  214  TRP214      0.0015
    127  N        -16.3490   36.0480   42.9820 N.am  215  GLY215     -0.1954
    128  CA       -15.4270   35.2430   43.8090 C.3   215  GLY215      0.1869
    129  C        -14.5140   34.1660   43.1900 C.2   215  GLY215      0.2309
    130  O        -14.6230   33.7880   41.9950 O.2   215  GLY215     -0.2863
    131  N        -13.4880   30.2370   43.5800 N.3   217  SER217     -0.1217
    132  CA       -14.0470   28.9750   44.0800 C.3   217  SER217      0.1889
    133  C        -13.3990   28.5600   45.4280 C.2   217  SER217      0.2288
    134  O        -12.5390   29.2780   45.9830 O.2   217  SER217     -0.2866
    135  CB       -13.9130   27.8610   43.0150 C.3   217  SER217      0.2089
    136  OG       -12.6700   27.9200   42.3290 O.3   217  SER217     -0.2183
    137  N         -9.7050   27.2760   44.5150 N.3   220  ASP220     -0.1239
    138  CA        -8.7370   28.3370   44.1080 C.3   220  ASP220      0.1674
    139  C         -8.0570   29.1050   45.2560 C.2   220  ASP220      0.2266
    140  O         -8.7310   29.8550   45.9580 O.2   220  ASP220     -0.2867
    141  CB        -9.4140   29.3970   43.2130 C.3   220  ASP220      0.1410
    142  CG        -8.4040   30.3600   42.5960 C.2   220  ASP220      0.3668
    143  OD1       -7.8190   31.1780   43.3020 O.co2 220  ASP220     -0.2456
    144  OD2       -8.1700   30.2790   41.3910 O.co2 220  ASP220     -0.2456
    145  N         -5.1810   31.3540   44.6730 N.3   222  THR222     -0.1218
    146  CA        -4.3640   32.4940   44.2160 C.3   222  THR222      0.1862
    147  C         -5.2130   33.6180   43.6340 C.2   222  THR222      0.2287
    148  O         -4.7030   34.4510   42.8950 O.2   222  THR222     -0.2866
    149  CB        -3.3200   32.0800   43.1690 C.3   222  THR222      0.1770
    150  OG1       -3.9910   31.4160   42.1040 O.3   222  THR222     -0.2211
    151  CG2       -2.1450   31.2040   43.7810 C.3   222  THR222      0.0375
    152  N         -8.1380   34.0200   41.5940 N.3   224  ALA224     -0.1231
    153  CA        -8.7610   33.9800   40.2800 C.3   224  ALA224      0.1694
    154  C         -8.6300   35.2340   39.4000 C.2   224  ALA224      0.2591
    155  O         -7.5500   35.6660   38.9900 O.2   224  ALA224     -0.2718
    156  CB       -10.2540   33.5710   40.4780 C.3   224  ALA224      0.0304
    157  N         -9.7670   35.8130   39.0290 N.am  225  MET225     -0.1979
    158  CA        -9.7410   36.8670   38.0450 C.3   225  MET225      0.1605
    159  C         -9.1740   38.1750   38.6530 C.2   225  MET225      0.2287
    160  O         -8.5860   38.9730   37.9400 O.2   225  MET225     -0.2864
    161  CB       -11.1230   37.1140   37.5100 C.3   225  MET225      0.0413
    162  CG       -11.1790   38.0820   36.3540 C.3   225  MET225      0.0598
    163  SD       -10.1180   37.6090   34.9300 S.3   225  MET225     -0.1393
    164  CE       -11.1610   36.3620   34.1040 C.3   225  MET225      0.0692
    165  N         -5.5120   38.2340   38.1710 N.3   228  LYS228     -0.1245
    166  CA        -5.2040   38.4840   36.7610 C.3   228  LYS228      0.1561
    167  C         -5.2960   39.9150   36.4300 C.2   228  LYS228      0.2260
    168  O         -4.4080   40.4820   35.7560 O.2   228  LYS228     -0.2867
    169  CB        -6.1610   37.7620   35.8230 C.3   228  LYS228      0.0271
    170  CG        -6.0320   36.3600   35.8110 C.3   228  LYS228      0.0035
    171  CD        -6.8420   35.7430   34.6750 C.3   228  LYS228      0.0206
    172  CE        -7.0480   34.3280   34.9540 C.3   228  LYS228      0.1093
    173  NZ        -5.8320   33.5520   35.1040 N.3   228  LYS228     -0.1314
@<TRIPOS>BOND
     1    58    56    1
     2    57    56    1
     3    56    55    1
     4    55    52    1
     5    52    51    1
     6    52    53    1
     7    77    76    2
     8    81    82    1
     9    62    61    2
    10    76    75    1
    11     1     2    1
    12    82    83    1
    13     4     3    2
    14    53    59   am
    15    53    54    2
    16    59    60    1
    17     3     2    1
    18    75    74    1
    19    75    78    1
    20    61    60    1
    21    61    66   am
    22     2     5    1
    23    74    68   am
    24    83    85   am
    25    83    84    2
    26    68    69    2
    27    68    67    1
    28    60    63    1
    29    67    66    1
    30    67    70    1
    31    88    87    2
    32    85    86    1
    33    65    63    1
    34    78    80    1
    35    78    79    1
    36     5     6    1
    37    87    86    1
    38    87    93   am
    39    98    97    1
    40    63    64    1
    41    70    71    1
    42    10    11    1
    43    97    94    1
    44    97    99    1
    45    94    93    1
    46    94    95    1
    47    86    89    1
    48    13    12    2
    49    89    90    1
    50    89    91    1
    51    21    20    2
    52     6     7    1
    53    20    19    1
    54    90    92    1
    55    95    96    2
    56    11    12    1
    57    71    72   ar
    58    71    73   ar
    59     7     8    1
    60    23    22    1
    61    12    14   am
    62    22    19    1
    63   164   163    1
    64    19    18    1
    65     8     9    1
    66    17    16    2
    67    14    15    1
    68    16    18   am
    69    16    15    1
    70   171   172    1
    71   171   170    1
    72   163   162    1
    73   172   173    1
    74   126   125   ar
    75   126   124   ar
    76    49    48   ar
    77   168   167    2
    78   170   169    1
    79   169   166    1
    80   104   101    1
    81    46    45    2
    82   125   123   ar
    83   124   122   ar
    84   162   161    1
    85   167   166    1
    86    44    45    1
    87    44    43    1
    88    44    47    1
    89   166   165    1
    90    48    47    1
    91    48    50   ar
    92   101   100    1
    93   101   102    1
    94   161   158    1
    95   112   110    1
    96   123   120   ar
    97   122   120   ar
    98   122   121   ar
    99    32    31    1
   100   103   102    2
   101   160   159    2
   102   102   105   am
   103   158   159    1
   104   158   157    1
   105    31    30    1
   106   120   118   ar
   107   121   119   ar
   108   105   106    1
   109   110   111    1
   110   110   109    1
   111   155   154    2
   112   157   154   am
   113    24    25    1
   114   106   109    1
   115   106   107    1
   116   154   153    1
   117    30    29    1
   118   118   119   ar
   119   118   117    1
   120    29    28    1
   121   153   156    1
   122   153   152    1
   123   113   107   am
   124   113   114    1
   125   107   108    2
   126    25    28    1
   127    25    26    1
   128   117   114    1
   129    42    40   ar
   130    42    41   ar
   131    40    38   ar
   132   114   115    1
   133   144   142   ar
   134    26    27    2
   135   116   115    2
   136   130   129    2
   137   115   127   am
   138   150   149    1
   139    41    39   ar
   140   136   135    1
   141   142   141    1
   142   142   143   ar
   143    38    39   ar
   144    38    37    1
   145   148   147    2
   146   127   128    1
   147   135   132    1
   148   149   151    1
   149   149   146    1
   150   129   128    1
   151   141   138    1
   152    33    34    1
   153    37    34    1
   154   131   132    1
   155   147   146    1
   156   132   133    1
   157   138   137    1
   158   138   139    1
   159    34    35    1
   160   146   145    1
   161   139   140    2
   162    35    36    2
   163   133   134    2
