@<TRIPOS>MOLECULE
tmp/3qvfA01.pdb
 121 112 0 0 0
SMALL
GASTEIGER

@<TRIPOS>ATOM
      1  N          0.5320   33.0750   29.0520 N.3    21  LYS21      -0.1245
      2  CA         0.2150   32.3060   30.2380 C.3    21  LYS21       0.1561
      3  C         -0.9700   31.4130   29.9550 C.2    21  LYS21       0.2260
      4  O         -2.0350   31.9010   29.5080 O.2    21  LYS21      -0.2867
      5  CB        -0.0650   33.2660   31.3760 C.3    21  LYS21       0.0271
      6  CG        -0.2050   32.6200   32.7020 C.3    21  LYS21       0.0035
      7  CD        -1.5970   32.5050   33.1640 C.3    21  LYS21       0.0206
      8  CE        -1.6350   31.5260   34.3250 C.3    21  LYS21       0.1093
      9  NZ        -2.8000   31.6710   35.1120 N.3    21  LYS21      -0.1314
     10  N         -4.3130   26.8490   34.5450 N.3    24  GLY24      -0.1225
     11  CA        -4.4520   25.4540   34.9500 C.3    24  GLY24       0.1811
     12  C         -5.7910   24.8540   34.5730 C.2    24  GLY24       0.2280
     13  O         -5.8520   23.6560   34.3350 O.2    24  GLY24      -0.2866
     14  N         -8.4010   20.9090   39.1910 N.3    30  LYS30      -0.1245
     15  CA        -7.7810   21.3520   40.4640 C.3    30  LYS30       0.1561
     16  C         -8.1540   20.4060   41.6100 C.2    30  LYS30       0.2260
     17  O         -7.2730   19.9100   42.3350 O.2    30  LYS30      -0.2867
     18  CB        -8.1250   22.8480   40.7660 C.3    30  LYS30       0.0271
     19  CG        -7.1950   23.7960   39.9620 C.3    30  LYS30       0.0035
     20  CD        -7.7380   25.1840   39.5090 C.3    30  LYS30       0.0206
     21  CE        -6.9190   25.6510   38.2330 C.3    30  LYS30       0.1093
     22  NZ        -6.9890   27.0980   37.7440 N.3    30  LYS30      -0.1314
     23  N          0.1240   27.8000   34.4880 N.3    64  GLY64      -0.1210
     24  CA        -0.5540   27.7050   35.7220 C.3    64  GLY64       0.1956
     25  C         -0.2220   26.4510   36.4830 C.2    64  GLY64       0.2612
     26  O          0.3600   25.5140   35.9190 O.2    64  GLY64      -0.2717
     27  N         -0.5990   26.4230   37.7630 N.am   65  GLY65      -0.1942
     28  CA        -0.1480   25.3770   38.6540 C.3    65  GLY65       0.2014
     29  C         -1.0260   24.1550   38.6560 C.2    65  GLY65       0.2639
     30  O         -0.6070   23.0920   39.1020 O.2    65  GLY65      -0.2714
     31  N         -2.2350   24.3210   38.1570 N.am   66  GLY66      -0.1954
     32  CA        -3.3410   23.3550   38.2890 C.3    66  GLY66       0.1869
     33  C         -3.4760   22.6710   39.6320 C.2    66  GLY66       0.2309
     34  O         -3.2390   23.2790   40.6870 O.2    66  GLY66      -0.2863
     35  N         -0.1420   22.9200   41.8560 N.3    69  GLY69      -0.1210
     36  CA         0.0640   24.1620   42.5870 C.3    69  GLY69       0.1956
     37  C         -0.9670   24.5080   43.6020 C.2    69  GLY69       0.2611
     38  O         -0.6600   24.8690   44.7130 O.2    69  GLY69      -0.2717
     39  N         -2.2370   24.4130   43.2380 N.am   70  HIS70      -0.1975
     40  CA        -3.2490   24.7610   44.1950 C.3    70  HIS70       0.1656
     41  C         -3.2370   23.7820   45.3710 C.2    70  HIS70       0.2291
     42  O         -3.3890   24.2210   46.5270 O.2    70  HIS70      -0.2864
     43  CB        -4.6020   24.8590   43.5000 C.3    70  HIS70       0.0771
     44  CG        -4.7280   26.0840   42.6540 C.ar   70  HIS70       0.0820
     45  ND1       -5.0660   27.3150   43.1760 N.ar   70  HIS70      -0.2267
     46  CD2       -4.4920   26.2860   41.3330 C.ar   70  HIS70       0.1154
     47  CE1       -5.1340   28.1990   42.1980 C.ar   70  HIS70       0.1986
     48  NE2       -4.7700   27.6100   41.0730 N.ar   70  HIS70      -0.2212
     49  N         -0.6220   24.6000   48.0260 N.3    73  ILE73      -0.1245
     50  CA        -0.9940   25.7280   48.8540 C.3    73  ILE73       0.1561
     51  C         -2.1070   25.2650   49.8170 C.2    73  ILE73       0.2260
     52  O         -2.0160   25.5170   51.0090 O.2    73  ILE73      -0.2867
     53  CB        -1.4860   26.9520   48.0380 C.3    73  ILE73       0.0252
     54  CG1       -0.4360   27.4400   47.0140 C.3    73  ILE73       0.0019
     55  CG2       -1.8150   28.1040   48.9680 C.3    73  ILE73       0.0019
     56  CD1       -0.9660   28.4640   46.0290 C.3    73  ILE73       0.0001
     57  N          5.4330   24.0880   47.2840 N.3    87  LEU87      -0.1245
     58  CA         4.9660   24.7710   46.0620 C.3    87  LEU87       0.1561
     59  C          6.0000   24.8600   44.9700 C.2    87  LEU87       0.2260
     60  O          5.6730   24.7380   43.8100 O.2    87  LEU87      -0.2867
     61  CB         4.4070   26.1360   46.4110 C.3    87  LEU87       0.0270
     62  CG         3.7940   26.9250   45.2730 C.3    87  LEU87       0.0019
     63  CD1        2.6320   26.1130   44.5490 C.3    87  LEU87       0.0001
     64  CD2        3.2790   28.3350   45.7710 C.3    87  LEU87       0.0001
     65  N          5.2350   23.3250   41.2430 N.3    91  THR91      -0.1218
     66  CA         5.1850   24.0600   40.0020 C.3    91  THR91       0.1862
     67  C          6.3660   23.7060   39.1200 C.2    91  THR91       0.2287
     68  O          6.2630   23.8820   37.9010 O.2    91  THR91      -0.2866
     69  CB         5.0560   25.5930   40.1210 C.3    91  THR91       0.1770
     70  OG1        6.2830   26.1880   40.5820 O.3    91  THR91      -0.2211
     71  CG2        3.8980   26.0060   41.0380 C.3    91  THR91       0.0375
     72  N          4.2320   30.0550   38.3690 N.3   146  GLY146     -0.1210
     73  CA         4.2390   30.6330   39.6680 C.3   146  GLY146      0.1956
     74  C          5.1010   29.8080   40.6170 C.2   146  GLY146      0.2611
     75  O          5.7570   28.8000   40.2200 O.2   146  GLY146     -0.2717
     76  N          5.2050   30.2880   41.8380 N.am  147  ASP147     -0.1973
     77  CA         6.2050   29.7580   42.7780 C.3   147  ASP147      0.1709
     78  C          6.0020   30.2250   44.1850 C.2   147  ASP147      0.2293
     79  O          5.1790   31.1220   44.4600 O.2   147  ASP147     -0.2864
     80  CB         7.6110   30.0890   42.2870 C.3   147  ASP147      0.1436
     81  CG         8.5830   28.9290   42.3790 C.2   147  ASP147      0.3671
     82  OD1        8.5540   28.2140   43.3860 O.co2 147  ASP147     -0.2456
     83  OD2        9.3800   28.7560   41.4450 O.co2 147  ASP147     -0.2456
     84  N          3.1520   33.0010   44.8850 N.3   159  PHE159     -0.1227
     85  CA         3.2290   34.0440   43.8530 C.3   159  PHE159      0.1736
     86  C          2.6420   33.3960   42.6190 C.2   159  PHE159      0.2596
     87  O          3.2070   32.4550   42.0620 O.2   159  PHE159     -0.2718
     88  CB         4.6750   34.4420   43.5950 C.3   159  PHE159      0.0547
     89  CG         4.8480   35.5730   42.6070 C.ar  159  PHE159     -0.0202
     90  CD1        4.6900   36.8920   43.0240 C.ar  159  PHE159     -0.0042
     91  CD2        5.1690   35.3210   41.2830 C.ar  159  PHE159     -0.0042
     92  CE1        4.8880   37.9140   42.1300 C.ar  159  PHE159     -0.0003
     93  CE2        5.3640   36.3800   40.3960 C.ar  159  PHE159     -0.0003
     94  CZ         5.2300   37.6290   40.8220 C.ar  159  PHE159     -0.0000
     95  N          1.4400   33.8310   42.2520 N.am  160  SER160     -0.1938
     96  CA         0.7480   33.2190   41.0860 C.3   160  SER160      0.2055
     97  C          1.4600   33.3400   39.7480 C.2   160  SER160      0.2644
     98  O          2.0650   34.3500   39.4250 O.2   160  SER160     -0.2714
     99  CB        -0.6990   33.7650   40.9780 C.3   160  SER160      0.2130
    100  OG        -1.4330   33.1930   39.8870 O.3   160  SER160     -0.2179
    101  N          1.3120   32.3100   38.8930 N.am  161  SER161     -0.1935
    102  CA         1.7230   32.3960   37.4950 C.3   161  SER161      0.2055
    103  C          1.1580   33.6750   36.8380 C.2   161  SER161      0.2643
    104  O          1.7420   34.2370   35.8970 O.2   161  SER161     -0.2714
    105  CB         1.2780   31.1510   36.7420 C.3   161  SER161      0.2130
    106  OG        -0.1060   30.9710   36.8880 O.3   161  SER161     -0.2179
    107  N         -0.0010   34.1180   37.2990 N.am  162  ASP162     -0.1971
    108  CA        -0.6400   35.3020   36.7070 C.3   162  ASP162      0.1709
    109  C          0.2100   36.5310   36.8490 C.2   162  ASP162      0.2293
    110  O          0.0670   37.4460   36.0590 O.2   162  ASP162     -0.2864
    111  CB        -1.9850   35.5400   37.3460 C.3   162  ASP162      0.1436
    112  CG        -3.0110   34.5280   36.9320 C.2   162  ASP162      0.3671
    113  OD1       -3.1830   34.3340   35.7300 O.co2 162  ASP162     -0.2456
    114  OD2       -3.7110   34.0390   37.8410 O.co2 162  ASP162     -0.2456
    115  N         -5.1810   31.3540   44.6730 N.3   222  THR222     -0.1218
    116  CA        -4.3640   32.4940   44.2160 C.3   222  THR222      0.1862
    117  C         -5.2130   33.6180   43.6340 C.2   222  THR222      0.2287
    118  O         -4.7030   34.4510   42.8950 O.2   222  THR222     -0.2866
    119  CB        -3.3200   32.0800   43.1690 C.3   222  THR222      0.1770
    120  OG1       -3.9910   31.4160   42.1040 O.3   222  THR222     -0.2211
    121  CG2       -2.1450   31.2040   43.7810 C.3   222  THR222      0.0375
@<TRIPOS>BOND
     1     1     2    1
     2     4     3    2
     3     3     2    1
     4     2     5    1
     5     5     6    1
     6     6     7    1
     7     7     8    1
     8     8     9    1
     9    13    12    2
    10    23    24    1
    11    10    11    1
    12    12    11    1
    13    24    25    1
    14   113   112   ar
    15   104   103    2
    16    26    25    2
    17   110   109    2
    18    25    27   am
    19   108   109    1
    20   108   107    1
    21   108   111    1
    22   105   106    1
    23   105   102    1
    24   103   107   am
    25   103   102    1
    26   112   111    1
    27   112   114   ar
    28   102   101    1
    29    22    21    1
    30    27    28    1
    31    68    67    2
    32    31    32    1
    33    31    29   am
    34    21    20    1
    35    32    33    1
    36    72    73    1
    37    28    29    1
    38    29    30    2
    39   101    97   am
    40    67    66    1
    41    14    15    1
    42    98    97    2
    43    20    19    1
    44    33    34    2
    45    73    74    1
    46    97    96    1
    47   100    99    1
    48    19    18    1
    49    66    69    1
    50    66    65    1
    51    69    70    1
    52    69    71    1
    53    75    74    2
    54    93    94   ar
    55    93    91   ar
    56    15    18    1
    57    15    16    1
    58    74    76   am
    59    94    92   ar
    60    99    96    1
    61    48    46   ar
    62    48    47   ar
    63    96    95    1
    64    91    89   ar
    65    46    44   ar
    66    83    81   ar
    67    16    17    2
    68    76    77    1
    69    35    36    1
    70    87    86    2
    71   120   119    1
    72    92    90   ar
    73    47    45   ar
    74    95    86   am
    75    80    81    1
    76    80    77    1
    77    81    82   ar
    78    36    37    1
    79    89    90   ar
    80    89    88    1
    81    86    85    1
    82    44    45   ar
    83    44    43    1
    84    77    78    1
    85   118   117    2
    86   119   121    1
    87   119   116    1
    88    39    37   am
    89    39    40    1
    90    43    40    1
    91    88    85    1
    92    37    38    2
    93   117   116    1
    94    60    59    2
    95    85    84    1
    96    78    79    2
    97    40    41    1
    98   116   115    1
    99    63    62    1
   100    59    58    1
   101    62    64    1
   102    62    61    1
   103    41    42    2
   104    56    54    1
   105    58    61    1
   106    58    57    1
   107    54    53    1
   108    49    50    1
   109    53    50    1
   110    53    55    1
   111    50    51    1
   112    51    52    2
