@<TRIPOS>MOLECULE
tmp/3qviD01.pdb
 183 168 0 0 0
SMALL
GASTEIGER

@<TRIPOS>ATOM
      1  N         29.6600  -17.0130   46.3610 N.3    33  HIS33      -0.1241
      2  CA        30.7730  -16.1270   46.5630 C.3    33  HIS33       0.1621
      3  C         31.9910  -16.5340   45.7230 C.2    33  HIS33       0.2264
      4  O         32.6430  -17.5240   46.0280 O.2    33  HIS33      -0.2867
      5  CB        31.0620  -16.1780   48.0690 C.3    33  HIS33       0.0745
      6  CG        31.9210  -15.0720   48.5670 C.ar   33  HIS33       0.0817
      7  ND1       33.0100  -14.6010   47.8690 N.ar   33  HIS33      -0.2268
      8  CD2       31.8670  -14.3560   49.7120 C.ar   33  HIS33       0.1154
      9  CE1       33.6000  -13.6460   48.5700 C.ar   33  HIS33       0.1986
     10  NE2       32.9210  -13.4740   49.6920 N.ar   33  HIS33      -0.2212
     11  N         34.9070  -15.3310   45.5940 N.3    35  ALA35      -0.1231
     12  CA        36.1850  -15.0520   46.2120 C.3    35  ALA35       0.1694
     13  C         36.2370  -15.6970   47.6110 C.2    35  ALA35       0.2593
     14  O         36.7780  -15.1090   48.5270 O.2    35  ALA35      -0.2718
     15  CB        36.3710  -13.5670   46.3220 C.3    35  ALA35       0.0304
     16  N         35.6360  -16.8600   47.7910 N.am   36  SER36      -0.1938
     17  CA        35.6870  -17.5860   49.0530 C.3    36  SER36       0.2055
     18  C         35.6500  -19.0460   48.6790 C.2    36  SER36       0.2643
     19  O         35.0700  -19.4000   47.6420 O.2    36  SER36      -0.2714
     20  CB        34.4350  -17.2920   49.8750 C.3    36  SER36       0.2130
     21  OG        34.3850  -18.1440   50.9910 O.3    36  SER36      -0.2179
     22  N         36.2010  -19.9140   49.5130 N.am   37  SER37      -0.1949
     23  CA        36.2970  -21.3190   49.1320 C.3    37  SER37       0.1924
     24  C         35.7640  -22.3330   50.1220 C.2    37  SER37       0.2314
     25  O         36.2020  -23.4740   50.1020 O.2    37  SER37      -0.2863
     26  CB        37.7530  -21.6900   48.7530 C.3    37  SER37       0.2116
     27  OG        38.3410  -20.7730   47.8420 O.3    37  SER37      -0.2180
     28  N         29.7630  -21.9440   54.4240 N.3    40  TRP40      -0.1241
     29  CA        29.5490  -21.5690   55.8150 C.3    40  TRP40       0.1605
     30  C         28.0650  -21.3860   55.9950 C.2    40  TRP40       0.2264
     31  O         27.4250  -20.6020   55.2620 O.2    40  TRP40      -0.2867
     32  CB        30.1850  -20.2500   56.1620 C.3    40  TRP40       0.0550
     33  CG        31.6120  -20.0800   55.7950 C.ar   40  TRP40       0.0003
     34  CD1       32.1280  -19.9330   54.5490 C.ar   40  TRP40       0.0946
     35  CD2       32.7180  -19.9780   56.7000 C.ar   40  TRP40       0.0152
     36  NE1       33.4960  -19.7710   54.6140 N.ar   40  TRP40      -0.2442
     37  CE2       33.8780  -19.7790   55.9270 C.ar   40  TRP40       0.0810
     38  CE3       32.8390  -20.0520   58.0930 C.ar   40  TRP40       0.0012
     39  CZ2       35.1530  -19.6370   56.5040 C.ar   40  TRP40       0.0191
     40  CZ3       34.0850  -19.9140   58.6610 C.ar   40  TRP40       0.0001
     41  CH2       35.2320  -19.7190   57.8720 C.ar   40  TRP40       0.0015
     42  N         37.9980  -18.2280   62.7100 N.3    74  LEU74      -0.1245
     43  CA        38.5070  -17.1100   61.9080 C.3    74  LEU74       0.1561
     44  C         38.1870  -15.8400   62.6160 C.2    74  LEU74       0.2260
     45  O         37.0600  -15.6060   63.0490 O.2    74  LEU74      -0.2867
     46  CB        37.8260  -17.0420   60.5630 C.3    74  LEU74       0.0270
     47  CG        38.6500  -17.3430   59.3250 C.3    74  LEU74       0.0019
     48  CD1       37.7910  -16.9400   58.1230 C.3    74  LEU74       0.0001
     49  CD2       40.0360  -16.6100   59.3070 C.3    74  LEU74       0.0001
     50  N         38.9270  -11.6770   62.8180 N.3    76  SER76      -0.1202
     51  CA        39.4070  -10.4630   62.1470 C.3    76  SER76       0.2020
     52  C         38.7610   -9.2170   62.7070 C.2    76  SER76       0.2618
     53  O         37.6120   -9.2310   63.1040 O.2    76  SER76      -0.2717
     54  CB        39.1640  -10.5670   60.6440 C.3    76  SER76       0.2103
     55  OG        39.8810  -11.7070   60.1270 O.3    76  SER76      -0.2182
     56  N         39.5250   -8.1370   62.7430 N.am   77  LYS77      -0.1979
     57  CA        39.1410   -6.9280   63.4700 C.3    77  LYS77       0.1596
     58  C         37.6640   -6.5050   63.3520 C.2    77  LYS77       0.2287
     59  O         37.2440   -5.6070   64.0750 O.2    77  LYS77      -0.2864
     60  CB        40.0740   -5.7510   63.0910 C.3    77  LYS77       0.0298
     61  CG        41.4410   -5.6770   63.8250 C.3    77  LYS77       0.0038
     62  CD        41.2990   -5.4010   65.3190 C.3    77  LYS77       0.0206
     63  CE        41.2870   -6.7270   66.1110 C.3    77  LYS77       0.1093
     64  NZ        40.7800   -6.5820   67.5120 N.3    77  LYS77      -0.1314
     65  N         34.3350  -15.7120   63.6160 N.3    81  ILE81      -0.1245
     66  CA        33.4260  -16.7980   63.3590 C.3    81  ILE81       0.1561
     67  C         34.0670  -18.1080   63.8100 C.2    81  ILE81       0.2260
     68  O         35.1560  -18.4380   63.3410 O.2    81  ILE81      -0.2867
     69  CB        33.1550  -16.8940   61.8730 C.3    81  ILE81       0.0252
     70  CG1       32.4250  -15.6370   61.4240 C.3    81  ILE81       0.0019
     71  CG2       32.3720  -18.1680   61.5370 C.3    81  ILE81       0.0019
     72  CD1       32.2360  -15.5250   59.9890 C.3    81  ILE81       0.0001
     73  N         30.2300   -8.3190   62.9680 N.3   110  PHE110     -0.1241
     74  CA        29.5430   -8.1840   61.6930 C.3   110  PHE110      0.1605
     75  C         28.1730   -7.5180   61.7700 C.2   110  PHE110      0.2264
     76  O         27.3740   -7.6490   60.8520 O.2   110  PHE110     -0.2867
     77  CB        29.4990   -9.5230   60.9810 C.3   110  PHE110      0.0534
     78  CG        30.8360  -10.1320   60.8350 C.ar  110  PHE110     -0.0203
     79  CD1       31.8570   -9.4290   60.2020 C.ar  110  PHE110     -0.0042
     80  CD2       31.1050  -11.3800   61.3700 C.ar  110  PHE110     -0.0042
     81  CE1       33.1390   -9.9630   60.0820 C.ar  110  PHE110     -0.0003
     82  CE2       32.4120  -11.9580   61.2660 C.ar  110  PHE110     -0.0003
     83  CZ        33.4230  -11.2340   60.6130 C.ar  110  PHE110     -0.0000
     84  N         27.5470  -18.2070   53.4180 N.3   122  VAL122     -0.1245
     85  CA        28.3340  -18.0670   52.2330 C.3   122  VAL122      0.1561
     86  C         28.5790  -19.4000   51.5570 C.2   122  VAL122      0.2260
     87  O         28.8630  -20.4280   52.2190 O.2   122  VAL122     -0.2867
     88  CB        29.6060  -17.1670   52.4110 C.3   122  VAL122      0.0252
     89  CG1       29.7430  -16.6140   53.8050 C.3   122  VAL122      0.0019
     90  CG2       30.8560  -17.8370   51.8870 C.3   122  VAL122      0.0019
     91  N         42.7080  -21.7680   48.3560 N.3   130  LEU130     -0.1245
     92  CA        42.2110  -20.7740   49.3110 C.3   130  LEU130      0.1561
     93  C         41.2930  -21.3390   50.3820 C.2   130  LEU130      0.2260
     94  O         40.8480  -20.5910   51.2680 O.2   130  LEU130     -0.2867
     95  CB        41.4720  -19.6510   48.5830 C.3   130  LEU130      0.0270
     96  CG        42.2340  -18.3820   48.9320 C.3   130  LEU130      0.0019
     97  CD1       43.7620  -18.5310   48.7250 C.3   130  LEU130      0.0001
     98  CD2       41.6890  -17.1860   48.1880 C.3   130  LEU130      0.0001
     99  N         39.9010  -23.3160   53.6300 N.3   132  ILE132     -0.1245
    100  CA        40.2640  -23.8930   54.8970 C.3   132  ILE132      0.1561
    101  C         39.9830  -25.3670   54.7990 C.2   132  ILE132      0.2260
    102  O         38.8520  -25.7920   54.4870 O.2   132  ILE132     -0.2867
    103  CB        39.4570  -23.3140   56.0610 C.3   132  ILE132      0.0252
    104  CG1       39.5440  -21.7830   56.1020 C.3   132  ILE132      0.0019
    105  CG2       39.9170  -23.9770   57.3740 C.3   132  ILE132      0.0019
    106  CD1       38.7130  -21.1720   57.2350 C.3   132  ILE132      0.0001
    107  N         42.4390  -17.3930   43.3990 N.3   191  MET191     -0.1245
    108  CA        41.1120  -16.8560   43.1660 C.3   191  MET191      0.1570
    109  C         40.8220  -16.8300   41.6580 C.2   191  MET191      0.2261
    110  O         41.6360  -17.3160   40.8610 O.2   191  MET191     -0.2867
    111  CB        40.9870  -15.4560   43.7660 C.3   191  MET191      0.0387
    112  CG        40.9080  -15.4850   45.2590 C.3   191  MET191      0.0595
    113  SD        41.0490  -13.8570   45.9670 S.3   191  MET191     -0.1393
    114  CE        42.8140  -13.6740   45.8410 C.3   191  MET191      0.0692
    115  N         40.7870   -9.3510   40.0600 N.3   211  ILE211     -0.1245
    116  CA        40.1290  -10.4510   40.7600 C.3   211  ILE211      0.1561
    117  C         38.6240  -10.3000   40.7090 C.2   211  ILE211      0.2260
    118  O         38.0700   -9.2230   41.0820 O.2   211  ILE211     -0.2867
    119  CB        40.5460  -10.4070   42.2570 C.3   211  ILE211      0.0252
    120  CG1       42.0620  -10.5630   42.4230 C.3   211  ILE211      0.0019
    121  CG2       39.7050  -11.3870   43.1210 C.3   211  ILE211      0.0019
    122  CD1       42.4870  -10.4270   43.9030 C.3   211  ILE211      0.0001
    123  N         35.0980  -10.8090   42.2990 N.3   213  ASP213     -0.1239
    124  CA        34.5400  -10.9960   43.6380 C.3   213  ASP213      0.1674
    125  C         33.0510  -10.6590   43.6470 C.2   213  ASP213      0.2266
    126  O         32.6640   -9.4990   43.7260 O.2   213  ASP213     -0.2867
    127  CB        35.2640  -10.1120   44.6240 C.3   213  ASP213      0.1410
    128  CG        34.8630  -10.3830   46.0900 C.2   213  ASP213      0.3668
    129  OD1       33.8230  -11.0560   46.3690 O.co2 213  ASP213     -0.2456
    130  OD2       35.6230   -9.8930   46.9820 O.co2 213  ASP213     -0.2456
    131  N         31.3670   -8.0420   46.5080 N.3   216  THR216     -0.1218
    132  CA        31.2750   -6.5510   46.6490 C.3   216  THR216      0.1862
    133  C         30.4110   -5.8610   45.6280 C.2   216  THR216      0.2287
    134  O         30.3180   -6.2760   44.4970 O.2   216  THR216     -0.2866
    135  CB        32.5670   -5.7820   46.4870 C.3   216  THR216      0.1770
    136  OG1       33.5190   -6.5780   45.7810 O.3   216  THR216     -0.2211
    137  CG2       33.0610   -5.4570   47.7560 C.3   216  THR216      0.0375
    138  N         37.2690   -1.7810   42.8170 N.3   220  THR220     -0.1218
    139  CA        38.4280   -1.4710   43.6510 C.3   220  THR220      0.1862
    140  C         39.6710   -1.2010   42.8130 C.2   220  THR220      0.2287
    141  O         39.9440   -1.8840   41.8300 O.2   220  THR220     -0.2866
    142  CB        38.6280   -2.6880   44.5790 C.3   220  THR220      0.1770
    143  OG1       37.9880   -2.4260   45.8060 O.3   220  THR220     -0.2211
    144  CG2       40.0400   -3.1360   44.7910 C.3   220  THR220      0.0375
    145  N         41.6370    0.8460   47.4900 N.3   291  ILE291     -0.1245
    146  CA        42.0140    0.0020   48.6040 C.3   291  ILE291      0.1561
    147  C         43.2070   -0.8670   48.2570 C.2   291  ILE291      0.2260
    148  O         43.3230   -1.4020   47.1750 O.2   291  ILE291     -0.2867
    149  CB        40.7740   -0.7650   49.2340 C.3   291  ILE291      0.0252
    150  CG1       41.1660   -1.6320   50.4320 C.3   291  ILE291      0.0019
    151  CG2       40.0140   -1.5750   48.1960 C.3   291  ILE291      0.0019
    152  CD1       41.5610   -0.8280   51.7000 C.3   291  ILE291      0.0001
    153  N         44.8520   -4.0110   48.7600 N.3   293  LEU293     -0.1231
    154  CA        44.5860   -5.3570   49.1870 C.3   293  LEU293      0.1693
    155  C         45.8180   -6.1840   49.0280 C.2   293  LEU293      0.2591
    156  O         46.0730   -7.0740   49.8350 O.2   293  LEU293     -0.2718
    157  CB        43.5190   -5.9750   48.2950 C.3   293  LEU293      0.0284
    158  CG        42.0680   -5.9750   48.7580 C.3   293  LEU293      0.0019
    159  CD1       41.8570   -5.3130   50.1410 C.3   293  LEU293      0.0001
    160  CD2       41.1560   -5.3800   47.6870 C.3   293  LEU293      0.0001
    161  N         46.5800   -5.8900   47.9810 N.am  294  GLU294     -0.1979
    162  CA        47.6810   -6.7300   47.5390 C.3   294  GLU294      0.1602
    163  C         48.3780   -5.9400   46.4410 C.2   294  GLU294      0.2287
    164  O         47.7840   -5.0460   45.8260 O.2   294  GLU294     -0.2864
    165  CB        47.1440   -8.0470   47.0010 C.3   294  GLU294      0.0415
    166  CG        48.0120   -9.2720   47.1970 C.3   294  GLU294      0.1163
    167  CD        47.7600  -10.3400   46.0860 C.2   294  GLU294      0.3649
    168  OE1       48.7640  -10.7160   45.4060 O.co2 294  GLU294     -0.2457
    169  OE2       46.5730  -10.7680   45.8660 O.co2 294  GLU294     -0.2457
    170  N         46.6400   -4.8400   42.8340 N.3   297  THR297     -0.1218
    171  CA        45.4860   -5.7210   42.7350 C.3   297  THR297      0.1862
    172  C         44.2110   -4.9010   42.6510 C.2   297  THR297      0.2287
    173  O         44.0830   -3.8800   43.3090 O.2   297  THR297     -0.2866
    174  CB        45.5130   -6.7580   43.8660 C.3   297  THR297      0.1770
    175  OG1       46.5880   -7.6400   43.6050 O.3   297  THR297     -0.2211
    176  CG2       44.2170   -7.5640   43.9700 C.3   297  THR297      0.0375
    177  N         39.8300   -5.2220   42.1350 N.3   299  VAL299     -0.1245
    178  CA        38.7470   -6.1920   42.3300 C.3   299  VAL299      0.1561
    179  C         37.6020   -5.6990   41.5210 C.2   299  VAL299      0.2260
    180  O         37.2790   -4.5010   41.5140 O.2   299  VAL299     -0.2867
    181  CB        38.2900   -6.3210   43.8430 C.3   299  VAL299      0.0252
    182  CG1       36.9260   -7.0340   43.9740 C.3   299  VAL299      0.0019
    183  CG2       39.3110   -7.0940   44.6620 C.3   299  VAL299      0.0019
@<TRIPOS>BOND
     1   115   116    1
     2   117   116    1
     3   117   118    2
     4   116   119    1
     5   110   109    2
     6   180   179    2
     7   179   178    1
     8   109   108    1
     9   141   140    2
    10   177   178    1
    11   119   120    1
    12   119   121    1
    13   123   124    1
    14   178   181    1
    15   120   122    1
    16   172   171    1
    17   172   173    2
    18   171   170    1
    19   171   174    1
    20   140   139    1
    21   138   139    1
    22   108   107    1
    23   108   111    1
    24   175   174    1
    25   124   125    1
    26   124   127    1
    27   125   126    2
    28   139   142    1
    29   111   112    1
    30   181   182    1
    31   181   183    1
    32   174   176    1
    33   134   133    2
    34   142   144    1
    35   142   143    1
    36   127   128    1
    37   112   113    1
    38   168   167   ar
    39    11    12    1
    40   133   132    1
    41     3     4    2
    42     3     2    1
    43   136   135    1
    44   164   163    2
    45   114   113    1
    46   169   167   ar
    47   167   166    1
    48   128   129   ar
    49   128   130   ar
    50    12    15    1
    51    12    13    1
    52     1     2    1
    53   163   162    1
    54   135   132    1
    55   135   137    1
    56   131   132    1
    57     2     5    1
    58   165   166    1
    59   165   162    1
    60   148   147    2
    61   145   146    1
    62   162   161    1
    63    13    16   am
    64    13    14    2
    65    19    18    2
    66   160   158    1
    67    16    17    1
    68    27    26    1
    69     7     6   ar
    70     7     9   ar
    71   161   155   am
    72     5     6    1
    73    98    96    1
    74   151   149    1
    75   147   146    1
    76   157   158    1
    77   157   154    1
    78    91    92    1
    79     6     8   ar
    80     9    10   ar
    81    95    96    1
    82    95    92    1
    83   146   149    1
    84    18    17    1
    85    18    22   am
    86    97    96    1
    87    26    23    1
    88   158   159    1
    89   153   154    1
    90   155   154    1
    91   155   156    2
    92    17    20    1
    93    23    22    1
    94    23    24    1
    95   149   150    1
    96    92    93    1
    97    10     8   ar
    98    20    21    1
    99    25    24    2
   100    93    94    2
   101   150   152    1
   102    86    87    2
   103    86    85    1
   104    90    88    1
   105    85    88    1
   106    85    84    1
   107    88    89    1
   108    99   100    1
   109    28    29    1
   110   102   101    2
   111    34    36   ar
   112    34    33   ar
   113    36    37   ar
   114   101   100    1
   115   100   103    1
   116    31    30    2
   117    33    32    1
   118    33    35   ar
   119    29    30    1
   120    29    32    1
   121    37    39   ar
   122    37    35   ar
   123   103   104    1
   124   103   105    1
   125   104   106    1
   126    39    41   ar
   127    35    38   ar
   128    41    40   ar
   129    38    40   ar
   130    48    47    1
   131    49    47    1
   132    47    46    1
   133    72    70    1
   134    81    79   ar
   135    81    83   ar
   136    55    54    1
   137    79    78   ar
   138    46    43    1
   139    83    82   ar
   140    54    51    1
   141    78    77    1
   142    78    80   ar
   143    76    75    2
   144    77    74    1
   145    82    80   ar
   146    70    69    1
   147    71    69    1
   148    74    75    1
   149    74    73    1
   150    69    66    1
   151    43    44    1
   152    43    42    1
   153    51    52    1
   154    51    50    1
   155    44    45    2
   156    52    56   am
   157    52    53    2
   158    56    57    1
   159    60    57    1
   160    60    61    1
   161    68    67    2
   162    58    57    1
   163    58    59    2
   164    66    65    1
   165    66    67    1
   166    61    62    1
   167    62    63    1
   168    63    64    1
