@<TRIPOS>MOLECULE
tmp/3qvkB00.pdb
 107 99 0 0 0
SMALL
GASTEIGER

@<TRIPOS>ATOM
      1  N         23.3570   21.8640    8.7380 N.3    10  ASN10      -0.1240
      2  CA        23.2930   22.9370    9.7310 C.3    10  ASN10       0.1653
      3  C         24.6430   23.6430    9.9120 C.2    10  ASN10       0.2266
      4  O         25.6810   23.1250    9.4920 O.2    10  ASN10      -0.2867
      5  CB        22.7080   22.4440   11.0680 C.3    10  ASN10       0.1155
      6  CG        23.6200   21.4740   11.8010 C.2    10  ASN10       0.2627
      7  OD1       24.7930   21.7590   12.0450 O.2    10  ASN10      -0.2716
      8  ND2       23.0710   20.3270   12.1830 N.am   10  ASN10      -0.0877
      9  N         29.2430   20.1220   15.3800 N.3    15  MET15      -0.1245
     10  CA        28.5850   18.9710   14.7610 C.3    15  MET15       0.1570
     11  C         29.2820   18.5620   13.4630 C.2    15  MET15       0.2261
     12  O         29.3740   17.3740   13.1550 O.2    15  MET15      -0.2867
     13  CB        27.1000   19.2540   14.5140 C.3    15  MET15       0.0387
     14  CG        26.2520   17.9950   14.3550 C.3    15  MET15       0.0595
     15  SD        24.4720   18.2960   14.4080 S.3    15  MET15      -0.1393
     16  CE        24.2520   18.8130   16.1100 C.3    15  MET15       0.0692
     17  N         20.5530   24.2440   13.8650 N.3    44  SER44      -0.1202
     18  CA        20.0800   22.8680   13.9950 C.3    44  SER44       0.2020
     19  C         18.7720   22.7050   13.2280 C.2    44  SER44       0.2618
     20  O         18.0340   23.6710   13.0350 O.2    44  SER44      -0.2717
     21  CB        19.8830   22.4940   15.4660 C.3    44  SER44       0.2103
     22  OG        18.8530   23.2660   16.0550 O.3    44  SER44      -0.2182
     23  N         18.4870   21.4810   12.7980 N.am   45  ILE45      -0.1979
     24  CA        17.3190   21.2190   11.9590 C.3    45  ILE45       0.1595
     25  C         16.2460   20.4690   12.7460 C.2    45  ILE45       0.2287
     26  O         16.4030   19.2860   13.0620 O.2    45  ILE45      -0.2864
     27  CB        17.7110   20.4660   10.6660 C.3    45  ILE45       0.0276
     28  CG1       18.8020   21.2410    9.9210 C.3    45  ILE45       0.0022
     29  CG2       16.4960   20.2700    9.7710 C.3    45  ILE45       0.0022
     30  CD1       19.7100   20.3850    9.0700 C.3    45  ILE45       0.0001
     31  N         14.3230   22.5000    7.4730 N.3    51  GLU51      -0.1245
     32  CA        14.7650   21.6460    6.3670 C.3    51  GLU51       0.1567
     33  C         14.8120   22.3840    5.0330 C.2    51  GLU51       0.2260
     34  O         15.6850   22.1160    4.2080 O.2    51  GLU51      -0.2867
     35  CB        13.8840   20.4010    6.2440 C.3    51  GLU51       0.0388
     36  CG        13.9740   19.4700    7.4390 C.3    51  GLU51       0.1160
     37  CD        13.7870   18.0130    7.0840 C.2    51  GLU51       0.3649
     38  OE1       13.0240   17.7050    6.1420 O.co2  51  GLU51      -0.2457
     39  OE2       14.4070   17.1700    7.7630 O.co2  51  GLU51      -0.2457
     40  N         24.4120   15.1330    5.5460 N.3    76  ALA76      -0.1231
     41  CA        24.5460   14.6160    6.9110 C.3    76  ALA76       0.1694
     42  C         23.5150   15.1500    7.9100 C.2    76  ALA76       0.2593
     43  O         23.8600   15.5550    9.0250 O.2    76  ALA76      -0.2718
     44  CB        25.9690   14.8300    7.4250 C.3    76  ALA76       0.0304
     45  N         22.2510   15.1500    7.4970 N.am   77  SER77      -0.1938
     46  CA        21.1340   15.3990    8.4020 C.3    77  SER77       0.2055
     47  C         20.0790   14.3270    8.1730 C.2    77  SER77       0.2643
     48  O         19.8440   13.9210    7.0320 O.2    77  SER77      -0.2714
     49  CB        20.5360   16.7840    8.1740 C.3    77  SER77       0.2130
     50  OG        19.6550   17.1240    9.2250 O.3    77  SER77      -0.2179
     51  N         19.4450   13.8760    9.2550 N.am   78  PHE78      -0.1959
     52  CA        18.5370   12.7240    9.2000 C.3    78  PHE78       0.1771
     53  C         17.2350   12.9660    8.4240 C.2    78  PHE78       0.2620
     54  O         16.4790   12.0300    8.1620 O.2    78  PHE78      -0.2715
     55  CB        18.2480   12.1880   10.6080 C.3    78  PHE78       0.0574
     56  CG        17.6640   10.8000   10.6190 C.ar   78  PHE78      -0.0200
     57  CD1       18.4580    9.6940   10.3270 C.ar   78  PHE78      -0.0042
     58  CD2       16.3180   10.6000   10.9180 C.ar   78  PHE78      -0.0042
     59  CE1       17.9210    8.4090   10.3320 C.ar   78  PHE78      -0.0003
     60  CE2       15.7720    9.3170   10.9240 C.ar   78  PHE78      -0.0003
     61  CZ        16.5760    8.2210   10.6320 C.ar   78  PHE78      -0.0000
     62  N         16.9770   14.2150    8.0500 N.am   79  GLY79      -0.1954
     63  CA        15.8460   14.5220    7.1810 C.3    79  GLY79       0.1869
     64  C         16.2120   14.4930    5.7070 C.2    79  GLY79       0.2309
     65  O         15.3590   14.7270    4.8490 O.2    79  GLY79      -0.2863
     66  N         15.3550    8.9650   17.5310 N.3   116  THR116     -0.1203
     67  CA        15.7190   10.3230   17.1180 C.3   116  THR116      0.1994
     68  C         15.6240   11.3340   18.2760 C.2   116  THR116      0.2618
     69  O         15.4260   10.9430   19.4290 O.2   116  THR116     -0.2717
     70  CB        14.8990   10.7760   15.8720 C.3   116  THR116      0.1784
     71  OG1       15.4630   11.9760   15.3280 O.3   116  THR116     -0.2211
     72  CG2       13.4280   11.0070   16.2190 C.3   116  THR116      0.0376
     73  N         15.7690   12.6210   17.9590 N.am  117  THR117     -0.1952
     74  CA        15.8430   13.6860   18.9690 C.3   117  THR117      0.1897
     75  C         14.4750   14.2030   19.4350 C.2   117  THR117      0.2313
     76  O         13.9820   13.7960   20.4910 O.2   117  THR117     -0.2863
     77  CB        16.7170   14.8740   18.4850 C.3   117  THR117      0.1794
     78  OG1       16.2490   15.3290   17.2070 O.3   117  THR117     -0.2208
     79  CG2       18.1770   14.4600   18.3680 C.3   117  THR117      0.0378
     80  N         10.0530   15.8300   14.7660 N.3   121  THR121     -0.1218
     81  CA        10.8210   15.3500   13.6140 C.3   121  THR121      0.1862
     82  C         10.4200   13.9340   13.1880 C.2   121  THR121      0.2287
     83  O         10.8530   13.4540   12.1370 O.2   121  THR121     -0.2866
     84  CB        12.3500   15.3940   13.8680 C.3   121  THR121      0.1770
     85  OG1       12.7000   14.4690   14.9060 O.3   121  THR121     -0.2211
     86  CG2       12.8000   16.7980   14.2590 C.3   121  THR121      0.0375
     87  N         18.3640   19.0060   19.2920 N.3   148  VAL148     -0.1245
     88  CA        19.4750   18.4110   18.5420 C.3   148  VAL148      0.1561
     89  C         20.8440   18.8400   19.0870 C.2   148  VAL148      0.2260
     90  O         21.7600   18.0190   19.1910 O.2   148  VAL148     -0.2867
     91  CB        19.3640   18.7120   17.0180 C.3   148  VAL148      0.0252
     92  CG1       20.5530   18.1410   16.2580 C.3   148  VAL148      0.0019
     93  CG2       18.0680   18.1410   16.4520 C.3   148  VAL148      0.0019
     94  N         18.6740    8.4020   14.6620 N.3   181  GLY181     -0.1210
     95  CA        17.9980    9.4390   13.8910 C.3   181  GLY181      0.1956
     96  C         18.5960   10.8290   13.9710 C.2   181  GLY181      0.2613
     97  O         17.8630   11.8180   14.0260 O.2   181  GLY181     -0.2717
     98  N         19.9250   10.9060   13.9680 N.am  182  SER182     -0.1938
     99  CA        20.6350   12.1860   13.9870 C.3   182  SER182      0.2055
    100  C         22.0670   12.0370   13.4840 C.2   182  SER182      0.2643
    101  O         22.6690   10.9670   13.6020 O.2   182  SER182     -0.2714
    102  CB        20.6380   12.7890   15.3970 C.3   182  SER182      0.2130
    103  OG        21.1700   14.1030   15.3920 O.3   182  SER182     -0.2179
    104  N         22.6050   13.1170   12.9250 N.am  183  GLY183     -0.1954
    105  CA        24.0000   13.1580   12.4960 C.3   183  GLY183      0.1869
    106  C         24.9680   13.2700   13.6620 C.2   183  GLY183      0.2309
    107  O         26.1350   12.8940   13.5440 O.2   183  GLY183     -0.2863
@<TRIPOS>BOND
     1    34    33    2
     2    65    64    2
     3    33    32    1
     4    40    41    1
     5    64    63    1
     6    38    37   ar
     7    35    32    1
     8    35    36    1
     9    32    31    1
    10    41    44    1
    11    41    42    1
    12    48    47    2
    13    37    36    1
    14    37    39   ar
    15    63    62    1
    16    45    42   am
    17    45    46    1
    18    42    43    2
    19    62    53   am
    20    54    53    2
    21    47    46    1
    22    47    51   am
    23    49    46    1
    24    49    50    1
    25    53    52    1
    26     1     2    1
    27    30    28    1
    28    52    51    1
    29    52    55    1
    30     4     3    2
    31     2     3    1
    32     2     5    1
    33    29    27    1
    34    28    27    1
    35    57    59   ar
    36    57    56   ar
    37    59    61   ar
    38    55    56    1
    39    56    58   ar
    40    61    60   ar
    41    27    24    1
    42    58    60   ar
    43     5     6    1
    44     6     7    2
    45     6     8   am
    46    24    25    1
    47    24    23    1
    48    83    82    2
    49   105   104    1
    50   105   106    1
    51    25    26    2
    52    23    19   am
    53   104   100   am
    54    20    19    2
    55    12    11    2
    56    82    81    1
    57    19    18    1
    58    11    10    1
    59   100   101    2
    60   100    99    1
    61   107   106    2
    62    81    84    1
    63    81    80    1
    64    17    18    1
    65    84    86    1
    66    84    85    1
    67    95    96    1
    68    95    94    1
    69    98    96   am
    70    98    99    1
    71    96    97    2
    72    99   102    1
    73    18    21    1
    74    14    15    1
    75    14    13    1
    76    15    16    1
    77    13    10    1
    78    10     9    1
    79    71    70    1
    80   103   102    1
    81    21    22    1
    82    70    72    1
    83    70    67    1
    84    92    91    1
    85    93    91    1
    86    91    88    1
    87    67    66    1
    88    67    68    1
    89    78    77    1
    90    73    68   am
    91    73    74    1
    92    68    69    2
    93    79    77    1
    94    77    74    1
    95    88    89    1
    96    88    87    1
    97    74    75    1
    98    89    90    2
    99    75    76    2
