@<TRIPOS>MOLECULE
tmp/3qvlA00.pdb
 100 93 0 0 0
SMALL
GASTEIGER

@<TRIPOS>ATOM
      1  N         31.7670   28.7490  -23.1980 N.3    10  ASN10      -0.1240
      2  CA        31.3150   27.7540  -22.2250 C.3    10  ASN10       0.1653
      3  C         29.7950   27.7990  -22.0410 C.2    10  ASN10       0.2266
      4  O         29.1460   28.7590  -22.4620 O.2    10  ASN10      -0.2867
      5  CB        32.0710   27.8740  -20.8900 C.3    10  ASN10       0.1155
      6  CG        31.6940   29.1130  -20.0980 C.2    10  ASN10       0.2627
      7  OD1       30.5260   29.3360  -19.7750 O.2    10  ASN10      -0.2716
      8  ND2       32.6950   29.9140  -19.7570 N.am   10  ASN10      -0.0877
      9  N         27.9100   32.8600  -16.3500 N.3    15  MET15      -0.1245
     10  CA        29.0070   33.5760  -17.0050 C.3    15  MET15       0.1570
     11  C         28.5230   34.3320  -18.2480 C.2    15  MET15       0.2261
     12  O         29.0120   35.4260  -18.5400 O.2    15  MET15      -0.2867
     13  CB        30.1610   32.6190  -17.3330 C.3    15  MET15       0.0387
     14  CG        31.4010   33.2810  -17.9420 C.3    15  MET15       0.0595
     15  SD        32.9930   32.7550  -17.2540 S.3    15  MET15      -0.1393
     16  CE        32.6450   31.0790  -16.7320 C.3    15  MET15       0.0692
     17  N         35.9700   26.5740  -19.1870 N.3    45  ILE45      -0.1245
     18  CA        37.1230   26.1840  -19.9910 C.3    45  ILE45       0.1561
     19  C         38.4050   26.2940  -19.1670 C.2    45  ILE45       0.2260
     20  O         38.8480   27.3940  -18.8250 O.2    45  ILE45      -0.2867
     21  CB        37.2100   27.0120  -21.2930 C.3    45  ILE45       0.0252
     22  CG1       35.9000   26.8930  -22.0790 C.3    45  ILE45       0.0019
     23  CG2       38.3790   26.5410  -22.1470 C.3    45  ILE45       0.0019
     24  CD1       35.5680   28.1060  -22.9180 C.3    45  ILE45       0.0001
     25  N         33.9930   35.0560  -26.3010 N.3    76  ALA76      -0.1231
     26  CA        34.1110   35.5830  -24.9420 C.3    76  ALA76       0.1694
     27  C         34.7440   34.6650  -23.8900 C.2    76  ALA76       0.2593
     28  O         34.2570   34.5710  -22.7580 O.2    76  ALA76      -0.2718
     29  CB        32.7620   36.1210  -24.4620 C.3    76  ALA76       0.0304
     30  N         35.8180   33.9810  -24.2710 N.am   77  SER77      -0.1938
     31  CA        36.6620   33.2950  -23.3000 C.3    77  SER77       0.2055
     32  C         38.1200   33.5860  -23.6150 C.2    77  SER77       0.2643
     33  O         38.5060   33.6820  -24.7820 O.2    77  SER77      -0.2714
     34  CB        36.3890   31.7920  -23.2630 C.3    77  SER77       0.2130
     35  OG        36.8680   31.1580  -24.4280 O.3    77  SER77      -0.2179
     36  N         38.9180   33.7280  -22.5610 N.am   78  PHE78      -0.1959
     37  CA        40.2960   34.2360  -22.6600 C.3    78  PHE78       0.1771
     38  C         41.2990   33.3770  -23.4500 C.2    78  PHE78       0.2620
     39  O         42.4410   33.7860  -23.6610 O.2    78  PHE78      -0.2715
     40  CB        40.8410   34.5730  -21.2670 C.3    78  PHE78       0.0574
     41  CG        41.9800   35.5550  -21.2830 C.ar   78  PHE78      -0.0200
     42  CD1       41.7550   36.8990  -21.5750 C.ar   78  PHE78      -0.0042
     43  CD2       43.2780   35.1380  -21.0040 C.ar   78  PHE78      -0.0042
     44  CE1       42.8080   37.8110  -21.5910 C.ar   78  PHE78      -0.0003
     45  CE2       44.3360   36.0430  -21.0190 C.ar   78  PHE78      -0.0003
     46  CZ        44.0990   37.3810  -21.3130 C.ar   78  PHE78      -0.0000
     47  N         40.8760   32.1990  -23.8920 N.am   79  GLY79      -0.1954
     48  CA        41.7030   31.3890  -24.7790 C.3    79  GLY79       0.1869
     49  C         41.3930   31.6310  -26.2460 C.2    79  GLY79       0.2309
     50  O         42.0480   31.0630  -27.1230 O.2    79  GLY79      -0.2863
     51  N         44.6850   35.8880  -14.5350 N.3   116  THR116     -0.1203
     52  CA        43.6800   34.8840  -14.8890 C.3   116  THR116      0.1994
     53  C         43.2760   34.0610  -13.6560 C.2   116  THR116      0.2619
     54  O         43.6830   34.3830  -12.5370 O.2   116  THR116     -0.2717
     55  CB        44.1490   33.9930  -16.0790 C.3   116  THR116      0.1784
     56  OG1       43.0440   33.2290  -16.5770 O.3   116  THR116     -0.2211
     57  CG2       45.2890   33.0570  -15.6720 C.3   116  THR116      0.0376
     58  N         42.4790   33.0120  -13.8570 N.am  117  THR117     -0.1938
     59  CA        41.8940   32.2720  -12.7340 C.3   117  THR117      0.2028
     60  C         42.6860   31.0150  -12.3360 C.2   117  THR117      0.2642
     61  O         43.2030   30.9410  -11.2200 O.2   117  THR117     -0.2714
     62  CB        40.4000   31.9360  -12.9840 C.3   117  THR117      0.1808
     63  OG1       39.7970   32.9680  -13.7760 O.3   117  THR117     -0.2208
     64  CG2       39.6480   31.8230  -11.6660 C.3   117  THR117      0.0379
     65  N         42.7740   30.0400  -13.2420 N.am  118  LEU118     -0.1977
     66  CA        43.4730   28.7750  -12.9710 C.3   118  LEU118      0.1596
     67  C         44.9010   28.7540  -13.5210 C.2   118  LEU118      0.2287
     68  O         45.1280   29.1810  -14.6550 O.2   118  LEU118     -0.2864
     69  CB        42.7000   27.5810  -13.5470 C.3   118  LEU118      0.0297
     70  CG        41.8200   26.6740  -12.6760 C.3   118  LEU118      0.0022
     71  CD1       41.5070   25.4080  -13.4520 C.3   118  LEU118      0.0001
     72  CD2       42.4620   26.3090  -11.3430 C.3   118  LEU118      0.0001
     73  N         45.8360   27.2680  -17.0520 N.3   121  THR121     -0.1218
     74  CA        45.4300   28.0520  -18.2200 C.3   121  THR121      0.1862
     75  C         46.4720   29.1070  -18.6010 C.2   121  THR121      0.2287
     76  O         46.3520   29.7520  -19.6450 O.2   121  THR121     -0.2866
     77  CB        44.0500   28.7330  -18.0240 C.3   121  THR121      0.1770
     78  OG1       44.1480   29.7570  -17.0280 O.3   121  THR121     -0.2211
     79  CG2       42.9880   27.7150  -17.6150 C.3   121  THR121      0.0375
     80  N         37.5610   28.3810  -12.5080 N.3   148  VAL148     -0.1245
     81  CA        36.9740   29.4560  -13.3110 C.3   148  VAL148      0.1561
     82  C         35.6100   29.9110  -12.7740 C.2   148  VAL148      0.2260
     83  O         35.3410   31.1120  -12.6760 O.2   148  VAL148     -0.2867
     84  CB        36.8790   29.0420  -14.8070 C.3   148  VAL148      0.0252
     85  CG1       35.9440   29.9570  -15.5840 C.3   148  VAL148      0.0019
     86  CG2       38.2640   29.0370  -15.4390 C.3   148  VAL148      0.0019
     87  N         42.0820   38.1910  -17.2690 N.3   181  GLY181     -0.1210
     88  CA        42.2090   36.9490  -18.0240 C.3   181  GLY181      0.1956
     89  C         41.0230   36.0080  -17.9410 C.2   181  GLY181      0.2613
     90  O         41.1950   34.7880  -17.9750 O.2   181  GLY181     -0.2717
     91  N         39.8220   36.5730  -17.8440 N.am  182  SER182     -0.1938
     92  CA        38.5960   35.7840  -17.7430 C.3   182  SER182      0.2055
     93  C         37.3720   36.5630  -18.2040 C.2   182  SER182      0.2643
     94  O         37.2500   37.7600  -17.9370 O.2   182  SER182     -0.2714
     95  CB        38.3790   35.3120  -16.3020 C.3   182  SER182      0.2130
     96  OG        37.1630   34.5930  -16.1770 O.3   182  SER182     -0.2179
     97  N         36.4650   35.8690  -18.8870 N.am  183  GLY183     -0.1954
     98  CA        35.1550   36.4220  -19.2230 C.3   183  GLY183      0.1869
     99  C         34.3310   36.6720  -17.9720 C.2   183  GLY183      0.2309
    100  O         33.4620   37.5440  -17.9560 O.2   183  GLY183     -0.2863
@<TRIPOS>BOND
     1    50    49    2
     2    25    26    1
     3    49    48    1
     4    26    29    1
     5    26    27    1
     6    33    32    2
     7    48    47    1
     8    35    34    1
     9    30    27   am
    10    30    31    1
    11    47    38   am
    12    27    28    2
    13    39    38    2
    14    32    31    1
    15    32    36   am
    16    38    37    1
    17    31    34    1
    18     1     2    1
    19    24    22    1
    20    37    36    1
    21    37    40    1
    22     4     3    2
    23     2     3    1
    24     2     5    1
    25    23    21    1
    26    22    21    1
    27    44    42   ar
    28    44    46   ar
    29    42    41   ar
    30    46    45   ar
    31    21    18    1
    32    41    40    1
    33    41    43   ar
    34    45    43   ar
    35     5     6    1
    36     6     7    2
    37     6     8   am
    38    18    17    1
    39    18    19    1
    40    76    75    2
    41    98    97    1
    42    98    99    1
    43    19    20    2
    44    97    93   am
    45    75    74    1
    46    12    11    2
    47    11    10    1
    48    74    77    1
    49    74    73    1
    50    93    94    2
    51    93    92    1
    52    88    89    1
    53    88    87    1
    54    77    79    1
    55    77    78    1
    56    90    89    2
    57    99   100    2
    58    14    13    1
    59    14    15    1
    60    89    91   am
    61    91    92    1
    62    92    95    1
    63    13    10    1
    64    15    16    1
    65    10     9    1
    66    56    55    1
    67    95    96    1
    68    55    57    1
    69    55    52    1
    70    85    84    1
    71    86    84    1
    72    52    51    1
    73    52    53    1
    74    84    81    1
    75    68    67    2
    76    58    53   am
    77    58    59    1
    78    63    62    1
    79    53    54    2
    80    69    66    1
    81    69    70    1
    82    67    66    1
    83    71    70    1
    84    81    82    1
    85    81    80    1
    86    65    66    1
    87    65    60   am
    88    62    59    1
    89    62    64    1
    90    82    83    2
    91    59    60    1
    92    70    72    1
    93    60    61    2
