@<TRIPOS>MOLECULE
tmp/3qvqC00.pdb
 130 124 0 0 0
SMALL
GASTEIGER

@<TRIPOS>ATOM
      1  N         83.4420  -17.2370   25.4030 N.3    13  HIS13      -0.1226
      2  CA        83.8100  -17.0620   26.8120 C.3    13  HIS13       0.1752
      3  C         84.8030  -15.9100   27.0090 C.2    13  HIS13       0.2595
      4  O         85.9760  -16.0380   26.6700 O.2    13  HIS13      -0.2718
      5  CB        84.4120  -18.3810   27.3140 C.3    13  HIS13       0.0759
      6  CG        84.8020  -18.3750   28.7600 C.ar   13  HIS13       0.0818
      7  ND1       86.0880  -18.6390   29.1800 N.ar   13  HIS13      -0.2268
      8  CD2       84.0740  -18.1690   29.8860 C.ar   13  HIS13       0.1154
      9  CE1       86.1380  -18.5840   30.5000 C.ar   13  HIS13       0.1986
     10  NE2       84.9290  -18.3030   30.9520 N.ar   13  HIS13      -0.2212
     11  N         84.3190  -14.8100   27.5830 N.am   14  ARG14      -0.1980
     12  CA        85.0830  -13.5630   27.6970 C.3    14  ARG14       0.1597
     13  C         85.4030  -13.0150   26.3080 C.2    14  ARG14       0.2287
     14  O         86.4680  -12.4250   26.0720 O.2    14  ARG14      -0.2864
     15  CB        86.3530  -13.7720   28.5240 C.3    14  ARG14       0.0334
     16  CG        86.0720  -14.4060   29.8800 C.3    14  ARG14       0.0492
     17  CD        87.3490  -14.6150   30.7000 C.3    14  ARG14       0.2205
     18  NE        87.1240  -15.6210   31.7400 N.pl3  14  ARG14      -0.0865
     19  CZ        88.0830  -16.1840   32.4680 C.cat  14  ARG14       0.5346
     20  NH1       89.3470  -15.8170   32.3020 N.pl3  14  ARG14       0.1354
     21  NH2       87.7800  -17.1230   33.3700 N.pl3  14  ARG14       0.1354
     22  N         79.8420  -14.1820   26.4450 N.3    40  GLU40      -0.1245
     23  CA        79.7970  -14.0880   27.8980 C.3    40  GLU40       0.1567
     24  C         80.9320  -13.1580   28.3220 C.2    40  GLU40       0.2260
     25  O         82.0460  -13.2550   27.8110 O.2    40  GLU40      -0.2867
     26  CB        79.9770  -15.4710   28.5450 C.3    40  GLU40       0.0388
     27  CG        79.8520  -15.4620   30.0860 C.3    40  GLU40       0.1160
     28  CD        81.1840  -15.3920   30.8220 C.2    40  GLU40       0.3649
     29  OE1       82.2430  -15.2870   30.1760 O.co2  40  GLU40      -0.2457
     30  OE2       81.1710  -15.4440   32.0720 O.co2  40  GLU40      -0.2457
     31  N         82.3220  -10.8650   32.1190 N.3    42  ASP42      -0.1239
     32  CA        82.1430  -10.7090   33.5650 C.3    42  ASP42       0.1674
     33  C         82.0770   -9.2440   33.9530 C.2    42  ASP42       0.2266
     34  O         82.8640   -8.4440   33.4610 O.2    42  ASP42      -0.2867
     35  CB        83.3230  -11.3440   34.2850 C.3    42  ASP42       0.1410
     36  CG        83.6310  -12.7270   33.7660 C.2    42  ASP42       0.3668
     37  OD1       82.8270  -13.6460   34.0430 O.co2  42  ASP42      -0.2456
     38  OD2       84.6600  -12.8970   33.0740 O.co2  42  ASP42      -0.2456
     39  N         87.7010  -10.1090   34.9040 N.3    54  HIS54      -0.1241
     40  CA        87.4440  -11.3830   35.5820 C.3    54  HIS54       0.1621
     41  C         88.0190  -11.5030   36.9950 C.2    54  HIS54       0.2264
     42  O         87.2920  -11.8190   37.9410 O.2    54  HIS54      -0.2867
     43  CB        87.9500  -12.5600   34.7550 C.3    54  HIS54       0.0745
     44  CG        87.7280  -13.8790   35.4220 C.ar   54  HIS54       0.0817
     45  ND1       88.6420  -14.4330   36.2900 N.ar   54  HIS54      -0.2268
     46  CD2       86.6740  -14.7290   35.3870 C.ar   54  HIS54       0.1154
     47  CE1       88.1710  -15.5810   36.7460 C.ar   54  HIS54       0.1986
     48  NE2       86.9790  -15.7830   36.2140 N.ar   54  HIS54      -0.2212
     49  N         77.7850  -12.1680   33.0860 N.3   113  GLU113     -0.1245
     50  CA        78.0140  -12.8180   34.3680 C.3   113  GLU113      0.1567
     51  C         78.2770  -11.7800   35.4410 C.2   113  GLU113      0.2260
     52  O         79.2650  -11.0420   35.3860 O.2   113  GLU113     -0.2867
     53  CB        79.1620  -13.8290   34.3520 C.3   113  GLU113      0.0388
     54  CG        79.2670  -14.4930   35.7340 C.3   113  GLU113      0.1160
     55  CD        80.4440  -15.4420   35.9150 C.2   113  GLU113      0.3649
     56  OE1       81.1170  -15.7980   34.9360 O.co2 113  GLU113     -0.2457
     57  OE2       80.6890  -15.8430   37.0780 O.co2 113  GLU113     -0.2457
     58  N         79.6880  -10.6340   38.6110 N.3   115  LYS115     -0.1245
     59  CA        80.8170  -11.0660   39.4340 C.3   115  LYS115      0.1561
     60  C         81.1370   -9.9860   40.4670 C.2   115  LYS115      0.2260
     61  O         82.2610   -9.4860   40.5340 O.2   115  LYS115     -0.2867
     62  CB        82.0390  -11.3250   38.5520 C.3   115  LYS115      0.0271
     63  CG        82.9260  -12.4620   39.0200 C.3   115  LYS115      0.0035
     64  CD        83.8560  -12.9350   37.9070 C.3   115  LYS115      0.0206
     65  CE        84.8630  -13.9460   38.4420 C.3   115  LYS115      0.1093
     66  NZ        85.6320  -13.3960   39.5880 N.3   115  LYS115     -0.1314
     67  N         73.7310  -14.1060   34.7970 N.3   145  SER145     -0.1217
     68  CA        74.1030  -15.3140   35.5300 C.3   145  SER145      0.1889
     69  C         75.0740  -14.9610   36.6480 C.2   145  SER145      0.2288
     70  O         75.6940  -13.9010   36.6280 O.2   145  SER145     -0.2866
     71  CB        74.7140  -16.3670   34.5960 C.3   145  SER145      0.2089
     72  OG        75.9120  -15.8970   34.0070 O.3   145  SER145     -0.2183
     73  N         77.5980  -16.9860   40.1030 N.3   147  PHE147     -0.1241
     74  CA        77.8640  -17.9520   41.1740 C.3   147  PHE147      0.1605
     75  C         77.3190  -17.4450   42.5130 C.2   147  PHE147      0.2264
     76  O         77.1390  -18.2230   43.4570 O.2   147  PHE147     -0.2867
     77  CB        79.3690  -18.1840   41.3430 C.3   147  PHE147      0.0534
     78  CG        79.9980  -18.9880   40.2430 C.ar  147  PHE147     -0.0203
     79  CD1       80.0440  -20.3700   40.3180 C.ar  147  PHE147     -0.0042
     80  CD2       80.5740  -18.3590   39.1510 C.ar  147  PHE147     -0.0042
     81  CE1       80.6370  -21.1130   39.3180 C.ar  147  PHE147     -0.0003
     82  CE2       81.1620  -19.0990   38.1380 C.ar  147  PHE147     -0.0003
     83  CZ        81.1930  -20.4730   38.2220 C.ar  147  PHE147     -0.0000
     84  N         75.1680  -20.2250   38.2150 N.3   167  ASN167     -0.1240
     85  CA        76.4790  -20.8280   37.9910 C.3   167  ASN167      0.1653
     86  C         76.9450  -21.6420   39.1870 C.2   167  ASN167      0.2266
     87  O         76.8990  -21.1660   40.3300 O.2   167  ASN167     -0.2867
     88  CB        77.5380  -19.7550   37.7430 C.3   167  ASN167      0.1155
     89  CG        77.3450  -19.0050   36.4350 C.2   167  ASN167      0.2627
     90  OD1       76.4630  -19.3140   35.6310 O.2   167  ASN167     -0.2716
     91  ND2       78.1850  -17.9950   36.2250 N.am  167  ASN167     -0.0877
     92  N         74.3680  -23.4480   34.9280 N.3   188  HIS188     -0.1241
     93  CA        75.6240  -23.4250   34.1820 C.3   188  HIS188      0.1621
     94  C         76.6860  -24.0820   35.0470 C.2   188  HIS188      0.2264
     95  O         76.9830  -23.6000   36.1520 O.2   188  HIS188     -0.2867
     96  CB        76.0560  -21.9870   33.8560 C.3   188  HIS188      0.0745
     97  CG        75.0050  -21.1510   33.1880 C.ar  188  HIS188      0.0817
     98  ND1       75.2320  -19.8420   32.8170 N.ar  188  HIS188     -0.2268
     99  CD2       73.7240  -21.4210   32.8370 C.ar  188  HIS188      0.1154
    100  CE1       74.1410  -19.3430   32.2650 C.ar  188  HIS188      0.1986
    101  NE2       73.2090  -20.2790   32.2700 N.ar  188  HIS188     -0.2212
    102  N         80.9570  -24.8000   31.0500 N.3   212  PHE212     -0.1227
    103  CA        82.1770  -24.0410   30.7720 C.3   212  PHE212      0.1736
    104  C         83.3780  -24.8140   31.3200 C.2   212  PHE212      0.2596
    105  O         83.1990  -25.7000   32.1500 O.2   212  PHE212     -0.2718
    106  CB        82.0960  -22.6820   31.4850 C.3   212  PHE212      0.0547
    107  CG        81.8300  -22.7970   32.9720 C.ar  212  PHE212     -0.0202
    108  CD1       82.8710  -23.0420   33.8580 C.ar  212  PHE212     -0.0042
    109  CD2       80.5380  -22.6880   33.4770 C.ar  212  PHE212     -0.0042
    110  CE1       82.6310  -23.1690   35.2250 C.ar  212  PHE212     -0.0003
    111  CE2       80.2920  -22.8030   34.8440 C.ar  212  PHE212     -0.0003
    112  CZ        81.3420  -23.0530   35.7130 C.ar  212  PHE212     -0.0000
    113  N         84.5980  -24.5320   30.8590 N.am  213  THR213     -0.1953
    114  CA        84.8780  -23.8230   29.6170 C.3   213  THR213      0.1897
    115  C         85.4600  -24.8920   28.7050 C.2   213  THR213      0.2313
    116  O         86.4060  -25.5920   29.0890 O.2   213  THR213     -0.2863
    117  CB        85.9240  -22.7130   29.8300 C.3   213  THR213      0.1794
    118  OG1       85.3600  -21.6810   30.6470 O.3   213  THR213     -0.2208
    119  CG2       86.3760  -22.1100   28.5000 C.3   213  THR213      0.0378
    120  N         80.3940  -22.6860   26.8010 N.3   232  PHE232     -0.1241
    121  CA        81.2170  -21.4870   26.8000 C.3   232  PHE232      0.1605
    122  C         82.6010  -21.9010   26.3350 C.2   232  PHE232      0.2264
    123  O         83.2010  -22.8010   26.9130 O.2   232  PHE232     -0.2867
    124  CB        81.3060  -20.8990   28.2160 C.3   232  PHE232      0.0534
    125  CG        79.9810  -20.4720   28.7800 C.ar  232  PHE232     -0.0203
    126  CD1       79.5130  -19.1750   28.5870 C.ar  232  PHE232     -0.0042
    127  CD2       79.2040  -21.3630   29.5210 C.ar  232  PHE232     -0.0042
    128  CE1       78.2820  -18.7800   29.1010 C.ar  232  PHE232     -0.0003
    129  CE2       77.9810  -20.9750   30.0360 C.ar  232  PHE232     -0.0003
    130  CZ        77.5170  -19.6830   29.8330 C.ar  232  PHE232     -0.0000
@<TRIPOS>BOND
     1     1     2    1
     2    14    13    2
     3    13    12    1
     4   122   121    1
     5   122   123    2
     6    22    23    1
     7     4     3    2
     8   121   120    1
     9   121   124    1
    10     2     3    1
    11     2     5    1
    12     3    11   am
    13     5     6    1
    14    11    12    1
    15    12    15    1
    16    25    24    2
    17    23    24    1
    18    23    26    1
    19   124   125    1
    20   119   117    1
    21    15    16    1
    22    26    27    1
    23   126   125   ar
    24   126   128   ar
    25   115   116    2
    26   115   114    1
    27     6     7   ar
    28     6     8   ar
    29   125   127   ar
    30   128   130   ar
    31     7     9   ar
    32   127   129   ar
    33   114   117    1
    34   114   113    1
    35   117   118    1
    36   130   129   ar
    37    16    17    1
    38     8    10   ar
    39    27    28    1
    40    29    28   ar
    41     9    10   ar
    42    17    18    1
    43   103   102    1
    44   103   104    1
    45   103   106    1
    46    28    30   ar
    47   113   104   am
    48   104   105    2
    49   106   107    1
    50    18    19    2
    51    31    32    1
    52   100   101   ar
    53   100    98   ar
    54   101    99   ar
    55    20    19    1
    56    19    21    1
    57    98    97   ar
    58    99    97   ar
    59   107   109   ar
    60   107   108   ar
    61    38    36   ar
    62    49    50    1
    63    97    96    1
    64    34    33    2
    65   109   111   ar
    66    32    33    1
    67    32    35    1
    68    36    37   ar
    69    36    35    1
    70    96    93    1
    71   108   110   ar
    72    72    71    1
    73    93    92    1
    74    93    94    1
    75    53    50    1
    76    53    54    1
    77    50    51    1
    78    71    68    1
    79    43    44    1
    80    43    40    1
    81    67    68    1
    82   111   112   ar
    83    39    40    1
    84    56    55   ar
    85    94    95    2
    86   110   112   ar
    87    52    51    2
    88    46    44   ar
    89    46    48   ar
    90    44    45   ar
    91    68    69    1
    92    40    41    1
    93    90    89    2
    94    54    55    1
    95    55    57   ar
    96    48    47   ar
    97    91    89   am
    98    45    47   ar
    99    89    88    1
   100    70    69    2
   101    41    42    2
   102    88    85    1
   103    64    65    1
   104    64    63    1
   105    85    84    1
   106    85    86    1
   107    82    83   ar
   108    82    80   ar
   109    83    81   ar
   110    65    66    1
   111    62    63    1
   112    62    59    1
   113    58    59    1
   114    80    78   ar
   115    86    87    2
   116    81    79   ar
   117    59    60    1
   118    73    74    1
   119    78    79   ar
   120    78    77    1
   121    60    61    2
   122    74    77    1
   123    74    75    1
   124    75    76    2
