@<TRIPOS>MOLECULE
tmp/3qvtA02.pdb
 131 119 0 0 0
SMALL
GASTEIGER

@<TRIPOS>ATOM
      1  N         20.2150   34.1030   17.4510 N.3   225  ASP225     -0.1225
      2  CA        18.8470   34.2480   16.9370 C.3   225  ASP225      0.1805
      3  C         18.7310   34.1810   15.4150 C.2   225  ASP225      0.2598
      4  O         19.0900   35.1160   14.7140 O.2   225  ASP225     -0.2718
      5  CB        18.2240   35.5480   17.4910 C.3   225  ASP225      0.1424
      6  CG        16.6850   35.6030   17.3430 C.2   225  ASP225      0.3668
      7  OD1       15.9880   34.5870   17.0160 O.co2 225  ASP225     -0.2456
      8  OD2       16.1640   36.7060   17.5830 O.co2 225  ASP225     -0.2456
      9  N         18.2340   33.0740   14.8750 N.am  226  GLY226     -0.1957
     10  CA        18.2050   32.9190   13.4340 C.3   226  GLY226      0.1869
     11  C         17.5130   34.0960   12.8020 C.2   226  GLY226      0.2309
     12  O         16.4010   34.4310   13.1970 O.2   226  GLY226     -0.2863
     13  N         15.8760   35.0310    9.5440 N.3   228  THR228     -0.1203
     14  CA        15.3890   34.1010    8.5370 C.3   228  THR228      0.1994
     15  C         14.3630   34.6860    7.5130 C.2   228  THR228      0.2618
     16  O         14.3270   34.2380    6.3400 O.2   228  THR228     -0.2717
     17  CB        14.8360   32.8420    9.2180 C.3   228  THR228      0.1784
     18  OG1       13.6840   33.1670    9.9830 O.3   228  THR228     -0.2211
     19  CG2       15.8400   32.2690   10.1760 C.3   228  THR228      0.0376
     20  N         13.5570   35.6550    7.9410 N.am  229  GLY229     -0.1942
     21  CA        12.5260   36.2120    7.0640 C.3   229  GLY229      0.2014
     22  C         12.3920   37.7100    7.1490 C.2   229  GLY229      0.2639
     23  O         13.1220   38.4590    6.5100 O.2   229  GLY229     -0.2714
     24  N         11.4480   38.1800    7.9430 N.am  230  GLU230     -0.1963
     25  CA        11.1970   39.5850    7.9640 C.3   230  GLU230      0.1733
     26  C         12.4610   40.3960    8.3510 C.2   230  GLU230      0.2617
     27  O         12.7380   41.4460    7.7560 O.2   230  GLU230     -0.2715
     28  CB        10.0390   39.8970    8.9080 C.3   230  GLU230      0.0429
     29  CG         9.8780   41.4180    9.0600 C.3   230  GLU230      0.1163
     30  CD         9.1080   41.7890   10.3000 C.2   230  GLU230      0.3649
     31  OE1        9.2760   41.0960   11.3560 O.co2 230  GLU230     -0.2457
     32  OE2        8.3590   42.8030   10.2280 O.co2 230  GLU230     -0.2457
     33  N         13.2510   39.9030    9.3100 N.am  231  THR231     -0.1937
     34  CA        14.4510   40.6130    9.7670 C.3   231  THR231      0.2028
     35  C         15.6160   40.5430    8.7640 C.2   231  THR231      0.2642
     36  O         16.3490   41.5380    8.5740 O.2   231  THR231     -0.2714
     37  CB        14.8260   40.2420   11.2220 C.3   231  THR231      0.1808
     38  OG1       13.6710   40.4450   12.0660 O.3   231  THR231     -0.2208
     39  CG2       15.9550   41.1640   11.7650 C.3   231  THR231      0.0379
     40  N         15.7140   39.4320    8.0420 N.am  232  LEU232     -0.1977
     41  CA        16.5140   39.3370    6.8140 C.3   232  LEU232      0.1596
     42  C         16.1900   40.4210    5.7610 C.2   232  LEU232      0.2287
     43  O         17.1090   40.9810    5.1350 O.2   232  LEU232     -0.2864
     44  CB        16.2470   38.0030    6.1530 C.3   232  LEU232      0.0297
     45  CG        17.0830   37.7330    4.9130 C.3   232  LEU232      0.0022
     46  CD1       18.5220   37.9360    5.2790 C.3   232  LEU232      0.0001
     47  CD2       16.8170   36.2630    4.4500 C.3   232  LEU232      0.0001
     48  N          3.8730   40.8300   12.8310 N.3   255  ASN255     -0.1240
     49  CA         4.0600   39.4310   12.5060 C.3   255  ASN255      0.1653
     50  C          2.9600   38.6150   13.2020 C.2   255  ASN255      0.2266
     51  O          2.5550   38.9320   14.3510 O.2   255  ASN255     -0.2867
     52  CB         5.3760   38.9830   13.0950 C.3   255  ASN255      0.1155
     53  CG         6.5480   39.5820   12.4170 C.2   255  ASN255      0.2627
     54  OD1        7.1240   38.9570   11.5460 O.2   255  ASN255     -0.2716
     55  ND2        6.9370   40.8320   12.8240 N.am  255  ASN255     -0.0877
     56  N          1.5670   34.4350   13.5050 N.3   257  LEU257     -0.1245
     57  CA         1.9220   33.0650   13.1800 C.3   257  LEU257      0.1561
     58  C          1.1800   32.2040   14.1740 C.2   257  LEU257      0.2260
     59  O          0.6150   32.7140   15.1450 O.2   257  LEU257     -0.2867
     60  CB         3.4500   32.8030   13.3410 C.3   257  LEU257      0.0270
     61  CG         4.2540   32.8330   14.6870 C.3   257  LEU257      0.0019
     62  CD1        5.7370   32.4420   14.4830 C.3   257  LEU257      0.0001
     63  CD2        4.2300   34.1070   15.4970 C.3   257  LEU257      0.0001
     64  N          5.7400   27.7820   18.2120 N.3   261  ASP261     -0.1239
     65  CA         6.4560   29.0560   18.3480 C.3   261  ASP261      0.1674
     66  C          5.5110   30.2630   18.6500 C.2   261  ASP261      0.2266
     67  O          5.7560   31.0420   19.5810 O.2   261  ASP261     -0.2867
     68  CB         7.3300   29.3080   17.0970 C.3   261  ASP261      0.1410
     69  CG         8.3650   30.4220   17.3070 C.2   261  ASP261      0.3668
     70  OD1        8.7000   31.1530   16.3330 O.co2 261  ASP261     -0.2456
     71  OD2        8.8540   30.5680   18.4450 O.co2 261  ASP261     -0.2456
     72  N          5.2330   32.4730   22.2240 N.3   265  LEU265     -0.1245
     73  CA         5.4310   33.9160   22.0370 C.3   265  LEU265      0.1561
     74  C          4.1550   34.7320   22.3020 C.2   265  LEU265      0.2260
     75  O          4.2260   35.9590   22.4580 O.2   265  LEU265     -0.2867
     76  CB         6.0070   34.2250   20.6410 C.3   265  LEU265      0.0270
     77  CG         7.3700   33.6200   20.2790 C.3   265  LEU265      0.0019
     78  CD1        7.5840   33.7290   18.7830 C.3   265  LEU265      0.0001
     79  CD2        8.5220   34.2710   21.0250 C.3   265  LEU265      0.0001
     80  N         12.2990   38.1180   21.6440 N.3   274  LYS274     -0.1245
     81  CA        12.2180   38.0940   20.1860 C.3   274  LYS274      0.1561
     82  C         11.9670   39.4570   19.5570 C.2   274  LYS274      0.2260
     83  O         12.6020   39.7990   18.5480 O.2   274  LYS274     -0.2867
     84  CB        11.1480   37.1250   19.7120 C.3   274  LYS274      0.0271
     85  CG        11.0560   37.1280   18.2430 C.3   274  LYS274      0.0035
     86  CD        10.8620   35.7390   17.7300 C.3   274  LYS274      0.0206
     87  CE        12.1440   34.9490   17.7810 C.3   274  LYS274      0.1093
     88  NZ        11.8660   33.7080   17.0330 N.3   274  LYS274     -0.1314
     89  N         14.4620   41.5140   16.9370 N.3   278  LYS278     -0.1245
     90  CA        13.9110   42.0530   15.6790 C.3   278  LYS278      0.1561
     91  C         13.9170   43.6060   15.5410 C.2   278  LYS278      0.2260
     92  O         14.2210   44.1530   14.4690 O.2   278  LYS278     -0.2867
     93  CB        12.4800   41.5430   15.4890 C.3   278  LYS278      0.0271
     94  CG        12.3500   40.0270   15.2970 C.3   278  LYS278      0.0035
     95  CD        10.9100   39.6060   15.4280 C.3   278  LYS278      0.0206
     96  CE        10.0720   40.0390   14.2370 C.3   278  LYS278      0.1093
     97  NZ         9.9800   38.8960   13.2750 N.3   278  LYS278     -0.1314
     98  N          4.4930   40.6450   17.6380 N.3   296  ILE296     -0.1245
     99  CA         4.2510   39.2560   17.2150 C.3   296  ILE296      0.1561
    100  C          2.9220   38.9410   17.8690 C.2   296  ILE296      0.2260
    101  O          2.7170   39.3230   19.0000 O.2   296  ILE296     -0.2867
    102  CB         5.3720   38.2960   17.6980 C.3   296  ILE296      0.0252
    103  CG1        6.7530   38.8350   17.2820 C.3   296  ILE296      0.0019
    104  CG2        5.1980   36.9320   17.1220 C.3   296  ILE296      0.0019
    105  CD1        7.8740   38.2550   18.1160 C.3   296  ILE296      0.0001
    106  N          4.2550   31.7380    9.0530 N.3   306  LYS306     -0.1245
    107  CA         4.3650   33.0900    9.5910 C.3   306  LYS306      0.1561
    108  C          4.2840   34.0760    8.4440 C.2   306  LYS306      0.2260
    109  O          4.9440   33.8630    7.4300 O.2   306  LYS306     -0.2867
    110  CB         5.6910   33.2320   10.3600 C.3   306  LYS306      0.0271
    111  CG         5.9420   34.6260   10.9970 C.3   306  LYS306      0.0035
    112  CD         6.4090   35.6050    9.9550 C.3   306  LYS306      0.0206
    113  CE         7.9210   35.7800    9.9650 C.3   306  LYS306      0.1093
    114  NZ         8.3810   36.6710   11.0740 N.3   306  LYS306     -0.1314
    115  N          8.1190   29.3700    8.2680 N.3   332  ASP332     -0.1239
    116  CA         9.2830   29.6230    9.1070 C.3   332  ASP332      0.1674
    117  C         10.2790   28.4560    9.1210 C.2   332  ASP332      0.2266
    118  O         11.4830   28.6770    9.0060 O.2   332  ASP332     -0.2867
    119  CB         8.8620   29.9490   10.5350 C.3   332  ASP332      0.1410
    120  CG         8.8910   31.4300   10.8110 C.2   332  ASP332      0.3668
    121  OD1        9.1430   32.2140    9.8470 O.co2 332  ASP332     -0.2456
    122  OD2        8.6680   31.8050   11.9990 O.co2 332  ASP332     -0.2456
    123  N         20.1810   37.4090   14.0560 N.3   367  LYS367     -0.1245
    124  CA        19.5370   38.7300   14.2150 C.3   367  LYS367      0.1561
    125  C         20.3140   39.5430   15.1860 C.2   367  LYS367      0.2260
    126  O         20.4340   40.7610   15.0330 O.2   367  LYS367     -0.2867
    127  CB        18.1530   38.5950   14.8170 C.3   367  LYS367      0.0271
    128  CG        17.0530   38.2130   13.8860 C.3   367  LYS367      0.0035
    129  CD        15.8050   38.6320   14.6240 C.3   367  LYS367      0.0206
    130  CE        14.6570   37.8260   14.1730 C.3   367  LYS367      0.1093
    131  NZ        14.9550   36.3790   14.2100 N.3   367  LYS367     -0.1314
@<TRIPOS>BOND
     1    47    45    1
     2    45    46    1
     3    45    44    1
     4    43    42    2
     5    42    41    1
     6    44    41    1
     7    16    15    2
     8    23    22    2
     9    41    40    1
    10    21    22    1
    11    21    20    1
    12    22    24   am
    13   109   108    2
    14    15    20   am
    15    15    14    1
    16    27    26    2
    17    24    25    1
    18    25    26    1
    19    25    28    1
    20    40    35   am
    21   115   116    1
    22    26    33   am
    23   108   107    1
    24    14    17    1
    25    14    13    1
    26    36    35    2
    27    35    34    1
    28    28    29    1
    29   118   117    2
    30   106   107    1
    31    29    30    1
    32   116   117    1
    33   116   119    1
    34    17    18    1
    35    17    19    1
    36    33    34    1
    37   107   110    1
    38    34    37    1
    39   121   120   ar
    40   112   113    1
    41   112   111    1
    42   113   114    1
    43    32    30   ar
    44    30    31   ar
    45   110   111    1
    46   119   120    1
    47   120   122   ar
    48    37    39    1
    49    37    38    1
    50    54    53    2
    51    53    55   am
    52    53    52    1
    53    49    48    1
    54    49    52    1
    55    49    50    1
    56    11    12    2
    57    11    10    1
    58    57    60    1
    59    57    56    1
    60    57    58    1
    61    50    51    2
    62    97    96    1
    63    60    61    1
    64    10     9    1
    65   128   129    1
    66   128   127    1
    67   123   124    1
    68   130   131    1
    69   130   129    1
    70    58    59    2
    71   124   127    1
    72   124   125    1
    73    96    95    1
    74    92    91    2
    75    62    61    1
    76    61    63    1
    77     4     3    2
    78     9     3   am
    79   126   125    2
    80    94    95    1
    81    94    93    1
    82     3     2    1
    83    93    90    1
    84    91    90    1
    85    90    89    1
    86    70    69   ar
    87     2     1    1
    88     2     5    1
    89     7     6   ar
    90    88    87    1
    91    68    69    1
    92    68    65    1
    93   104   102    1
    94    99    98    1
    95    99   102    1
    96    99   100    1
    97   103   102    1
    98   103   105    1
    99    69    71   ar
   100     6     5    1
   101     6     8   ar
   102    86    87    1
   103    86    85    1
   104   100   101    2
   105    64    65    1
   106    85    84    1
   107    65    66    1
   108    83    82    2
   109    66    67    2
   110    78    77    1
   111    82    81    1
   112    84    81    1
   113    81    80    1
   114    77    76    1
   115    77    79    1
   116    76    73    1
   117    73    72    1
   118    73    74    1
   119    74    75    2
