@<TRIPOS>MOLECULE
tmp/3qw4B00.pdb
 137 132 0 0 0
SMALL
GASTEIGER

@<TRIPOS>ATOM
      1  N         -8.4010  -16.4610   31.4240 N.3   278  LEU278     -0.1231
      2  CA        -7.2090  -15.6640   31.1300 C.3   278  LEU278      0.1693
      3  C         -7.5430  -14.1670   31.1190 C.2   278  LEU278      0.2591
      4  O         -8.7210  -13.7740   31.2520 O.2   278  LEU278     -0.2718
      5  CB        -6.5930  -16.0940   29.7880 C.3   278  LEU278      0.0284
      6  CG        -5.9150  -17.4630   29.7590 C.3   278  LEU278      0.0019
      7  CD1       -5.5050  -17.7690   28.3380 C.3   278  LEU278      0.0001
      8  CD2       -4.6980  -17.5110   30.6460 C.3   278  LEU278      0.0001
      9  N         -6.5030  -13.3430   30.9530 N.am  279  LYS279     -0.1980
     10  CA        -6.6370  -11.8820   30.8840 C.3   279  LYS279      0.1596
     11  C         -7.4910  -11.4310   29.6980 C.2   279  LYS279      0.2287
     12  O         -7.1690  -10.4360   29.0540 O.2   279  LYS279     -0.2864
     13  CB        -5.2490  -11.2310   30.7770 C.3   279  LYS279      0.0298
     14  CG        -4.3000  -11.5590   31.9110 C.3   279  LYS279      0.0038
     15  CD        -2.8410  -11.4840   31.4480 C.3   279  LYS279      0.0206
     16  CE        -1.9120  -11.9820   32.5640 C.3   279  LYS279      0.1093
     17  NZ        -0.5100  -12.1810   32.0880 N.3   279  LYS279     -0.1314
     18  N         -4.1240  -24.5850   31.1800 N.3   287  TYR287     -0.1227
     19  CA        -3.2580  -23.5070   31.6480 C.3   287  TYR287      0.1736
     20  C         -1.8750  -24.0580   31.9140 C.2   287  TYR287      0.2595
     21  O         -1.7230  -25.0810   32.5900 O.2   287  TYR287     -0.2718
     22  CB        -3.8060  -22.8740   32.9320 C.3   287  TYR287      0.0548
     23  CG        -3.1560  -21.5600   33.3210 C.ar  287  TYR287     -0.0200
     24  CD1       -3.6530  -20.3480   32.8360 C.ar  287  TYR287     -0.0009
     25  CD2       -2.0530  -21.5280   34.1790 C.ar  287  TYR287     -0.0009
     26  CE1       -3.0650  -19.1310   33.1850 C.ar  287  TYR287      0.0417
     27  CE2       -1.4510  -20.3140   34.5380 C.ar  287  TYR287      0.0417
     28  CZ        -1.9650  -19.1160   34.0360 C.ar  287  TYR287      0.1957
     29  OH        -1.3870  -17.9090   34.3770 O.3   287  TYR287     -0.2866
     30  N         -0.8690  -23.3690   31.3910 N.am  288  ILE288     -0.1980
     31  CA         0.5120  -23.7770   31.5720 C.3   288  ILE288      0.1595
     32  C          1.2450  -22.7910   32.4680 C.2   288  ILE288      0.2287
     33  O          1.4390  -21.6320   32.1050 O.2   288  ILE288     -0.2864
     34  CB         1.2210  -23.9260   30.2240 C.3   288  ILE288      0.0276
     35  CG1        0.5000  -24.9820   29.3840 C.3   288  ILE288      0.0022
     36  CG2        2.7020  -24.2900   30.4230 C.3   288  ILE288      0.0022
     37  CD1        0.8240  -24.9300   27.9240 C.3   288  ILE288      0.0001
     38  N          5.8930  -21.0800   36.2190 N.3   291  ARG291     -0.1245
     39  CA         6.4140  -20.5410   37.4770 C.3   291  ARG291      0.1563
     40  C          6.8660  -21.6540   38.3980 C.2   291  ARG291      0.2260
     41  O          7.6740  -21.4310   39.2930 O.2   291  ARG291     -0.2867
     42  CB         5.3550  -19.7150   38.1850 C.3   291  ARG291      0.0307
     43  CG         4.9580  -18.4790   37.4270 C.3   291  ARG291      0.0489
     44  CD         3.6380  -17.9200   37.9110 C.3   291  ARG291      0.2205
     45  NE         3.1850  -16.8450   37.0390 N.pl3 291  ARG291     -0.0865
     46  CZ         2.4740  -17.0260   35.9350 C.cat 291  ARG291      0.5346
     47  NH1        2.1180  -18.2460   35.5540 N.pl3 291  ARG291      0.1354
     48  NH2        2.1220  -15.9740   35.2120 N.pl3 291  ARG291      0.1354
     49  N          7.5530  -14.8810   36.2160 N.3   325  ALA325     -0.1245
     50  CA         7.8040  -16.1810   35.5890 C.3   325  ALA325      0.1562
     51  C          9.0900  -16.2750   34.7650 C.2   325  ALA325      0.2260
     52  O          9.8520  -17.2320   34.9050 O.2   325  ALA325     -0.2867
     53  CB         6.6040  -16.5960   34.7400 C.3   325  ALA325      0.0290
     54  N         10.2290  -14.4010   27.4210 N.3   366  ASP366     -0.1225
     55  CA         9.0330  -14.6160   28.2300 C.3   366  ASP366      0.1805
     56  C          8.7130  -16.1020   28.2670 C.2   366  ASP366      0.2598
     57  O          9.2770  -16.8790   27.4930 O.2   366  ASP366     -0.2718
     58  CB         7.8500  -13.8060   27.7030 C.3   366  ASP366      0.1424
     59  CG         6.7950  -13.5280   28.7720 C.2   366  ASP366      0.3668
     60  OD1        7.0280  -13.7970   29.9700 O.co2 366  ASP366     -0.2456
     61  OD2        5.7130  -13.0270   28.4090 O.co2 366  ASP366     -0.2456
     62  N          7.8270  -16.4990   29.1810 N.am  367  ASP367     -0.1960
     63  CA         7.5510  -17.9190   29.3970 C.3   367  ASP367      0.1840
     64  C          6.7230  -18.5110   28.2590 C.2   367  ASP367      0.2622
     65  O          7.1910  -19.3790   27.5190 O.2   367  ASP367     -0.2715
     66  CB         6.9590  -18.2030   30.8030 C.3   367  ASP367      0.1450
     67  CG         5.7080  -17.3890   31.1190 C.2   367  ASP367      0.3671
     68  OD1        5.4880  -16.3320   30.4870 O.co2 367  ASP367     -0.2456
     69  OD2        4.9480  -17.8130   32.0230 O.co2 367  ASP367     -0.2456
     70  N          5.5050  -18.0150   28.1120 N.am  368  LEU368     -0.1963
     71  CA         4.6650  -18.3880   26.9920 C.3   368  LEU368      0.1728
     72  C          3.9320  -17.1760   26.4230 C.2   368  LEU368      0.2616
     73  O          3.8590  -16.1160   27.0520 O.2   368  LEU368     -0.2715
     74  CB         3.6890  -19.4980   27.3890 C.3   368  LEU368      0.0311
     75  CG         2.7270  -19.2710   28.5460 C.3   368  LEU368      0.0022
     76  CD1        1.4910  -18.5720   28.0740 C.3   368  LEU368      0.0001
     77  CD2        2.3700  -20.6090   29.1070 C.3   368  LEU368      0.0001
     78  N          3.4020  -17.3420   25.2200 N.am  369  VAL369     -0.1963
     79  CA         2.5690  -16.3210   24.6160 C.3   369  VAL369      0.1727
     80  C          1.2350  -16.9410   24.2380 C.2   369  VAL369      0.2617
     81  O          1.1950  -18.0270   23.6610 O.2   369  VAL369     -0.2715
     82  CB         3.2660  -15.6670   23.3890 C.3   369  VAL369      0.0290
     83  CG1        3.4440  -16.6620   22.2530 C.3   369  VAL369      0.0023
     84  CG2        2.5050  -14.4300   22.9180 C.3   369  VAL369      0.0023
     85  N          0.1460  -16.2730   24.6030 N.am  370  SER370     -0.1936
     86  CA        -1.1610  -16.6350   24.0760 C.3   370  SER370      0.2055
     87  C         -1.5220  -15.6830   22.9360 C.2   370  SER370      0.2644
     88  O         -1.4790  -16.0810   21.7770 O.2   370  SER370     -0.2714
     89  CB        -2.2280  -16.6820   25.1750 C.3   370  SER370      0.2130
     90  OG        -2.3060  -15.4590   25.8710 O.3   370  SER370     -0.2179
     91  N         -1.8190  -14.4270   23.2720 N.am  371  THR371     -0.1936
     92  CA        -2.2120  -13.4010   22.2990 C.3   371  THR371      0.2028
     93  C         -1.0700  -12.4520   21.9400 C.2   371  THR371      0.2643
     94  O         -0.6690  -12.3580   20.7750 O.2   371  THR371     -0.2714
     95  CB        -3.3900  -12.5430   22.8090 C.3   371  THR371      0.1808
     96  OG1       -4.3190  -13.3630   23.5220 O.3   371  THR371     -0.2208
     97  CG2       -4.0990  -11.8740   21.6420 C.3   371  THR371      0.0379
     98  N         -0.5720  -11.7320   22.9450 N.am  372  GLY372     -0.1939
     99  CA         0.5140  -10.7780   22.7570 C.3   372  GLY372      0.2014
    100  C          0.3490   -9.4680   23.5080 C.2   372  GLY372      0.2639
    101  O          1.2230   -8.6070   23.4460 O.2   372  GLY372     -0.2714
    102  N         -0.7640   -9.3160   24.2220 N.am  373  GLU373     -0.1963
    103  CA        -1.0270   -8.1090   25.0150 C.3   373  GLU373      0.1733
    104  C          0.0940   -7.7520   25.9960 C.2   373  GLU373      0.2617
    105  O          0.4730   -6.5850   26.1100 O.2   373  GLU373     -0.2715
    106  CB        -2.3780   -8.2180   25.7450 C.3   373  GLU373      0.0429
    107  CG        -3.5700   -7.5880   24.9860 C.3   373  GLU373      0.1163
    108  CD        -3.6230   -8.0050   23.4920 C.2   373  GLU373      0.3649
    109  OE1       -3.2370   -9.1580   23.1570 O.co2 373  GLU373     -0.2457
    110  OE2       -4.0540   -7.1770   22.6530 O.co2 373  GLU373     -0.2457
    111  N          0.6190   -8.7560   26.6940 N.am  374  THR374     -0.1937
    112  CA         1.7620   -8.5710   27.5900 C.3   374  THR374      0.2028
    113  C          3.0390   -8.1920   26.8150 C.2   374  THR374      0.2642
    114  O          3.7540   -7.2580   27.2040 O.2   374  THR374     -0.2714
    115  CB         2.0170   -9.8280   28.4710 C.3   374  THR374      0.1808
    116  OG1        2.2810  -10.9280   27.6140 O.3   374  THR374     -0.2208
    117  CG2        0.8440  -10.1300   29.3840 C.3   374  THR374      0.0379
    118  N          3.3070   -8.8990   25.7140 N.am  375  LYS375     -0.1977
    119  CA         4.5060   -8.6580   24.9050 C.3   375  LYS375      0.1596
    120  C          4.6170   -7.2190   24.3730 C.2   375  LYS375      0.2287
    121  O          5.7030   -6.7970   23.9490 O.2   375  LYS375     -0.2864
    122  CB         4.5990   -9.6670   23.7540 C.3   375  LYS375      0.0298
    123  CG         4.5040  -11.1430   24.1490 C.3   375  LYS375      0.0038
    124  CD         5.6650  -11.6030   25.0080 C.3   375  LYS375      0.0206
    125  CE         5.5210  -13.0620   25.3720 C.3   375  LYS375      0.1093
    126  NZ         4.2810  -13.3250   26.1540 N.3   375  LYS375     -0.1314
    127  N          1.1030  -20.7350   22.5680 N.3   398  ARG398     -0.1245
    128  CA        -0.2300  -21.2810   22.8120 C.3   398  ARG398      0.1563
    129  C         -1.1070  -21.4360   21.5710 C.2   398  ARG398      0.2260
    130  O         -2.1800  -22.0430   21.6430 O.2   398  ARG398     -0.2867
    131  CB        -0.9650  -20.4150   23.8220 C.3   398  ARG398      0.0307
    132  CG        -0.8390  -20.8700   25.2470 C.3   398  ARG398      0.0489
    133  CD        -1.5170  -19.8640   26.1440 C.3   398  ARG398      0.2205
    134  NE        -2.4210  -20.4790   27.1130 N.pl3 398  ARG398     -0.0865
    135  CZ        -3.6440  -20.9240   26.8220 C.cat 398  ARG398      0.5346
    136  NH1       -4.1060  -20.8490   25.5800 N.pl3 398  ARG398      0.1354
    137  NH2       -4.4050  -21.4590   27.7690 N.pl3 398  ARG398      0.1354
@<TRIPOS>BOND
     1    94    93    2
     2   129   130    2
     3   129   128    1
     4    97    95    1
     5    88    87    2
     6    93    92    1
     7    93    98   am
     8    83    82    1
     9    92    95    1
    10    92    91    1
    11   127   128    1
    12   110   108   ar
    13    99    98    1
    14    99   100    1
    15    95    96    1
    16   128   131    1
    17    84    82    1
    18    87    91   am
    19    87    86    1
    20   109   108   ar
    21    82    79    1
    22   101   100    2
    23   108   107    1
    24   100   102   am
    25    81    80    2
    26   122   123    1
    27   122   119    1
    28   131   132    1
    29   121   120    2
    30    86    85    1
    31    86    89    1
    32   123   124    1
    33   102   103    1
    34    80    85   am
    35    80    79    1
    36   120   119    1
    37    79    78    1
    38   119   118    1
    39   107   106    1
    40   124   125    1
    41   103   106    1
    42   103   104    1
    43    89    90    1
    44    78    72   am
    45   132   133    1
    46   125   126    1
    47   136   135    1
    48   118   113   am
    49   104   105    2
    50   104   111   am
    51   133   134    1
    52    72    71    1
    53    72    73    2
    54   111   112    1
    55   113   114    2
    56   113   112    1
    57   135   134    2
    58   135   137    1
    59    71    74    1
    60    71    70    1
    61    74    75    1
    62    54    55    1
    63    57    56    2
    64    65    64    2
    65   112   115    1
    66   116   115    1
    67    58    55    1
    68    58    59    1
    69    37    35    1
    70    76    75    1
    71    70    64   am
    72    55    56    1
    73    64    63    1
    74    56    62   am
    75     7     6    1
    76    61    59   ar
    77   115   117    1
    78    75    77    1
    79    59    60   ar
    80    12    11    2
    81    62    63    1
    82    35    34    1
    83    63    66    1
    84    11    10    1
    85     6     5    1
    86     6     8    1
    87     5     2    1
    88    34    36    1
    89    34    31    1
    90    68    67   ar
    91    13    10    1
    92    13    14    1
    93    66    67    1
    94    10     9    1
    95     9     3   am
    96     3     2    1
    97     3     4    2
    98    67    69   ar
    99     2     1    1
   100    18    19    1
   101    30    31    1
   102    30    20   am
   103    15    14    1
   104    15    16    1
   105    31    32    1
   106    19    20    1
   107    19    22    1
   108    20    21    2
   109    17    16    1
   110    33    32    2
   111    24    26   ar
   112    24    23   ar
   113    22    23    1
   114    26    28   ar
   115    23    25   ar
   116    28    29    1
   117    28    27   ar
   118    25    27   ar
   119    53    50    1
   120    51    52    2
   121    51    50    1
   122    48    46    1
   123    47    46    1
   124    50    49    1
   125    46    45    2
   126    38    39    1
   127    45    44    1
   128    43    44    1
   129    43    42    1
   130    39    42    1
   131    39    40    1
   132    40    41    2
