@<TRIPOS>MOLECULE
tmp/3qw4B01.pdb
 180 166 0 0 0
SMALL
GASTEIGER

@<TRIPOS>ATOM
      1  N          2.7890  -29.3750  -15.2510 N.3    22  ASP22      -0.1239
      2  CA         3.0670  -30.0570  -16.5130 C.3    22  ASP22       0.1674
      3  C          1.7580  -30.5860  -17.1410 C.2    22  ASP22       0.2266
      4  O          1.4740  -31.7890  -17.0690 O.2    22  ASP22      -0.2867
      5  CB         4.0530  -31.2170  -16.2740 C.3    22  ASP22       0.1410
      6  CG         5.3930  -30.7590  -15.6850 C.2    22  ASP22       0.3668
      7  OD1        6.2570  -31.6240  -15.4400 O.co2  22  ASP22      -0.2456
      8  OD2        5.5970  -29.5510  -15.4600 O.co2  22  ASP22      -0.2456
      9  N         -0.2640  -31.8030  -19.9210 N.3    24  ARG24      -0.1245
     10  CA        -0.6480  -33.0960  -20.5350 C.3    24  ARG24       0.1563
     11  C         -2.1680  -33.2640  -20.6260 C.2    24  ARG24       0.2260
     12  O         -2.7680  -33.9740  -19.8160 O.2    24  ARG24      -0.2867
     13  CB        -0.0340  -34.2930  -19.7910 C.3    24  ARG24       0.0307
     14  CG         1.3850  -34.0770  -19.3070 C.3    24  ARG24       0.0489
     15  CD         2.0930  -35.3920  -19.0880 C.3    24  ARG24       0.2205
     16  NE         3.2590  -35.2190  -18.2200 N.pl3  24  ARG24      -0.0865
     17  CZ         4.4210  -35.8420  -18.4030 C.cat  24  ARG24       0.5346
     18  NH1        4.5940  -36.6690  -19.4430 N.pl3  24  ARG24       0.1354
     19  NH2        5.4200  -35.6160  -17.5570 N.pl3  24  ARG24       0.1354
     20  N          6.1280  -24.4640  -10.6950 N.3    50  LYS50      -0.1245
     21  CA         7.1000  -24.6940  -11.7610 C.3    50  LYS50       0.1561
     22  C          6.4730  -25.1960  -13.0630 C.2    50  LYS50       0.2260
     23  O          6.3610  -26.4050  -13.2710 O.2    50  LYS50      -0.2867
     24  CB         8.1850  -25.6610  -11.2830 C.3    50  LYS50       0.0271
     25  CG         9.4540  -25.6310  -12.1180 C.3    50  LYS50       0.0035
     26  CD        10.1250  -26.9820  -12.1340 C.3    50  LYS50       0.0206
     27  CE         9.2940  -27.9870  -12.9140 C.3    50  LYS50       0.1093
     28  NZ         9.9100  -29.3230  -12.8010 N.3    50  LYS50      -0.1314
     29  N          6.7150  -26.2200  -16.7390 N.3    52  ASN52      -0.1240
     30  CA         7.7570  -26.6910  -17.6370 C.3    52  ASN52       0.1653
     31  C          7.3200  -26.4120  -19.0490 C.2    52  ASN52       0.2266
     32  O          6.3230  -26.9720  -19.5070 O.2    52  ASN52      -0.2867
     33  CB         7.9940  -28.1910  -17.4450 C.3    52  ASN52       0.1155
     34  CG         9.1040  -28.7240  -18.3250 C.2    52  ASN52       0.2627
     35  OD1        8.8430  -29.3440  -19.3460 O.2    52  ASN52      -0.2716
     36  ND2       10.3480  -28.4750  -17.9400 N.am   52  ASN52      -0.0877
     37  N          5.3890  -28.7650  -22.1780 N.3    55  PHE55      -0.1241
     38  CA         3.9990  -29.2150  -22.2540 C.3    55  PHE55       0.1605
     39  C          3.0630  -28.1210  -22.7540 C.2    55  PHE55       0.2264
     40  O          1.9910  -28.4090  -23.2860 O.2    55  PHE55      -0.2867
     41  CB         3.5590  -29.7820  -20.8970 C.3    55  PHE55       0.0534
     42  CG         4.4810  -30.8520  -20.3790 C.ar   55  PHE55      -0.0203
     43  CD1        5.4630  -30.5510  -19.4440 C.ar   55  PHE55      -0.0042
     44  CD2        4.4030  -32.1510  -20.8700 C.ar   55  PHE55      -0.0042
     45  CE1        6.3340  -31.5360  -18.9870 C.ar   55  PHE55      -0.0003
     46  CE2        5.2700  -33.1340  -20.4220 C.ar   55  PHE55      -0.0003
     47  CZ         6.2360  -32.8270  -19.4800 C.ar   55  PHE55      -0.0000
     48  N         10.6480  -23.7210  -15.9620 N.3    83  ASP83      -0.1239
     49  CA        11.5550  -24.7720  -16.3930 C.3    83  ASP83       0.1674
     50  C         11.6090  -24.7460  -17.9240 C.2    83  ASP83       0.2266
     51  O         10.7490  -25.2990  -18.6130 O.2    83  ASP83      -0.2867
     52  CB        11.1470  -26.1420  -15.8330 C.3    83  ASP83       0.1410
     53  CG        12.3050  -27.1420  -15.8000 C.2    83  ASP83       0.3668
     54  OD1       13.3180  -26.9430  -16.4980 O.co2  83  ASP83      -0.2456
     55  OD2       12.2010  -28.1460  -15.0710 O.co2  83  ASP83      -0.2456
     56  N         15.0880  -24.4830  -19.3160 N.3    85  LYS85      -0.1245
     57  CA        16.4500  -24.9890  -19.5260 C.3    85  LYS85       0.1561
     58  C         17.1740  -24.2810  -20.6800 C.2    85  LYS85       0.2260
     59  O         17.6980  -24.9190  -21.5820 O.2    85  LYS85      -0.2867
     60  CB        16.4510  -26.5190  -19.6930 C.3    85  LYS85       0.0271
     61  CG        16.1760  -27.2530  -18.3650 C.3    85  LYS85       0.0035
     62  CD        15.9560  -28.7350  -18.7260 C.3    85  LYS85       0.0206
     63  CE        15.3810  -29.4810  -17.5370 C.3    85  LYS85       0.1093
     64  NZ        14.7710  -30.7520  -18.0340 N.3    85  LYS85      -0.1314
     65  N         15.3220  -22.1780  -15.3270 N.3   110  THR110     -0.1218
     66  CA        16.3570  -23.2150  -15.4190 C.3   110  THR110      0.1862
     67  C         17.2560  -22.9810  -16.6410 C.2   110  THR110      0.2287
     68  O         16.7970  -22.4780  -17.6660 O.2   110  THR110     -0.2866
     69  CB        15.7600  -24.6370  -15.4930 C.3   110  THR110      0.1770
     70  OG1       14.8050  -24.7050  -16.5560 O.3   110  THR110     -0.2211
     71  CG2       15.0880  -25.0140  -14.1850 C.3   110  THR110      0.0375
     72  N         21.7250  -26.3430  -14.1620 N.3   134  LEU134     -0.1245
     73  CA        21.6680  -27.7920  -14.0700 C.3   134  LEU134      0.1561
     74  C         22.9870  -28.2930  -13.5150 C.2   134  LEU134      0.2260
     75  O         24.0550  -27.8940  -13.9750 O.2   134  LEU134     -0.2867
     76  CB        21.3660  -28.4180  -15.4260 C.3   134  LEU134      0.0270
     77  CG        20.0850  -27.9880  -16.1470 C.3   134  LEU134      0.0019
     78  CD1       19.9610  -28.7190  -17.4680 C.3   134  LEU134      0.0001
     79  CD2       18.8340  -28.2150  -15.3120 C.3   134  LEU134      0.0001
     80  N         21.4680  -34.1570  -12.8010 N.3   137  THR137     -0.1203
     81  CA        20.0740  -34.3090  -13.1940 C.3   137  THR137      0.1994
     82  C         19.4920  -35.6540  -12.7610 C.2   137  THR137      0.2618
     83  O         20.2170  -36.6290  -12.5940 O.2   137  THR137     -0.2717
     84  CB        19.8690  -34.0580  -14.7170 C.3   137  THR137      0.1784
     85  OG1       20.7110  -34.9270  -15.4870 O.3   137  THR137     -0.2211
     86  CG2       20.1800  -32.6120  -15.0610 C.3   137  THR137      0.0376
     87  N         18.1750  -35.6850  -12.5830 N.am  138  SER138     -0.1951
     88  CA        17.4740  -36.8400  -12.0290 C.3   138  SER138      0.1924
     89  C         17.4470  -38.0680  -12.9350 C.2   138  SER138      0.2314
     90  O         17.2190  -39.1860  -12.4560 O.2   138  SER138     -0.2863
     91  CB        16.0430  -36.4540  -11.6900 C.3   138  SER138      0.2116
     92  OG        15.3020  -36.2490  -12.8770 O.3   138  SER138     -0.2180
     93  N         20.2440  -27.3270   -9.9170 N.3   176  VAL176     -0.1245
     94  CA        19.2980  -28.4070  -10.0880 C.3   176  VAL176      0.1561
     95  C         19.9650  -29.7460   -9.7750 C.2   176  VAL176      0.2260
     96  O         20.8050  -30.2320  -10.5390 O.2   176  VAL176     -0.2867
     97  CB        18.6940  -28.3950  -11.4800 C.3   176  VAL176      0.0252
     98  CG1       17.6400  -29.4780  -11.6060 C.3   176  VAL176      0.0019
     99  CG2       18.0880  -27.0380  -11.7470 C.3   176  VAL176      0.0019
    100  N         19.1070  -33.7730   -8.5610 N.3   178  GLY178     -0.1225
    101  CA        18.0230  -34.7550   -8.6110 C.3   178  GLY178      0.1811
    102  C         17.8750  -35.6240   -7.3760 C.2   178  GLY178      0.2280
    103  O         18.8700  -36.0040   -6.7500 O.2   178  GLY178     -0.2866
    104  N         17.0050  -26.7970   -6.5770 N.3   198  LEU198     -0.1245
    105  CA        15.7360  -27.2610   -7.1370 C.3   198  LEU198      0.1561
    106  C         15.8290  -28.7730   -7.3170 C.2   198  LEU198      0.2260
    107  O         16.6610  -29.2690   -8.0790 O.2   198  LEU198     -0.2867
    108  CB        15.4100  -26.5560   -8.4610 C.3   198  LEU198      0.0270
    109  CG        14.2050  -27.0490   -9.2860 C.3   198  LEU198      0.0019
    110  CD1       12.8780  -26.8650   -8.5540 C.3   198  LEU198      0.0001
    111  CD2       14.1510  -26.3380  -10.6310 C.3   198  LEU198      0.0001
    112  N         13.8740  -32.1690   -8.2110 N.3   200  PRO200     -0.2102
    113  CA        12.7940  -32.9940   -8.7350 C.3   200  PRO200      0.1504
    114  C         13.0810  -34.5020   -8.6280 C.2   200  PRO200      0.2576
    115  O         14.2020  -34.9020   -8.2820 O.2   200  PRO200     -0.2718
    116  CB        12.7110  -32.5620  -10.2050 C.3   200  PRO200      0.0282
    117  CG        13.9460  -31.6960  -10.4680 C.3   200  PRO200      0.0208
    118  CD        14.8210  -31.7840   -9.2660 C.3   200  PRO200      0.0893
    119  N         12.0630  -35.3200   -8.9080 N.am  201  GLY201     -0.1943
    120  CA        12.2100  -36.7760   -8.9280 C.3   201  GLY201      0.2014
    121  C         11.3020  -37.5580   -7.9900 C.2   201  GLY201      0.2638
    122  O         11.2160  -38.7970   -8.0900 O.2   201  GLY201     -0.2714
    123  N         10.6270  -36.8510   -7.0780 N.am  202  ILE202     -0.1977
    124  CA         9.7450  -37.5010   -6.1010 C.3   202  ILE202      0.1596
    125  C          8.3530  -37.8000   -6.6670 C.2   202  ILE202      0.2287
    126  O          7.6610  -36.9130   -7.1750 O.2   202  ILE202     -0.2864
    127  CB         9.6470  -36.6950   -4.7890 C.3   202  ILE202      0.0276
    128  CG1       11.0250  -36.6120   -4.1120 C.3   202  ILE202      0.0022
    129  CG2        8.6090  -37.3180   -3.8480 C.3   202  ILE202      0.0022
    130  CD1       11.1450  -35.5020   -3.0780 C.3   202  ILE202      0.0001
    131  N          6.7810  -39.7990   -9.5170 N.3   204  ALA204     -0.1231
    132  CA         6.8030  -40.5910  -10.7400 C.3   204  ALA204      0.1694
    133  C          8.1630  -41.2140  -11.0190 C.2   204  ALA204      0.2591
    134  O          8.2380  -42.3210  -11.5560 O.2   204  ALA204     -0.2718
    135  CB         6.3550  -39.7620  -11.9230 C.3   204  ALA204      0.0304
    136  N          9.2290  -40.5060  -10.6460 N.am  205  GLN205     -0.1979
    137  CA        10.5840  -40.8900  -11.0470 C.3   205  GLN205      0.1601
    138  C         11.2420  -41.8810  -10.0830 C.2   205  GLN205      0.2287
    139  O         11.8050  -42.8900  -10.5120 O.2   205  GLN205     -0.2864
    140  CB        11.4580  -39.6500  -11.2350 C.3   205  GLN205      0.0394
    141  CG        12.8770  -39.9450  -11.7210 C.3   205  GLN205      0.0908
    142  CD        12.9080  -40.5600  -13.1130 C.2   205  GLN205      0.2608
    143  OE1       12.1310  -40.1830  -13.9920 O.2   205  GLN205     -0.2717
    144  NE2       13.8070  -41.5170  -13.3150 N.am  205  GLN205     -0.0878
    145  N         10.3110  -30.7760   -5.7890 N.3   227  ASN227     -0.1225
    146  CA         9.3280  -30.6510   -6.8480 C.3   227  ASN227      0.1785
    147  C          8.6750  -31.9760   -7.2030 C.2   227  ASN227      0.2597
    148  O          9.3570  -32.9630   -7.5000 O.2   227  ASN227     -0.2718
    149  CB         9.9590  -30.0300   -8.0890 C.3   227  ASN227      0.1169
    150  CG         8.9910  -29.9470   -9.2530 C.2   227  ASN227      0.2627
    151  OD1        8.6810  -30.9540   -9.8960 O.2   227  ASN227     -0.2716
    152  ND2        8.5200  -28.7380   -9.5430 N.am  227  ASN227     -0.0877
    153  N          7.3440  -31.9730   -7.1650 N.am  228  VAL228     -0.1966
    154  CA         6.5270  -33.0890   -7.6210 C.3   228  VAL228      0.1727
    155  C          5.5620  -32.5360   -8.6570 C.2   228  VAL228      0.2617
    156  O          4.8650  -31.5570   -8.4020 O.2   228  VAL228     -0.2715
    157  CB         5.7510  -33.7470   -6.4510 C.3   228  VAL228      0.0290
    158  CG1        4.8610  -34.8990   -6.9470 C.3   228  VAL228      0.0023
    159  CG2        6.7140  -34.2500   -5.3880 C.3   228  VAL228      0.0023
    160  N          5.5360  -33.1560   -9.8280 N.am  229  SER229     -0.1936
    161  CA         4.7180  -32.6710  -10.9300 C.3   229  SER229      0.2055
    162  C          3.6050  -33.6580  -11.2350 C.2   229  SER229      0.2643
    163  O          2.4770  -33.4780  -10.7810 O.2   229  SER229     -0.2714
    164  CB         5.5840  -32.4380  -12.1690 C.3   229  SER229      0.2130
    165  OG         6.8170  -31.8240  -11.8250 O.3   229  SER229     -0.2179
    166  N          3.9380  -34.7100  -11.9900 N.am  230  ARG230     -0.1963
    167  CA         2.9730  -35.7330  -12.3890 C.3   230  ARG230      0.1729
    168  C          2.3110  -36.4160  -11.1890 C.2   230  ARG230      0.2616
    169  O          1.1410  -36.7990  -11.2500 O.2   230  ARG230     -0.2715
    170  CB         3.6300  -36.7740  -13.3020 C.3   230  ARG230      0.0348
    171  CG         2.7120  -37.9310  -13.6360 C.3   230  ARG230      0.0492
    172  CD         3.1880  -38.7100  -14.8360 C.3   230  ARG230      0.2205
    173  NE         2.1670  -39.6650  -15.2570 N.pl3 230  ARG230     -0.0865
    174  CZ         1.3120  -39.4410  -16.2490 C.cat 230  ARG230      0.5346
    175  NH1        1.4660  -38.3800  -17.0250 N.pl3 230  ARG230      0.1354
    176  NH2        0.3330  -40.3060  -16.4890 N.pl3 230  ARG230      0.1354
    177  N          3.0570  -36.5540  -10.0970 N.am  231  GLY231     -0.1955
    178  CA         2.5500  -37.2260   -8.8970 C.3   231  GLY231      0.1869
    179  C          1.3100  -36.5870   -8.2860 C.2   231  GLY231      0.2309
    180  O          0.4640  -37.2800   -7.7040 O.2   231  GLY231     -0.2863
@<TRIPOS>BOND
     1    40    39    2
     2    39    38    1
     3    38    37    1
     4    38    41    1
     5    59    58    2
     6    41    42    1
     7    44    46   ar
     8    44    42   ar
     9    58    57    1
    10    11    10    1
    11    11    12    2
    12    10     9    1
    13    10    13    1
    14    46    47   ar
    15    42    43   ar
    16    13    14    1
    17    60    57    1
    18    60    61    1
    19    57    56    1
    20    32    31    2
    21    47    45   ar
    22    43    45   ar
    23    18    17    1
    24    35    34    2
    25    14    15    1
    26    15    16    1
    27    31    30    1
    28    62    61    1
    29    62    63    1
    30    51    50    2
    31    17    16    2
    32    17    19    1
    33    34    36   am
    34    34    33    1
    35    64    63    1
    36    50    49    1
    37    68    67    2
    38    30    33    1
    39    30    29    1
    40    78    77    1
    41     3     4    2
    42     3     2    1
    43   175   174    1
    44    67    66    1
    45    70    69    1
    46     2     5    1
    47     2     1    1
    48    54    53   ar
    49   176   174    1
    50    49    48    1
    51    49    52    1
    52     5     6    1
    53   174   173    2
    54    77    76    1
    55    77    79    1
    56    52    53    1
    57    53    55   ar
    58     6     8   ar
    59     6     7   ar
    60    69    66    1
    61    69    71    1
    62    85    84    1
    63    76    73    1
    64    66    65    1
    65   173   172    1
    66    86    84    1
    67   172   171    1
    68    84    81    1
    69    72    73    1
    70    73    74    1
    71   143   142    2
    72    75    74    2
    73   171   170    1
    74   144   142   am
    75   170   167    1
    76    23    22    2
    77    81    80    1
    78    81    82    1
    79   142   141    1
    80    22    21    1
    81    89    90    2
    82    89    88    1
    83    27    28    1
    84    27    26    1
    85    92    91    1
    86    82    83    2
    87    82    87   am
    88    87    88    1
    89   167   166    1
    90   167   168    1
    91   164   165    1
    92   164   161    1
    93    26    25    1
    94    25    24    1
    95    88    91    1
    96   166   162   am
    97   135   132    1
    98    21    24    1
    99    21    20    1
   100    99    97    1
   101   141   140    1
   102    98    97    1
   103   134   133    2
   104    97    94    1
   105   169   168    2
   106   162   161    1
   107   162   163    2
   108   140   137    1
   109   168   177   am
   110   137   136    1
   111   137   138    1
   112   133   132    1
   113   133   136   am
   114   161   160    1
   115   132   131    1
   116   111   109    1
   117    96    95    2
   118   139   138    2
   119   117   116    1
   120   117   118    1
   121   116   113    1
   122   177   178    1
   123    94    93    1
   124    94    95    1
   125   151   150    2
   126   160   155   am
   127   152   150   am
   128   109   110    1
   129   109   108    1
   130   118   112    1
   131   150   149    1
   132   120   119    1
   133   120   121    1
   134   119   114   am
   135   178   179    1
   136   113   114    1
   137   113   112    1
   138   155   156    2
   139   155   154    1
   140   114   115    2
   141   101   100    1
   142   101   102    1
   143   108   105    1
   144   179   180    2
   145   122   121    2
   146   149   146    1
   147   107   106    2
   148   121   123   am
   149   154   153    1
   150   154   157    1
   151   148   147    2
   152   102   103    2
   153   106   105    1
   154   147   153   am
   155   147   146    1
   156   126   125    2
   157   105   104    1
   158   123   124    1
   159   158   157    1
   160   146   145    1
   161   125   124    1
   162   157   159    1
   163   124   127    1
   164   127   128    1
   165   127   129    1
   166   128   130    1
