@<TRIPOS>MOLECULE
tmp/3qw5A00.pdb
 252 246 0 0 0
SMALL
GASTEIGER

@<TRIPOS>ATOM
      1  N         26.7160   12.6820   54.4060 N.3    70  VAL70      -0.1245
      2  CA        25.8640   13.6600   53.7440 C.3    70  VAL70       0.1561
      3  C         26.3920   13.9950   52.3540 C.2    70  VAL70       0.2260
      4  O         27.2240   14.8880   52.1950 O.2    70  VAL70      -0.2867
      5  CB        25.7730   14.9640   54.5680 C.3    70  VAL70       0.0252
      6  CG1       24.8810   15.9730   53.8570 C.3    70  VAL70       0.0019
      7  CG2       25.2320   14.6640   55.9550 C.3    70  VAL70       0.0019
      8  N         24.4120   17.9900   46.6380 N.3   161  ILE161     -0.1231
      9  CA        23.9750   18.7490   47.8040 C.3   161  ILE161      0.1692
     10  C         25.0300   19.6240   48.4630 C.2   161  ILE161      0.2592
     11  O         24.7620   20.2380   49.4910 O.2   161  ILE161     -0.2718
     12  CB        23.3510   17.8250   48.8580 C.3   161  ILE161      0.0266
     13  CG1       24.3840   16.8210   49.3690 C.3   161  ILE161      0.0019
     14  CG2       22.1600   17.1080   48.2480 C.3   161  ILE161      0.0020
     15  CD1       23.8450   15.8810   50.4390 C.3   161  ILE161      0.0001
     16  N         26.2170   19.7060   47.8710 N.am  162  GLN162     -0.1966
     17  CA        27.2570   20.5510   48.4420 C.3   162  GLN162      0.1733
     18  C         27.1670   21.9390   47.8400 C.2   162  GLN162      0.2616
     19  O         27.8860   22.2670   46.8940 O.2   162  GLN162     -0.2715
     20  CB        28.6500   19.9700   48.1880 C.3   162  GLN162      0.0408
     21  CG        28.9260   18.6790   48.9440 C.3   162  GLN162      0.0908
     22  CD        28.5840   18.7770   50.4210 C.2   162  GLN162      0.2608
     23  OE1       28.9940   19.7190   51.1070 O.2   162  GLN162     -0.2717
     24  NE2       27.8340   17.7960   50.9220 N.am  162  GLN162     -0.0878
     25  N         26.2600   22.7450   48.3820 N.am  163  PHE163     -0.1960
     26  CA        26.0820   24.1110   47.9100 C.3   163  PHE163      0.1771
     27  C         27.1790   24.9380   48.5490 C.2   163  PHE163      0.2619
     28  O         27.5650   24.6850   49.6900 O.2   163  PHE163     -0.2715
     29  CB        24.7280   24.6720   48.3490 C.3   163  PHE163      0.0574
     30  CG        23.5440   23.9360   47.7920 C.ar  163  PHE163     -0.0200
     31  CD1       23.6860   23.0210   46.7480 C.ar  163  PHE163     -0.0042
     32  CD2       22.2710   24.1860   48.2920 C.ar  163  PHE163     -0.0042
     33  CE1       22.5710   22.3660   46.2120 C.ar  163  PHE163     -0.0003
     34  CE2       21.1530   23.5370   47.7600 C.ar  163  PHE163     -0.0003
     35  CZ        21.3050   22.6300   46.7200 C.ar  163  PHE163     -0.0000
     36  N         27.6810   25.9330   47.8290 N.am  164  GLU164     -0.1963
     37  CA        28.7350   26.7540   48.3960 C.3   164  GLU164      0.1733
     38  C         29.0360   27.9650   47.5470 C.2   164  GLU164      0.2616
     39  O         28.7100   28.0080   46.3630 O.2   164  GLU164     -0.2715
     40  CB        30.0140   25.9340   48.5710 C.3   164  GLU164      0.0429
     41  CG        30.6620   25.5270   47.2670 C.3   164  GLU164      0.1163
     42  CD        31.9150   24.6930   47.4710 C.2   164  GLU164      0.3649
     43  OE1       32.8090   25.1180   48.2340 O.co2 164  GLU164     -0.2457
     44  OE2       32.0060   23.6100   46.8590 O.co2 164  GLU164     -0.2457
     45  N         29.6740   28.9360   48.1890 N.am  165  CYS165     -0.1954
     46  CA        30.0720   30.1890   47.5820 C.3   165  CYS165      0.1843
     47  C         31.5610   30.0620   47.2770 C.2   165  CYS165      0.2625
     48  O         32.3660   29.8220   48.1760 O.2   165  CYS165     -0.2714
     49  CB        29.8470   31.3100   48.5930 C.3   165  CYS165      0.0997
     50  SG        29.1140   32.7910   47.9540 S.3   165  CYS165     -0.0797
     51  N         31.9420   30.2080   46.0180 N.am  166  LYS166     -0.1977
     52  CA        33.3520   30.1050   45.6960 C.3   166  LYS166      0.1596
     53  C         33.7710   31.1870   44.7260 C.2   166  LYS166      0.2287
     54  O         32.9580   31.7090   43.9650 O.2   166  LYS166     -0.2864
     55  CB        33.6780   28.7150   45.1470 C.3   166  LYS166      0.0298
     56  CG        32.9560   28.3340   43.8740 C.3   166  LYS166      0.0038
     57  CD        32.6600   26.8370   43.8520 C.3   166  LYS166      0.0206
     58  CE        33.9010   25.9980   44.1360 C.3   166  LYS166      0.1093
     59  NZ        34.9810   26.2240   43.1350 N.3   166  LYS166     -0.1314
     60  N         16.4330   19.9590   51.6310 N.3   194  PHE194     -0.1227
     61  CA        16.7520   19.0960   52.7570 C.3   194  PHE194      0.1736
     62  C         15.6750   19.0050   53.8170 C.2   194  PHE194      0.2596
     63  O         14.9270   19.9560   54.0480 O.2   194  PHE194     -0.2718
     64  CB        18.0610   19.5880   53.3660 C.3   194  PHE194      0.0547
     65  CG        19.1250   19.8510   52.3370 C.ar  194  PHE194     -0.0202
     66  CD1       19.8800   18.8030   51.8150 C.ar  194  PHE194     -0.0042
     67  CD2       19.3270   21.1370   51.8380 C.ar  194  PHE194     -0.0042
     68  CE1       20.8210   19.0300   50.8130 C.ar  194  PHE194     -0.0003
     69  CE2       20.2670   21.3740   50.8350 C.ar  194  PHE194     -0.0003
     70  CZ        21.0130   20.3210   50.3220 C.ar  194  PHE194     -0.0000
     71  N         15.6030   17.8440   54.4590 N.am  195  GLY195     -0.1942
     72  CA        14.6100   17.6460   55.4940 C.3   195  GLY195      0.2014
     73  C         15.2030   17.8630   56.8690 C.2   195  GLY195      0.2638
     74  O         16.3540   17.5070   57.1210 O.2   195  GLY195     -0.2714
     75  N         14.4270   18.4600   57.7600 N.am  196  PHE196     -0.1973
     76  CA        14.9000   18.6960   59.1130 C.3   196  PHE196      0.1639
     77  C         13.7770   18.3080   60.0520 C.2   196  PHE196      0.2290
     78  O         12.6650   18.0050   59.6130 O.2   196  PHE196     -0.2864
     79  CB        15.3050   20.1670   59.3000 C.3   196  PHE196      0.0560
     80  CG        14.1630   21.1340   59.1990 C.ar  196  PHE196     -0.0200
     81  CD1       13.4940   21.5660   60.3390 C.ar  196  PHE196     -0.0042
     82  CD2       13.7550   21.6160   57.9590 C.ar  196  PHE196     -0.0042
     83  CE1       12.4280   22.4610   60.2480 C.ar  196  PHE196     -0.0003
     84  CE2       12.6920   22.5090   57.8550 C.ar  196  PHE196     -0.0003
     85  CZ        12.0300   22.9340   59.0020 C.ar  196  PHE196     -0.0000
     86  N         13.2270   22.1240   54.0970 N.3   215  THR215     -0.1218
     87  CA        13.7740   23.4720   54.1500 C.3   215  THR215      0.1862
     88  C         13.2890   24.2220   52.9080 C.2   215  THR215      0.2287
     89  O         13.2750   23.6710   51.8060 O.2   215  THR215     -0.2866
     90  CB        15.3110   23.4130   54.1550 C.3   215  THR215      0.1770
     91  OG1       15.7540   22.7980   55.3720 O.3   215  THR215     -0.2211
     92  CG2       15.9080   24.8040   54.0350 C.3   215  THR215      0.0375
     93  N         17.7700   28.6080   51.7380 N.3   220  THR220     -0.1218
     94  CA        19.0520   28.0280   51.3720 C.3   220  THR220      0.1862
     95  C         19.8210   28.9430   50.4210 C.2   220  THR220      0.2287
     96  O         21.0150   29.1410   50.5900 O.2   220  THR220     -0.2866
     97  CB        18.8460   26.6550   50.7230 C.3   220  THR220      0.1770
     98  OG1       18.0860   25.8330   51.6170 O.3   220  THR220     -0.2211
     99  CG2       20.1890   25.9820   50.4320 C.3   220  THR220      0.0375
    100  N         20.9940   32.0060   52.2440 N.3   223  HIS223     -0.1226
    101  CA        22.1630   31.6720   53.0580 C.3   223  HIS223      0.1752
    102  C         23.4220   31.8690   52.2160 C.2   223  HIS223      0.2595
    103  O         24.3780   32.5040   52.6520 O.2   223  HIS223     -0.2718
    104  CB        22.0640   30.2210   53.5240 C.3   223  HIS223      0.0759
    105  CG        23.2570   29.7370   54.2930 C.ar  223  HIS223      0.0818
    106  ND1       23.2860   29.6850   55.6640 N.ar  223  HIS223     -0.2268
    107  CD2       24.4520   29.2590   53.8640 C.ar  223  HIS223      0.1154
    108  CE1       24.4530   29.1900   56.0590 C.ar  223  HIS223      0.1986
    109  NE2       25.1720   28.9260   54.9900 N.ar  223  HIS223     -0.2212
    110  N         23.4200   31.3350   51.0010 N.am  224  GLU224     -0.1979
    111  CA        24.5830   31.4900   50.1390 C.3   224  GLU224      0.1602
    112  C         24.7810   32.9420   49.7240 C.2   224  GLU224      0.2287
    113  O         25.9130   33.4040   49.6090 O.2   224  GLU224     -0.2864
    114  CB        24.4550   30.5980   48.9070 C.3   224  GLU224      0.0415
    115  CG        24.4900   29.1110   49.2390 C.3   224  GLU224      0.1163
    116  CD        25.6710   28.7230   50.1230 C.2   224  GLU224      0.3649
    117  OE1       26.7850   29.2540   49.9250 O.co2 224  GLU224     -0.2457
    118  OE2       25.4890   27.8700   51.0180 O.co2 224  GLU224     -0.2457
    119  N         26.6620   34.8210   52.3240 N.3   227  HIS227     -0.1241
    120  CA        28.0860   34.5340   52.2310 C.3   227  HIS227      0.1621
    121  C         28.6500   35.3970   51.1020 C.2   227  HIS227      0.2264
    122  O         29.7110   35.9990   51.2360 O.2   227  HIS227     -0.2867
    123  CB        28.3400   33.0640   51.8620 C.3   227  HIS227      0.0745
    124  CG        28.2030   32.0970   52.9990 C.ar  227  HIS227      0.0817
    125  ND1       28.8790   32.2390   54.1930 N.ar  227  HIS227     -0.2268
    126  CD2       27.5290   30.9260   53.0860 C.ar  227  HIS227      0.1154
    127  CE1       28.6280   31.1960   54.9660 C.ar  227  HIS227      0.1986
    128  NE2       27.8120   30.3850   54.3160 N.ar  227  HIS227     -0.2212
    129  N         31.7130   38.0970   51.1110 N.3   231  ARG231     -0.1245
    130  CA        32.8400   37.9760   50.2040 C.3   231  ARG231      0.1563
    131  C         32.9590   39.1100   49.1880 C.2   231  ARG231      0.2260
    132  O         34.0670   39.4710   48.8100 O.2   231  ARG231     -0.2867
    133  CB        32.7890   36.6110   49.5190 C.3   231  ARG231      0.0307
    134  CG        32.9410   35.4590   50.5320 C.3   231  ARG231      0.0489
    135  CD        32.4660   34.1270   49.9660 C.3   231  ARG231      0.2205
    136  NE        33.4070   33.5820   48.9930 N.pl3 231  ARG231     -0.0865
    137  CZ        34.4490   32.8140   49.3000 C.cat 231  ARG231      0.5346
    138  NH1       34.6910   32.4850   50.5650 N.pl3 231  ARG231      0.1354
    139  NH2       35.2600   32.3840   48.3420 N.pl3 231  ARG231      0.1354
    140  N         38.2120   30.6660   56.9420 N.3   239  PRO239     -0.2116
    141  CA        37.6560   29.3540   57.2840 C.3   239  PRO239      0.1372
    142  C         38.4010   28.6000   58.3860 C.2   239  PRO239      0.2244
    143  O         37.8380   27.6940   59.0040 O.2   239  PRO239     -0.2868
    144  CB        37.6780   28.6110   55.9470 C.3   239  PRO239      0.0268
    145  CG        38.8330   29.2500   55.2250 C.3   239  PRO239      0.0207
    146  CD        38.6140   30.7060   55.5250 C.3   239  PRO239      0.0892
    147  N         28.7640   16.3540   68.1830 N.3   251  TYR251     -0.1241
    148  CA        29.7870   17.0940   67.4450 C.3   251  TYR251      0.1605
    149  C         31.1040   16.8870   68.1960 C.2   251  TYR251      0.2264
    150  O         32.1420   16.5940   67.6030 O.2   251  TYR251     -0.2867
    151  CB        29.4620   18.5950   67.4190 C.3   251  TYR251      0.0534
    152  CG        28.6220   19.0480   66.2440 C.ar  251  TYR251     -0.0201
    153  CD1       29.1340   19.9420   65.3030 C.ar  251  TYR251     -0.0009
    154  CD2       27.3140   18.5910   66.0720 C.ar  251  TYR251     -0.0009
    155  CE1       28.3600   20.3730   64.2170 C.ar  251  TYR251      0.0417
    156  CE2       26.5360   19.0130   64.9940 C.ar  251  TYR251      0.0417
    157  CZ        27.0650   19.9050   64.0700 C.ar  251  TYR251      0.1957
    158  OH        26.3030   20.3280   63.0010 O.3   251  TYR251     -0.2866
    159  N         34.0970   17.6740   65.6870 N.3   256  LEU256     -0.1231
    160  CA        33.6180   18.5420   64.6190 C.3   256  LEU256      0.1693
    161  C         33.7600   20.0220   64.9650 C.2   256  LEU256      0.2592
    162  O         33.4390   20.4470   66.0720 O.2   256  LEU256     -0.2718
    163  CB        32.1560   18.2230   64.2970 C.3   256  LEU256      0.0284
    164  CG        31.8830   16.7860   63.8410 C.3   256  LEU256      0.0019
    165  CD1       30.3960   16.6030   63.5790 C.3   256  LEU256      0.0001
    166  CD2       32.6930   16.4840   62.5840 C.3   256  LEU256      0.0001
    167  N         34.2450   20.8010   64.0030 N.am  257  GLU257     -0.1966
    168  CA        34.4300   22.2330   64.1950 C.3   257  GLU257      0.1733
    169  C         33.5770   22.9790   63.1730 C.2   257  GLU257      0.2616
    170  O         33.4120   22.5160   62.0460 O.2   257  GLU257     -0.2715
    171  CB        35.9020   22.6080   63.9990 C.3   257  GLU257      0.0429
    172  CG        36.8800   21.7590   64.7960 C.3   257  GLU257      0.1163
    173  CD        38.3190   22.2180   64.6370 C.2   257  GLU257      0.3649
    174  OE1       38.7620   22.4190   63.4840 O.co2 257  GLU257     -0.2457
    175  OE2       39.0090   22.3710   65.6660 O.co2 257  GLU257     -0.2457
    176  N         33.0310   24.1240   63.5730 N.am  258  VAL258     -0.1977
    177  CA        32.2130   24.9280   62.6730 C.3   258  VAL258      0.1596
    178  C         32.8550   26.3020   62.5350 C.2   258  VAL258      0.2287
    179  O         33.1530   26.9590   63.5310 O.2   258  VAL258     -0.2864
    180  CB        30.7670   25.0890   63.1990 C.3   258  VAL258      0.0276
    181  CG1       29.9890   26.0410   62.2990 C.3   258  VAL258      0.0022
    182  CG2       30.0770   23.7340   63.2420 C.3   258  VAL258      0.0022
    183  N         30.2790   30.5750   59.1990 N.3   262  GLU262     -0.1245
    184  CA        28.9810   29.9150   59.1320 C.3   262  GLU262      0.1567
    185  C         28.0750   30.3530   60.2770 C.2   262  GLU262      0.2260
    186  O         26.8840   30.5980   60.0750 O.2   262  GLU262     -0.2867
    187  CB        29.1450   28.3940   59.1740 C.3   262  GLU262      0.0388
    188  CG        29.7700   27.7980   57.9340 C.3   262  GLU262      0.1160
    189  CD        28.9200   27.9770   56.6890 C.2   262  GLU262      0.3649
    190  OE1       27.7400   28.3690   56.8130 O.co2 262  GLU262     -0.2457
    191  OE2       29.4330   27.7070   55.5870 O.co2 262  GLU262     -0.2457
    192  N         15.6030   25.0520   60.3160 N.3   363  ARG363     -0.1245
    193  CA        16.4470   24.5710   61.4010 C.3   363  ARG363      0.1563
    194  C         16.6040   25.7620   62.3460 C.2   363  ARG363      0.2260
    195  O         16.6430   26.9110   61.9030 O.2   363  ARG363     -0.2867
    196  CB        17.8150   24.1100   60.8690 C.3   363  ARG363      0.0307
    197  CG        18.6330   25.1900   60.1660 C.3   363  ARG363      0.0489
    198  CD        19.8850   24.6180   59.4980 C.3   363  ARG363      0.2205
    199  NE        20.5710   25.6480   58.7170 N.pl3 363  ARG363     -0.0865
    200  CZ        21.6120   25.4310   57.9210 C.cat 363  ARG363      0.5346
    201  NH1       22.1140   24.2080   57.7840 N.pl3 363  ARG363      0.1354
    202  NH2       22.1470   26.4430   57.2480 N.pl3 363  ARG363      0.1354
    203  N         22.5400   26.0520   63.2250 N.3   366  TYR366     -0.1241
    204  CA        23.3950   25.4870   62.1920 C.3   366  TYR366      0.1605
    205  C         24.0060   24.2000   62.7470 C.2   366  TYR366      0.2264
    206  O         24.3930   23.3070   61.9930 O.2   366  TYR366     -0.2867
    207  CB        24.5110   26.4770   61.8490 C.3   366  TYR366      0.0534
    208  CG        25.3430   26.1100   60.6410 C.ar  366  TYR366     -0.0201
    209  CD1       24.9030   26.4000   59.3500 C.ar  366  TYR366     -0.0009
    210  CD2       26.5900   25.5000   60.7900 C.ar  366  TYR366     -0.0009
    211  CE1       25.6940   26.0960   58.2290 C.ar  366  TYR366      0.0417
    212  CE2       27.3840   25.1950   59.6820 C.ar  366  TYR366      0.0417
    213  CZ        26.9310   25.4990   58.4060 C.ar  366  TYR366      0.1957
    214  OH        27.7270   25.2290   57.3180 O.3   366  TYR366     -0.2866
    215  N         23.2670   21.2240   63.7820 N.3   368  ASN368     -0.1225
    216  CA        22.3130   20.1270   63.7980 C.3   368  ASN368      0.1785
    217  C         22.8110   19.0230   62.8790 C.2   368  ASN368      0.2597
    218  O         23.9680   19.0320   62.4600 O.2   368  ASN368     -0.2718
    219  CB        20.9500   20.6280   63.3170 C.3   368  ASN368      0.1169
    220  CG        20.9340   20.9350   61.8260 C.2   368  ASN368      0.2627
    221  OD1       21.9860   21.0430   61.1900 O.2   368  ASN368     -0.2716
    222  ND2       19.7350   21.0860   61.2630 N.am  368  ASN368     -0.0877
    223  N         21.9380   18.0680   62.5740 N.am  369  PHE369     -0.1962
    224  CA        22.2920   16.9750   61.6750 C.3   369  PHE369      0.1771
    225  C         21.2330   16.8200   60.5940 C.2   369  PHE369      0.2619
    226  O         20.0440   16.6860   60.8880 O.2   369  PHE369     -0.2715
    227  CB        22.4370   15.6660   62.4550 C.3   369  PHE369      0.0574
    228  CG        23.6930   15.5920   63.2740 C.ar  369  PHE369     -0.0200
    229  CD1       24.9120   15.3070   62.6710 C.ar  369  PHE369     -0.0042
    230  CD2       23.6640   15.8530   64.6390 C.ar  369  PHE369     -0.0042
    231  CE1       26.0940   15.2830   63.4130 C.ar  369  PHE369     -0.0003
    232  CE2       24.8360   15.8340   65.3920 C.ar  369  PHE369     -0.0003
    233  CZ        26.0550   15.5490   64.7760 C.ar  369  PHE369     -0.0000
    234  N         21.6660   16.8450   59.3390 N.am  370  ASP370     -0.1971
    235  CA        20.7340   16.6850   58.2330 C.3   370  ASP370      0.1709
    236  C         20.0710   15.3260   58.3450 C.2   370  ASP370      0.2293
    237  O         20.6760   14.3750   58.8410 O.2   370  ASP370     -0.2864
    238  CB        21.4590   16.8130   56.8960 C.3   370  ASP370      0.1436
    239  CG        21.3360   18.2040   56.3060 C.2   370  ASP370      0.3671
    240  OD1       21.5930   19.1810   57.0390 O.co2 370  ASP370     -0.2456
    241  OD2       20.9790   18.3230   55.1160 O.co2 370  ASP370     -0.2456
    242  N         25.8040    8.9920   60.1270 N.3   423  PHE423     -0.1241
    243  CA        26.8490    9.8010   60.7410 C.3   423  PHE423      0.1605
    244  C         27.7920    8.9480   61.5850 C.2   423  PHE423      0.2264
    245  O         28.9970    8.9060   61.2540 O.2   423  PHE423     -0.2867
    246  CB        26.2170   10.8970   61.6010 C.3   423  PHE423      0.0534
    247  CG        25.4260   11.9010   60.8090 C.ar  423  PHE423     -0.0203
    248  CD1       26.0710   12.8240   59.9910 C.ar  423  PHE423     -0.0042
    249  CD2       24.0360   11.9160   60.8690 C.ar  423  PHE423     -0.0042
    250  CE1       25.3430   13.7430   59.2390 C.ar  423  PHE423     -0.0003
    251  CE2       23.2990   12.8340   60.1180 C.ar  423  PHE423     -0.0003
    252  CZ        23.9540   13.7490   59.3060 C.ar  423  PHE423     -0.0000
@<TRIPOS>BOND
     1    59    58    1
     2    57    56    1
     3    57    58    1
     4    56    55    1
     5    54    53    2
     6    53    52    1
     7    55    52    1
     8    52    51    1
     9    51    47   am
    10    33    35   ar
    11    33    31   ar
    12    39    38    2
    13     8     9    1
    14    35    34   ar
    15    31    30   ar
    16    44    42   ar
    17    19    18    2
    18    41    42    1
    19    41    40    1
    20    47    46    1
    21    47    48    2
    22    42    43   ar
    23    38    45   am
    24    38    37    1
    25    46    45    1
    26    46    49    1
    27    34    32   ar
    28    30    32   ar
    29    30    29    1
    30     9    10    1
    31     9    12    1
    32    36    37    1
    33    36    27   am
    34    18    25   am
    35    18    17    1
    36    16    17    1
    37    16    10   am
    38    26    29    1
    39    26    25    1
    40    26    27    1
    41    50    49    1
    42    20    17    1
    43    20    21    1
    44    14    12    1
    45   139   137    1
    46    37    40    1
    47    10    11    2
    48    27    28    2
    49   132   131    2
    50    12    13    1
    51   114   115    1
    52   114   111    1
    53    21    22    1
    54   136   137    2
    55   136   135    1
    56   131   130    1
    57   115   116    1
    58   137   138    1
    59    13    15    1
    60   133   130    1
    61   133   134    1
    62   113   112    2
    63   112   111    1
    64   117   116   ar
    65   135   134    1
    66   116   118   ar
    67   111   110    1
    68   130   129    1
    69    70    68   ar
    70    70    69   ar
    71    22    24   am
    72    22    23    2
    73    95    96    2
    74    95    94    1
    75    99    97    1
    76    97    94    1
    77    97    98    1
    78    68    66   ar
    79    69    67   ar
    80   110   102   am
    81   121   122    2
    82   121   120    1
    83    94    93    1
    84    60    61    1
    85    89    88    2
    86    66    65   ar
    87    67    65   ar
    88   123   120    1
    89   123   124    1
    90     4     3    2
    91   102   103    2
    92   102   101    1
    93   120   119    1
    94   100   101    1
    95    65    64    1
    96     3     2    1
    97    61    64    1
    98    61    62    1
    99    88    87    1
   100   124   126   ar
   101   124   125   ar
   102   101   104    1
   103   126   128   ar
   104   104   105    1
   105     2     1    1
   106     2     5    1
   107    62    63    2
   108    62    71   am
   109     6     5    1
   110   107   105   ar
   111   107   109   ar
   112    92    90    1
   113    86    87    1
   114    87    90    1
   115    90    91    1
   116   125   127   ar
   117   105   106   ar
   118   128   127   ar
   119    71    72    1
   120     5     7    1
   121   109   108   ar
   122   241   239   ar
   123   145   146    1
   124   145   144    1
   125    72    73    1
   126   146   140    1
   127   191   189   ar
   128   106   108   ar
   129   144   141    1
   130   239   238    1
   131   239   240   ar
   132   189   190   ar
   133   189   188    1
   134    73    74    2
   135    73    75   am
   136   238   235    1
   137   140   141    1
   138   202   200    1
   139   141   142    1
   140   214   213    1
   141    75    76    1
   142   201   200    1
   143    84    82   ar
   144    84    85   ar
   145   200   199    2
   146   188   187    1
   147    82    80   ar
   148   211   213   ar
   149   211   209   ar
   150   235   236    1
   151   235   234    1
   152   236   237    2
   153   142   143    2
   154   213   212   ar
   155   199   198    1
   156    85    83   ar
   157    76    79    1
   158    76    77    1
   159   184   187    1
   160   184   183    1
   161   184   185    1
   162    80    79    1
   163    80    81   ar
   164   250   252   ar
   165   250   248   ar
   166   252   251   ar
   167   234   225   am
   168   209   208   ar
   169   198   197    1
   170    78    77    2
   171   212   210   ar
   172   248   247   ar
   173   186   185    2
   174   251   249   ar
   175   242   243    1
   176   197   196    1
   177    83    81   ar
   178   192   193    1
   179   225   226    2
   180   225   224    1
   181   208   210   ar
   182   208   207    1
   183   243   244    1
   184   243   246    1
   185   247   249   ar
   186   247   246    1
   187   196   193    1
   188   221   220    2
   189   245   244    2
   190   222   220   am
   191   193   194    1
   192   224   227    1
   193   224   223    1
   194   220   219    1
   195   207   204    1
   196   195   194    2
   197   206   205    2
   198   170   169    2
   199   204   205    1
   200   204   203    1
   201   181   180    1
   202   227   228    1
   203   218   217    2
   204   178   177    1
   205   178   179    2
   206   223   217   am
   207   166   164    1
   208   229   228   ar
   209   229   231   ar
   210   177   180    1
   211   177   176    1
   212   217   216    1
   213   158   157    1
   214   169   176   am
   215   169   168    1
   216   180   182    1
   217   228   230   ar
   218   219   216    1
   219   231   233   ar
   220   174   173   ar
   221   165   164    1
   222   215   216    1
   223   164   163    1
   224   171   168    1
   225   171   172    1
   226   167   168    1
   227   167   161   am
   228   157   155   ar
   229   157   156   ar
   230   155   153   ar
   231   163   160    1
   232   160   161    1
   233   160   159    1
   234   173   172    1
   235   173   175   ar
   236   230   232   ar
   237   233   232   ar
   238   161   162    2
   239   156   154   ar
   240   153   152   ar
   241   154   152   ar
   242   152   151    1
   243   151   148    1
   244   148   147    1
   245   148   149    1
   246   150   149    2
