@<TRIPOS>MOLECULE
tmp/3qw6A00.pdb
 229 222 0 0 0
SMALL
GASTEIGER

@<TRIPOS>ATOM
      1  N         27.0050   12.8230   54.2580 N.3    69  VAL69      -0.1245
      2  CA        26.2310   13.9510   53.7640 C.3    69  VAL69       0.1561
      3  C         26.7700   14.3520   52.3950 C.2    69  VAL69       0.2260
      4  O         27.6610   15.1980   52.2780 O.2    69  VAL69      -0.2867
      5  CB        26.3120   15.1660   54.7070 C.3    69  VAL69       0.0252
      6  CG1       25.4410   16.2980   54.1640 C.3    69  VAL69       0.0019
      7  CG2       25.8550   14.7730   56.1030 C.3    69  VAL69       0.0019
      8  N         24.5950   18.2500   46.6060 N.3   160  ILE160     -0.1231
      9  CA        24.1790   19.0560   47.7440 C.3   160  ILE160      0.1692
     10  C         25.2790   19.8270   48.4530 C.2   160  ILE160      0.2592
     11  O         25.0890   20.3140   49.5660 O.2   160  ILE160     -0.2718
     12  CB        23.3770   18.2150   48.7540 C.3   160  ILE160      0.0266
     13  CG1       24.1830   16.9970   49.2070 C.3   160  ILE160      0.0019
     14  CG2       22.0620   17.7860   48.1150 C.3   160  ILE160      0.0020
     15  CD1       23.4570   16.1410   50.2350 C.3   160  ILE160      0.0001
     16  N         26.4300   19.9490   47.8050 N.am  161  GLN161     -0.1966
     17  CA        27.5160   20.7210   48.3870 C.3   161  GLN161      0.1733
     18  C         27.3780   22.1430   47.8500 C.2   161  GLN161      0.2616
     19  O         28.1090   22.5440   46.9470 O.2   161  GLN161     -0.2715
     20  CB        28.8790   20.1380   47.9890 C.3   161  GLN161      0.0408
     21  CG        30.0670   20.9110   48.5510 C.3   161  GLN161      0.0908
     22  CD        29.9630   21.1340   50.0500 C.2   161  GLN161      0.2608
     23  OE1       29.9040   20.1800   50.8320 O.2   161  GLN161     -0.2717
     24  NE2       29.9350   22.4000   50.4600 N.am  161  GLN161     -0.0878
     25  N         26.4130   22.8890   48.3860 N.am  162  PHE162     -0.1960
     26  CA        26.1940   24.2720   47.9650 C.3   162  PHE162      0.1771
     27  C         27.2550   25.1240   48.6380 C.2   162  PHE162      0.2619
     28  O         27.5900   24.8960   49.8000 O.2   162  PHE162     -0.2715
     29  CB        24.8140   24.7790   48.4040 C.3   162  PHE162      0.0574
     30  CG        23.6630   23.9530   47.9020 C.ar  162  PHE162     -0.0200
     31  CD1       23.7760   23.1920   46.7430 C.ar  162  PHE162     -0.0042
     32  CD2       22.4470   23.9640   48.5800 C.ar  162  PHE162     -0.0042
     33  CE1       22.6880   22.4500   46.2670 C.ar  162  PHE162     -0.0003
     34  CE2       21.3590   23.2280   48.1110 C.ar  162  PHE162     -0.0003
     35  CZ        21.4830   22.4720   46.9530 C.ar  162  PHE162     -0.0000
     36  N         27.7780   26.1150   47.9310 N.am  163  GLU163     -0.1963
     37  CA        28.8120   26.9450   48.5320 C.3   163  GLU163      0.1733
     38  C         29.2180   28.0870   47.6310 C.2   163  GLU163      0.2616
     39  O         28.9320   28.0770   46.4360 O.2   163  GLU163     -0.2715
     40  CB        30.0490   26.0900   48.8260 C.3   163  GLU163      0.0429
     41  CG        30.7420   25.5870   47.5650 C.3   163  GLU163      0.1163
     42  CD        31.8520   24.5900   47.8520 C.2   163  GLU163      0.3649
     43  OE1       32.6430   24.8270   48.7870 O.co2 163  GLU163     -0.2457
     44  OE2       31.9370   23.5760   47.1320 O.co2 163  GLU163     -0.2457
     45  N         29.9010   29.0630   48.2230 N.am  164  CYS164     -0.1968
     46  CA        30.4070   30.2150   47.4920 C.3   164  CYS164      0.1712
     47  C         31.8320   29.9390   47.0590 C.2   164  CYS164      0.2296
     48  O         32.6770   29.5410   47.8670 O.2   164  CYS164     -0.2864
     49  CB        30.3990   31.4610   48.3680 C.3   164  CYS164      0.0983
     50  SG        28.7910   32.2000   48.5300 S.3   164  CYS164     -0.0798
     51  N         16.9180   20.0470   51.7880 N.3   193  PHE193     -0.1227
     52  CA        17.1990   19.2160   52.9490 C.3   193  PHE193      0.1736
     53  C         16.0060   19.0540   53.8710 C.2   193  PHE193      0.2596
     54  O         15.1330   19.9140   53.9350 O.2   193  PHE193     -0.2718
     55  CB        18.3380   19.8340   53.7570 C.3   193  PHE193      0.0547
     56  CG        19.6390   19.9140   53.0200 C.ar  193  PHE193     -0.0202
     57  CD1       20.5770   18.8950   53.1370 C.ar  193  PHE193     -0.0042
     58  CD2       19.9350   21.0160   52.2220 C.ar  193  PHE193     -0.0042
     59  CE1       21.7980   18.9710   52.4700 C.ar  193  PHE193     -0.0003
     60  CE2       21.1540   21.1010   51.5500 C.ar  193  PHE193     -0.0003
     61  CZ        22.0850   20.0750   51.6780 C.ar  193  PHE193     -0.0000
     62  N         15.9950   17.9450   54.6000 N.am  194  GLY194     -0.1942
     63  CA        14.9310   17.6970   55.5470 C.3   194  GLY194      0.2014
     64  C         15.4830   17.8740   56.9470 C.2   194  GLY194      0.2638
     65  O         16.6190   17.4830   57.2180 O.2   194  GLY194     -0.2714
     66  N         14.7020   18.4830   57.8330 N.am  195  PHE195     -0.1973
     67  CA        15.1380   18.6820   59.2110 C.3   195  PHE195      0.1639
     68  C         14.0140   18.2730   60.1540 C.2   195  PHE195      0.2290
     69  O         12.9010   17.9710   59.7140 O.2   195  PHE195     -0.2864
     70  CB        15.5430   20.1440   59.4450 C.3   195  PHE195      0.0560
     71  CG        14.4010   21.1170   59.3750 C.ar  195  PHE195     -0.0200
     72  CD1       13.7290   21.5140   60.5300 C.ar  195  PHE195     -0.0042
     73  CD2       13.9990   21.6400   58.1510 C.ar  195  PHE195     -0.0042
     74  CE1       12.6720   22.4200   60.4650 C.ar  195  PHE195     -0.0003
     75  CE2       12.9440   22.5450   58.0740 C.ar  195  PHE195     -0.0003
     76  CZ        12.2780   22.9370   59.2340 C.ar  195  PHE195     -0.0000
     77  N         13.4890   22.1530   54.2990 N.3   214  THR214     -0.1218
     78  CA        14.0520   23.4910   54.3480 C.3   214  THR214      0.1862
     79  C         13.5560   24.2310   53.1050 C.2   214  THR214      0.2287
     80  O         13.5610   23.6750   52.0010 O.2   214  THR214     -0.2866
     81  CB        15.5920   23.4200   54.3290 C.3   214  THR214      0.1770
     82  OG1       16.0450   22.7840   55.5320 O.3   214  THR214     -0.2211
     83  CG2       16.2020   24.8140   54.2270 C.3   214  THR214      0.0375
     84  N         17.9350   28.6890   51.8770 N.3   219  THR219     -0.1218
     85  CA        19.2280   28.1370   51.4920 C.3   219  THR219      0.1862
     86  C         19.9640   29.0810   50.5430 C.2   219  THR219      0.2287
     87  O         21.1600   29.3330   50.7100 O.2   219  THR219     -0.2866
     88  CB        19.0440   26.7550   50.8470 C.3   219  THR219      0.1770
     89  OG1       18.3660   25.9020   51.7780 O.3   219  THR219     -0.2211
     90  CG2       20.3930   26.1260   50.4970 C.3   219  THR219      0.0375
     91  N         21.0330   32.1740   52.4010 N.3   222  HIS222     -0.1226
     92  CA        22.1910   31.8350   53.2260 C.3   222  HIS222      0.1752
     93  C         23.4570   32.0040   52.3840 C.2   222  HIS222      0.2595
     94  O         24.4250   32.6220   52.8200 O.2   222  HIS222     -0.2718
     95  CB        22.0680   30.3880   53.7040 C.3   222  HIS222      0.0759
     96  CG        23.2580   29.8830   54.4590 C.ar  222  HIS222      0.0818
     97  ND1       23.2620   29.7320   55.8280 N.ar  222  HIS222     -0.2268
     98  CD2       24.4670   29.4420   54.0290 C.ar  222  HIS222      0.1154
     99  CE1       24.4170   29.2160   56.2110 C.ar  222  HIS222      0.1986
    100  NE2       25.1650   29.0300   55.1380 N.ar  222  HIS222     -0.2212
    101  N         23.4460   31.4560   51.1710 N.am  223  GLU223     -0.1979
    102  CA        24.6060   31.5790   50.3000 C.3   223  GLU223      0.1602
    103  C         24.8160   33.0290   49.8670 C.2   223  GLU223      0.2287
    104  O         25.9530   33.4780   49.7290 O.2   223  GLU223     -0.2864
    105  CB        24.4640   30.6740   49.0730 C.3   223  GLU223      0.0415
    106  CG        24.5440   29.1870   49.3990 C.3   223  GLU223      0.1163
    107  CD        25.7370   28.8440   50.2720 C.2   223  GLU223      0.3649
    108  OE1       26.8400   29.3850   50.0310 O.co2 223  GLU223     -0.2457
    109  OE2       25.5750   28.0250   51.1990 O.co2 223  GLU223     -0.2457
    110  N         26.7070   34.8390   52.4960 N.3   226  HIS226     -0.1241
    111  CA        28.1370   34.5450   52.3970 C.3   226  HIS226      0.1621
    112  C         28.7140   35.4030   51.2750 C.2   226  HIS226      0.2264
    113  O         29.7780   35.9970   51.4150 O.2   226  HIS226     -0.2867
    114  CB        28.4010   33.0790   52.0290 C.3   226  HIS226      0.0745
    115  CG        28.2450   32.1120   53.1590 C.ar  226  HIS226      0.0817
    116  ND1       28.9320   32.2380   54.3490 N.ar  226  HIS226     -0.2268
    117  CD2       27.5530   30.9510   53.2470 C.ar  226  HIS226      0.1154
    118  CE1       28.6720   31.1960   55.1170 C.ar  226  HIS226      0.1986
    119  NE2       27.8390   30.3990   54.4710 N.ar  226  HIS226     -0.2212
    120  N         31.8150   38.1180   51.2890 N.3   230  ARG230     -0.1245
    121  CA        32.9300   37.9780   50.3640 C.3   230  ARG230      0.1563
    122  C         33.0760   39.1260   49.3670 C.2   230  ARG230      0.2260
    123  O         34.1980   39.5010   49.0220 O.2   230  ARG230     -0.2867
    124  CB        32.8270   36.6280   49.6530 C.3   230  ARG230      0.0307
    125  CG        32.8990   35.4560   50.6440 C.3   230  ARG230      0.0489
    126  CD        32.4800   34.1400   50.0210 C.3   230  ARG230      0.2205
    127  NE        33.4560   33.6350   49.0640 N.pl3 230  ARG230     -0.0865
    128  CZ        34.4890   32.8570   49.3730 C.cat 230  ARG230      0.5346
    129  NH1       34.7000   32.4780   50.6300 N.pl3 230  ARG230      0.1354
    130  NH2       35.3120   32.4490   48.4150 N.pl3 230  ARG230      0.1354
    131  N         28.9110   16.3810   68.5850 N.3   250  TYR250     -0.1241
    132  CA        29.8860   17.1690   67.8400 C.3   250  TYR250      0.1605
    133  C         31.2240   17.0500   68.5660 C.2   250  TYR250      0.2264
    134  O         32.2580   16.7510   67.9700 O.2   250  TYR250     -0.2867
    135  CB        29.4760   18.6420   67.8210 C.3   250  TYR250      0.0534
    136  CG        28.6740   19.0640   66.6160 C.ar  250  TYR250     -0.0201
    137  CD1       29.2330   19.8970   65.6450 C.ar  250  TYR250     -0.0009
    138  CD2       27.3530   18.6470   66.4490 C.ar  250  TYR250     -0.0009
    139  CE1       28.4950   20.3080   64.5370 C.ar  250  TYR250      0.0417
    140  CE2       26.6070   19.0510   65.3440 C.ar  250  TYR250      0.0417
    141  CZ        27.1850   19.8820   64.3940 C.ar  250  TYR250      0.1957
    142  OH        26.4570   20.2950   63.3030 O.3   250  TYR250     -0.2866
    143  N         34.3180   17.8260   66.1170 N.3   255  LEU255     -0.1245
    144  CA        33.7890   18.5940   64.9990 C.3   255  LEU255      0.1561
    145  C         33.8940   20.0850   65.2890 C.2   255  LEU255      0.2260
    146  O         33.5440   20.5440   66.3760 O.2   255  LEU255     -0.2867
    147  CB        32.3310   18.2200   64.7430 C.3   255  LEU255      0.0270
    148  CG        32.0720   16.7650   64.3510 C.3   255  LEU255      0.0019
    149  CD1       30.5740   16.5330   64.2090 C.3   255  LEU255      0.0001
    150  CD2       32.7890   16.4530   63.0460 C.3   255  LEU255      0.0001
    151  N         30.3270   30.5890   59.3480 N.3   261  GLU261     -0.1245
    152  CA        29.0290   29.9180   59.2780 C.3   261  GLU261      0.1567
    153  C         28.1320   30.3500   60.4380 C.2   261  GLU261      0.2260
    154  O         26.9420   30.5950   60.2510 O.2   261  GLU261     -0.2867
    155  CB        29.1910   28.4000   59.3100 C.3   261  GLU261      0.0388
    156  CG        29.7570   27.7890   58.0360 C.3   261  GLU261      0.1160
    157  CD        28.8580   27.9930   56.8190 C.2   261  GLU261      0.3649
    158  OE1       27.6820   28.3730   56.9910 O.co2 261  GLU261     -0.2457
    159  OE2       29.3350   27.7520   55.6910 O.co2 261  GLU261     -0.2457
    160  N         20.6360   34.0750   58.2460 N.3   350  GLU350     -0.1245
    161  CA        19.6540   33.0400   57.9540 C.3   350  GLU350      0.1567
    162  C         18.4780   33.1850   58.9110 C.2   350  GLU350      0.2260
    163  O         17.3160   33.1820   58.4990 O.2   350  GLU350     -0.2867
    164  CB        20.2690   31.6500   58.1360 C.3   350  GLU350      0.0388
    165  CG        19.3250   30.5010   57.7990 C.3   350  GLU350      0.1160
    166  CD        20.0040   29.1410   57.8560 C.2   350  GLU350      0.3649
    167  OE1       21.1900   29.0480   57.4710 O.co2 350  GLU350     -0.2457
    168  OE2       19.3430   28.1600   58.2610 O.co2 350  GLU350     -0.2457
    169  N         15.6740   25.0510   60.6090 N.3   362  ARG362     -0.1245
    170  CA        16.4990   24.5370   61.6960 C.3   362  ARG362      0.1563
    171  C         16.6710   25.7230   62.6450 C.2   362  ARG362      0.2260
    172  O         16.7400   26.8730   62.2010 O.2   362  ARG362     -0.2867
    173  CB        17.8630   24.0660   61.1670 C.3   362  ARG362      0.0307
    174  CG        18.6670   25.1630   60.4800 C.3   362  ARG362      0.0489
    175  CD        19.9190   24.6110   59.8040 C.3   362  ARG362      0.2205
    176  NE        20.5700   25.6350   58.9870 N.pl3 362  ARG362     -0.0865
    177  CZ        21.6010   25.4120   58.1790 C.cat 362  ARG362      0.5346
    178  NH1       22.1190   24.1930   58.0710 N.pl3 362  ARG362      0.1354
    179  NH2       22.0980   26.4080   57.4570 N.pl3 362  ARG362      0.1354
    180  N         22.6220   26.0370   63.4860 N.3   365  TYR365     -0.1241
    181  CA        23.4890   25.4680   62.4560 C.3   365  TYR365      0.1605
    182  C         24.1230   24.2030   63.0340 C.2   365  TYR365      0.2264
    183  O         24.5610   23.3120   62.3020 O.2   365  TYR365     -0.2867
    184  CB        24.5980   26.4650   62.1010 C.3   365  TYR365      0.0534
    185  CG        25.3840   26.1300   60.8540 C.ar  365  TYR365     -0.0201
    186  CD1       24.8760   26.4220   59.5870 C.ar  365  TYR365     -0.0009
    187  CD2       26.6430   25.5290   60.9390 C.ar  365  TYR365     -0.0009
    188  CE1       25.6020   26.1280   58.4340 C.ar  365  TYR365      0.0417
    189  CE2       27.3760   25.2290   59.7940 C.ar  365  TYR365      0.0417
    190  CZ        26.8490   25.5330   58.5440 C.ar  365  TYR365      0.1957
    191  OH        27.5700   25.2390   57.4120 O.3   365  TYR365     -0.2866
    192  N         23.4320   21.2180   64.1100 N.3   367  ASN367     -0.1225
    193  CA        22.5140   20.0920   64.1320 C.3   367  ASN367      0.1785
    194  C         23.0650   19.0020   63.2260 C.2   367  ASN367      0.2597
    195  O         24.2360   19.0370   62.8370 O.2   367  ASN367     -0.2718
    196  CB        21.1300   20.5370   63.6480 C.3   367  ASN367      0.1169
    197  CG        21.1210   20.9320   62.1790 C.2   367  ASN367      0.2627
    198  OD1       22.1750   21.0800   61.5540 O.2   367  ASN367     -0.2716
    199  ND2       19.9240   21.1100   61.6200 N.am  367  ASN367     -0.0877
    200  N         22.2270   18.0240   62.9040 N.am  368  PHE368     -0.1962
    201  CA        22.6350   16.9380   62.0220 C.3   368  PHE368      0.1771
    202  C         21.6110   16.7860   60.9050 C.2   368  PHE368      0.2619
    203  O         20.4210   16.6290   61.1690 O.2   368  PHE368     -0.2715
    204  CB        22.7530   15.6300   62.8090 C.3   368  PHE368      0.0574
    205  CG        23.9670   15.5670   63.6880 C.ar  368  PHE368     -0.0200
    206  CD1       25.2040   15.2170   63.1580 C.ar  368  PHE368     -0.0042
    207  CD2       23.8820   15.8980   65.0360 C.ar  368  PHE368     -0.0042
    208  CE1       26.3500   15.1980   63.9630 C.ar  368  PHE368     -0.0003
    209  CE2       25.0130   15.8840   65.8440 C.ar  368  PHE368     -0.0003
    210  CZ        26.2510   15.5330   65.3060 C.ar  368  PHE368     -0.0000
    211  N         22.0790   16.8450   59.6610 N.am  369  ASP369     -0.1971
    212  CA        21.1950   16.7090   58.5070 C.3   369  ASP369      0.1709
    213  C         20.4620   15.3710   58.5520 C.2   369  ASP369      0.2293
    214  O         21.0210   14.3660   58.9830 O.2   369  ASP369     -0.2864
    215  CB        21.9950   16.8180   57.2090 C.3   369  ASP369      0.1436
    216  CG        22.7570   18.1260   57.1040 C.2   369  ASP369      0.3671
    217  OD1       22.2780   19.1400   57.6470 O.co2 369  ASP369     -0.2456
    218  OD2       23.8280   18.1440   56.4670 O.co2 369  ASP369     -0.2456
    219  N         26.2800    9.0760   60.2930 N.3   422  PHE422     -0.1241
    220  CA        27.3830    9.9660   60.6430 C.3   422  PHE422      0.1605
    221  C         28.5040    9.2250   61.3650 C.2   422  PHE422      0.2264
    222  O         28.2460    8.1140   61.8770 O.2   422  PHE422     -0.2867
    223  CB        26.8940   11.1230   61.5180 C.3   422  PHE422      0.0534
    224  CG        25.9710   12.0710   60.8090 C.ar  422  PHE422     -0.0203
    225  CD1       24.6150   11.7830   60.6850 C.ar  422  PHE422     -0.0042
    226  CD2       26.4600   13.2500   60.2550 C.ar  422  PHE422     -0.0042
    227  CE1       23.7580   12.6610   60.0190 C.ar  422  PHE422     -0.0003
    228  CE2       25.6110   14.1310   59.5880 C.ar  422  PHE422     -0.0003
    229  CZ        24.2590   13.8350   59.4710 C.ar  422  PHE422     -0.0000
@<TRIPOS>BOND
     1    33    31   ar
     2    33    35   ar
     3    39    38    2
     4     8     9    1
     5    31    30   ar
     6    19    18    2
     7    35    34   ar
     8    47    46    1
     9    47    48    2
    10    44    42   ar
    11    46    45    1
    12    46    49    1
    13    41    42    1
    14    41    40    1
    15    38    45   am
    16    38    37    1
    17     9    10    1
    18     9    12    1
    19    16    17    1
    20    16    10   am
    21    18    25   am
    22    18    17    1
    23    42    43   ar
    24    30    29    1
    25    30    32   ar
    26    36    37    1
    27    36    27   am
    28    26    25    1
    29    26    29    1
    30    26    27    1
    31    20    17    1
    32    20    21    1
    33    34    32   ar
    34    14    12    1
    35    49    50    1
    36   130   128    1
    37    10    11    2
    38    37    40    1
    39    21    22    1
    40    27    28    2
    41    12    13    1
    42   123   122    2
    43   127   128    2
    44   127   126    1
    45   105   106    1
    46   105   102    1
    47    13    15    1
    48   122   121    1
    49   128   129    1
    50   106   107    1
    51   124   121    1
    52   124   125    1
    53   104   103    2
    54   103   102    1
    55   126   125    1
    56   108   107   ar
    57    22    24   am
    58    22    23    2
    59   107   109   ar
    60   102   101    1
    61   121   120    1
    62    90    88    1
    63    86    87    2
    64    86    85    1
    65    88    85    1
    66    88    89    1
    67   101    93   am
    68   112   113    2
    69   112   111    1
    70    85    84    1
    71    60    61   ar
    72    60    58   ar
    73    61    59   ar
    74    51    52    1
    75    80    79    2
    76   114   111    1
    77   114   115    1
    78    58    56   ar
    79     4     3    2
    80    93    94    2
    81    93    92    1
    82     3     2    1
    83   111   110    1
    84    91    92    1
    85    59    57   ar
    86    52    55    1
    87    52    53    1
    88    56    57   ar
    89    56    55    1
    90    79    78    1
    91   115   117   ar
    92   115   116   ar
    93    92    95    1
    94   117   119   ar
    95    95    96    1
    96     2     1    1
    97     2     5    1
    98    53    54    2
    99    53    62   am
   100    98    96   ar
   101    98   100   ar
   102     6     5    1
   103    83    81    1
   104    77    78    1
   105    81    78    1
   106    81    82    1
   107   116   118   ar
   108    96    97   ar
   109   119   118   ar
   110    62    63    1
   111     5     7    1
   112   100    99   ar
   113    63    64    1
   114   159   157   ar
   115    97    99   ar
   116   218   216   ar
   117   157   158   ar
   118   157   156    1
   119    64    65    2
   120    64    66   am
   121   216   215    1
   122   216   217   ar
   123   215   212    1
   124   191   190    1
   125   179   177    1
   126   167   166   ar
   127   165   166    1
   128   165   164    1
   129    66    67    1
   130   166   168   ar
   131   161   164    1
   132   161   160    1
   133   161   162    1
   134   156   155    1
   135   178   177    1
   136    75    73   ar
   137    75    76   ar
   138    73    71   ar
   139   177   176    2
   140   188   190   ar
   141   188   186   ar
   142   163   162    2
   143   212   213    1
   144   212   211    1
   145   190   189   ar
   146   213   214    2
   147   176   175    1
   148    67    70    1
   149    67    68    1
   150    76    74   ar
   151   152   155    1
   152   152   151    1
   153   152   153    1
   154    71    70    1
   155    71    72   ar
   156   229   228   ar
   157   229   227   ar
   158   186   185   ar
   159   228   226   ar
   160   211   202   am
   161    69    68    2
   162   189   187   ar
   163   175   174    1
   164   227   225   ar
   165   154   153    2
   166   226   224   ar
   167   219   220    1
   168    74    72   ar
   169   174   173    1
   170   169   170    1
   171   220   221    1
   172   220   223    1
   173   225   224   ar
   174   224   223    1
   175   185   187   ar
   176   185   184    1
   177   202   203    2
   178   202   201    1
   179   173   170    1
   180   221   222    2
   181   198   197    2
   182   199   197   am
   183   170   171    1
   184   201   204    1
   185   201   200    1
   186   184   181    1
   187   197   196    1
   188   172   171    2
   189   183   182    2
   190   181   182    1
   191   181   180    1
   192   204   205    1
   193   195   194    2
   194   200   194   am
   195   150   148    1
   196   206   205   ar
   197   206   208   ar
   198   194   193    1
   199   142   141    1
   200   196   193    1
   201   205   207   ar
   202   208   210   ar
   203   192   193    1
   204   149   148    1
   205   148   147    1
   206   141   139   ar
   207   141   140   ar
   208   139   137   ar
   209   147   144    1
   210   144   145    1
   211   144   143    1
   212   207   209   ar
   213   145   146    2
   214   210   209   ar
   215   140   138   ar
   216   137   136   ar
   217   138   136   ar
   218   136   135    1
   219   135   132    1
   220   132   133    1
   221   132   131    1
   222   134   133    2
