@<TRIPOS>MOLECULE
tmp/3qw7A00.pdb
 237 230 0 0 0
SMALL
GASTEIGER

@<TRIPOS>ATOM
      1  N         25.8250   13.5820   54.3980 N.3    69  VAL69      -0.1245
      2  CA        24.9590   14.5380   53.7260 C.3    69  VAL69       0.1561
      3  C         25.5580   14.9160   52.3790 C.2    69  VAL69       0.2260
      4  O         26.3430   15.8600   52.2670 O.2    69  VAL69      -0.2867
      5  CB        24.7550   15.8180   54.5710 C.3    69  VAL69       0.0252
      6  CG1       23.7950   16.7630   53.8620 C.3    69  VAL69       0.0019
      7  CG2       24.2120   15.4520   55.9440 C.3    69  VAL69       0.0019
      8  N         23.7440   18.4570   46.5150 N.3   160  ILE160     -0.1231
      9  CA        23.3030   19.2800   47.6300 C.3   160  ILE160      0.1692
     10  C         24.3900   20.0670   48.3520 C.2   160  ILE160      0.2592
     11  O         24.1700   20.5730   49.4440 O.2   160  ILE160     -0.2718
     12  CB        22.4890   18.4410   48.6420 C.3   160  ILE160      0.0266
     13  CG1       23.2920   17.2250   49.1210 C.3   160  ILE160      0.0019
     14  CG2       21.1840   18.0110   47.9960 C.3   160  ILE160      0.0020
     15  CD1       22.5460   16.3720   50.1380 C.3   160  ILE160      0.0001
     16  N         25.5640   20.1780   47.7340 N.am  161  GLN161     -0.1966
     17  CA        26.6640   20.9580   48.3070 C.3   161  GLN161      0.1733
     18  C         26.5560   22.3770   47.8030 C.2   161  GLN161      0.2616
     19  O         27.2420   22.7310   46.8600 O.2   161  GLN161     -0.2715
     20  CB        28.0230   20.3440   47.9140 C.3   161  GLN161      0.0408
     21  CG        29.2030   21.1410   48.3220 C.3   161  GLN161      0.0908
     22  CD        30.5250   20.4720   47.8930 C.2   161  GLN161      0.2608
     23  OE1       30.5340   19.3820   47.3600 O.2   161  GLN161     -0.2717
     24  NE2       31.6090   21.1440   48.1410 N.am  161  GLN161     -0.0878
     25  N         25.6280   23.1480   48.3720 N.am  162  PHE162     -0.1960
     26  CA        25.4410   24.5300   47.9540 C.3   162  PHE162      0.1771
     27  C         26.4970   25.3710   48.6690 C.2   162  PHE162      0.2619
     28  O         26.7940   25.1370   49.8450 O.2   162  PHE162     -0.2715
     29  CB        24.0450   25.0260   48.3330 C.3   162  PHE162      0.0574
     30  CG        22.9230   24.1700   47.8130 C.ar  162  PHE162     -0.0200
     31  CD1       23.0890   23.3820   46.6780 C.ar  162  PHE162     -0.0042
     32  CD2       21.6810   24.1720   48.4420 C.ar  162  PHE162     -0.0042
     33  CE1       22.0350   22.6260   46.1650 C.ar  162  PHE162     -0.0003
     34  CE2       20.6180   23.4180   47.9350 C.ar  162  PHE162     -0.0003
     35  CZ        20.7930   22.6400   46.8030 C.ar  162  PHE162     -0.0000
     36  N         27.0570   26.3530   47.9730 N.am  163  GLU163     -0.1963
     37  CA        28.0910   27.1860   48.5640 C.3   163  GLU163      0.1733
     38  C         28.4830   28.3060   47.6150 C.2   163  GLU163      0.2616
     39  O         28.1520   28.2700   46.4280 O.2   163  GLU163     -0.2715
     40  CB        29.3260   26.3290   48.8550 C.3   163  GLU163      0.0429
     41  CG        30.0160   25.8080   47.6040 C.3   163  GLU163      0.1163
     42  CD        31.1410   24.8370   47.9110 C.2   163  GLU163      0.3649
     43  OE1       31.8010   24.9950   48.9580 O.co2 163  GLU163     -0.2457
     44  OE2       31.3720   23.9200   47.0970 O.co2 163  GLU163     -0.2457
     45  N         29.1750   29.3040   48.1560 N.am  164  CYS164     -0.1954
     46  CA        29.6750   30.4180   47.3610 C.3   164  CYS164      0.1843
     47  C         31.1090   30.0980   46.9440 C.2   164  CYS164      0.2625
     48  O         31.9340   29.6960   47.7700 O.2   164  CYS164     -0.2714
     49  CB        29.6940   31.7140   48.1690 C.3   164  CYS164      0.0997
     50  SG        28.0830   32.3910   48.5560 S.3   164  CYS164     -0.0797
     51  N         31.3910   30.2740   45.6630 N.am  165  LYS165     -0.1977
     52  CA        32.7180   30.0420   45.1160 C.3   165  LYS165      0.1596
     53  C         33.1220   31.3420   44.4370 C.2   165  LYS165      0.2287
     54  O         32.2770   32.0490   43.9000 O.2   165  LYS165     -0.2864
     55  CB        32.6790   28.9160   44.0800 C.3   165  LYS165      0.0298
     56  CG        32.3540   27.5420   44.6510 C.3   165  LYS165      0.0038
     57  CD        33.5100   26.9900   45.4800 C.3   165  LYS165      0.0206
     58  CE        34.6670   26.5040   44.6030 C.3   165  LYS165      0.1093
     59  NZ        34.4340   26.7050   43.1440 N.3   165  LYS165     -0.1314
     60  N         15.9180   20.1610   51.8860 N.3   193  PHE193     -0.1241
     61  CA        16.2340   19.3440   53.0450 C.3   193  PHE193      0.1605
     62  C         15.0780   19.1300   53.9950 C.2   193  PHE193      0.2264
     63  O         14.1670   19.9550   54.0840 O.2   193  PHE193     -0.2867
     64  CB        17.3810   20.0000   53.7990 C.3   193  PHE193      0.0534
     65  CG        18.5860   20.2460   52.9460 C.ar  193  PHE193     -0.0203
     66  CD1       19.5670   19.2730   52.8130 C.ar  193  PHE193     -0.0042
     67  CD2       18.7270   21.4430   52.2490 C.ar  193  PHE193     -0.0042
     68  CE1       20.6650   19.4780   51.9800 C.ar  193  PHE193     -0.0003
     69  CE2       19.8220   21.6560   51.4140 C.ar  193  PHE193     -0.0003
     70  CZ        20.7930   20.6760   51.2860 C.ar  193  PHE193     -0.0000
     71  N         12.5410   22.2980   54.2280 N.3   214  THR214     -0.1218
     72  CA        13.0810   23.6460   54.2750 C.3   214  THR214      0.1862
     73  C         12.5890   24.3950   53.0380 C.2   214  THR214      0.2287
     74  O         12.5560   23.8370   51.9420 O.2   214  THR214     -0.2866
     75  CB        14.6240   23.6140   54.2560 C.3   214  THR214      0.1770
     76  OG1       15.1010   22.9800   55.4490 O.3   214  THR214     -0.2211
     77  CG2       15.1880   25.0210   54.1740 C.3   214  THR214      0.0375
     78  N         17.1270   28.7730   51.9030 N.3   219  THR219     -0.1218
     79  CA        18.4060   28.1700   51.5410 C.3   219  THR219      0.1862
     80  C         19.1730   29.0790   50.5920 C.2   219  THR219      0.2287
     81  O         20.3870   29.2570   50.7370 O.2   219  THR219     -0.2866
     82  CB        18.1930   26.8040   50.8890 C.3   219  THR219      0.1770
     83  OG1       17.4640   25.9690   51.7970 O.3   219  THR219     -0.2211
     84  CG2       19.5270   26.1430   50.5590 C.3   219  THR219      0.0375
     85  N         20.4090   32.1670   52.4430 N.3   222  HIS222     -0.1226
     86  CA        21.6010   31.8610   53.2410 C.3   222  HIS222      0.1752
     87  C         22.8430   32.1110   52.3880 C.2   222  HIS222      0.2595
     88  O         23.7930   32.7680   52.8260 O.2   222  HIS222     -0.2718
     89  CB        21.5630   30.3890   53.6960 C.3   222  HIS222      0.0759
     90  CG        22.7740   29.9430   54.4700 C.ar  222  HIS222      0.0818
     91  ND1       22.7990   29.8850   55.8460 N.ar  222  HIS222     -0.2268
     92  CD2       23.9810   29.4840   54.0560 C.ar  222  HIS222      0.1154
     93  CE1       23.9630   29.4060   56.2490 C.ar  222  HIS222      0.1986
     94  NE2       24.6990   29.1540   55.1830 N.ar  222  HIS222     -0.2212
     95  N         22.8350   31.5850   51.1670 N.am  223  GLU223     -0.1979
     96  CA        23.9790   31.7770   50.2860 C.3   223  GLU223      0.1602
     97  C         24.1190   33.2370   49.8570 C.2   223  GLU223      0.2287
     98  O         25.2300   33.7330   49.6990 O.2   223  GLU223     -0.2864
     99  CB        23.8780   30.8760   49.0530 C.3   223  GLU223      0.0415
    100  CG        23.9560   29.3820   49.3620 C.3   223  GLU223      0.1163
    101  CD        25.1090   29.0370   50.2840 C.2   223  GLU223      0.3649
    102  OE1       26.2220   29.5650   50.0650 O.co2 223  GLU223     -0.2457
    103  OE2       24.9100   28.2310   51.2220 O.co2 223  GLU223     -0.2457
    104  N         25.9610   35.0460   52.5150 N.3   226  HIS226     -0.1241
    105  CA        27.3980   34.7950   52.4260 C.3   226  HIS226      0.1621
    106  C         27.9510   35.6420   51.2810 C.2   226  HIS226      0.2264
    107  O         29.0130   36.2490   51.4030 O.2   226  HIS226     -0.2867
    108  CB        27.7040   33.3300   52.0880 C.3   226  HIS226      0.0745
    109  CG        27.5940   32.3800   53.2420 C.ar  226  HIS226      0.0817
    110  ND1       28.2600   32.5610   54.4340 N.ar  226  HIS226     -0.2268
    111  CD2       26.9780   31.1750   53.3330 C.ar  226  HIS226      0.1154
    112  CE1       28.0660   31.5050   55.2100 C.ar  226  HIS226      0.1986
    113  NE2       27.2950   30.6520   54.5640 N.ar  226  HIS226     -0.2212
    114  N         31.0370   38.3740   51.2190 N.3   230  ARG230     -0.1245
    115  CA        32.1630   38.2260   50.3010 C.3   230  ARG230      0.1563
    116  C         32.2870   39.3700   49.2970 C.2   230  ARG230      0.2260
    117  O         33.3990   39.7650   48.9410 O.2   230  ARG230     -0.2867
    118  CB        32.0800   36.8610   49.6010 C.3   230  ARG230      0.0307
    119  CG        32.2060   35.6810   50.5870 C.3   230  ARG230      0.0489
    120  CD        31.7630   34.3560   49.9870 C.3   230  ARG230      0.2205
    121  NE        32.7410   33.8030   49.0570 N.pl3 230  ARG230     -0.0865
    122  CZ        33.8320   33.1340   49.4160 C.cat 230  ARG230      0.5346
    123  NH1       34.1030   32.9230   50.6990 N.pl3 230  ARG230      0.1354
    124  NH2       34.6510   32.6610   48.4820 N.pl3 230  ARG230      0.1354
    125  N         37.6420   31.2790   57.3200 N.3   238  PRO238     -0.2116
    126  CA        37.1080   29.9850   57.7560 C.3   238  PRO238      0.1372
    127  C         37.9350   29.3070   58.8470 C.2   238  PRO238      0.2244
    128  O         37.4680   28.3640   59.4880 O.2   238  PRO238     -0.2868
    129  CB        37.0600   29.1730   56.4580 C.3   238  PRO238      0.0268
    130  CG        38.1620   29.7760   55.6320 C.3   238  PRO238      0.0207
    131  CD        37.9870   31.2530   55.8880 C.3   238  PRO238      0.0892
    132  N         28.2990   16.9230   68.6470 N.3   250  TYR250     -0.1241
    133  CA        29.3110   17.7080   67.9530 C.3   250  TYR250      0.1605
    134  C         30.6090   17.5980   68.7700 C.2   250  TYR250      0.2264
    135  O         31.6710   17.2960   68.2410 O.2   250  TYR250     -0.2867
    136  CB        28.9020   19.1860   67.8770 C.3   250  TYR250      0.0534
    137  CG        28.0430   19.5470   66.6860 C.ar  250  TYR250     -0.0201
    138  CD1       26.7490   19.0430   66.5470 C.ar  250  TYR250     -0.0009
    139  CD2       28.5240   20.4060   65.6960 C.ar  250  TYR250     -0.0009
    140  CE1       25.9500   19.3900   65.4490 C.ar  250  TYR250      0.0417
    141  CE2       27.7350   20.7550   64.5930 C.ar  250  TYR250      0.0417
    142  CZ        26.4500   20.2440   64.4790 C.ar  250  TYR250      0.1957
    143  OH        25.6670   20.5860   63.3960 O.3   250  TYR250     -0.2866
    144  N         33.7620   18.5150   66.4200 N.3   255  LEU255     -0.1231
    145  CA        33.2800   19.2930   65.2850 C.3   255  LEU255      0.1693
    146  C         33.4190   20.7920   65.5360 C.2   255  LEU255      0.2592
    147  O         33.0730   21.2960   66.6070 O.2   255  LEU255     -0.2718
    148  CB        31.8220   18.9340   64.9760 C.3   255  LEU255      0.0284
    149  CG        31.5610   17.4800   64.5700 C.3   255  LEU255      0.0019
    150  CD1       30.0880   17.3070   64.2270 C.3   255  LEU255      0.0001
    151  CD2       32.4260   17.1100   63.3740 C.3   255  LEU255      0.0001
    152  N         33.9420   21.4990   64.5380 N.am  256  GLU256     -0.1966
    153  CA        34.1430   22.9390   64.6340 C.3   256  GLU256      0.1733
    154  C         33.3740   23.6310   63.5080 C.2   256  GLU256      0.2616
    155  O         33.4610   23.2240   62.3530 O.2   256  GLU256     -0.2715
    156  CB        35.6380   23.2650   64.5220 C.3   256  GLU256      0.0429
    157  CG        36.5300   22.3930   65.4080 C.3   256  GLU256      0.1163
    158  CD        38.0050   22.7540   65.3120 C.2   256  GLU256      0.3649
    159  OE1       38.4550   23.1600   64.2190 O.co2 256  GLU256     -0.2457
    160  OE2       38.7200   22.6150   66.3280 O.co2 256  GLU256     -0.2457
    161  N         32.6220   24.6700   63.8560 N.am  257  VAL257     -0.1977
    162  CA        31.8330   25.4200   62.8810 C.3   257  VAL257      0.1596
    163  C         32.3930   26.8370   62.7730 C.2   257  VAL257      0.2287
    164  O         32.6470   27.4870   63.7860 O.2   257  VAL257     -0.2864
    165  CB        30.3430   25.4720   63.3110 C.3   257  VAL257      0.0276
    166  CG1       29.5420   26.3390   62.3570 C.3   257  VAL257      0.0022
    167  CG2       29.7690   24.0600   63.3380 C.3   257  VAL257      0.0022
    168  N         29.7160   31.0140   59.4100 N.3   261  GLU261     -0.1245
    169  CA        28.4350   30.3090   59.3240 C.3   261  GLU261      0.1567
    170  C         27.4940   30.7120   60.4500 C.2   261  GLU261      0.2260
    171  O         26.3010   30.8990   60.2300 O.2   261  GLU261     -0.2867
    172  CB        28.6320   28.7930   59.3690 C.3   261  GLU261      0.0388
    173  CG        29.2320   28.1780   58.1080 C.3   261  GLU261      0.1160
    174  CD        28.3730   28.3890   56.8680 C.2   261  GLU261      0.3649
    175  OE1       27.1910   28.7740   56.9920 O.co2 261  GLU261     -0.2457
    176  OE2       28.8820   28.1530   55.7560 O.co2 261  GLU261     -0.2457
    177  N         14.9640   25.2320   60.4530 N.3   362  ARG362     -0.1245
    178  CA        15.8130   24.7300   61.5310 C.3   362  ARG362      0.1563
    179  C         15.9920   25.9210   62.4790 C.2   362  ARG362      0.2260
    180  O         16.0660   27.0680   62.0270 O.2   362  ARG362     -0.2867
    181  CB        17.1790   24.2740   60.9840 C.3   362  ARG362      0.0307
    182  CG        17.9590   25.3660   60.2510 C.3   362  ARG362      0.0489
    183  CD        19.2180   24.8220   59.5750 C.3   362  ARG362      0.2205
    184  NE        19.8920   25.8620   58.7940 N.pl3 362  ARG362     -0.0865
    185  CZ        20.9970   25.6820   58.0760 C.cat 362  ARG362      0.5346
    186  NH1       21.5830   24.4930   58.0240 N.pl3 362  ARG362      0.1354
    187  NH2       21.5170   26.6990   57.4010 N.pl3 362  ARG362      0.1354
    188  N         21.9320   26.3190   63.2920 N.3   365  TYR365     -0.1241
    189  CA        22.7860   25.7880   62.2380 C.3   365  TYR365      0.1605
    190  C         23.4450   24.5200   62.7800 C.2   365  TYR365      0.2264
    191  O         23.8820   23.6480   62.0190 O.2   365  TYR365     -0.2867
    192  CB        23.8620   26.8210   61.8930 C.3   365  TYR365      0.0534
    193  CG        24.7620   26.4560   60.7350 C.ar  365  TYR365     -0.0201
    194  CD1       24.3550   26.6550   59.4120 C.ar  365  TYR365     -0.0009
    195  CD2       26.0430   25.9490   60.9600 C.ar  365  TYR365     -0.0009
    196  CE1       25.2100   26.3620   58.3440 C.ar  365  TYR365      0.0417
    197  CE2       26.9000   25.6550   59.9020 C.ar  365  TYR365      0.0417
    198  CZ        26.4800   25.8670   58.6000 C.ar  365  TYR365      0.1957
    199  OH        27.3400   25.6050   57.5580 O.3   365  TYR365     -0.2866
    200  N         22.6230   21.6090   63.9340 N.3   367  ASN367     -0.1225
    201  CA        21.7140   20.4710   63.9960 C.3   367  ASN367      0.1785
    202  C         22.2540   19.3530   63.1030 C.2   367  ASN367      0.2597
    203  O         23.4550   19.3060   62.8000 O.2   367  ASN367     -0.2718
    204  CB        20.3190   20.8960   63.5230 C.3   367  ASN367      0.1169
    205  CG        20.2810   21.2200   62.0410 C.2   367  ASN367      0.2627
    206  OD1       21.3260   21.3970   61.4070 O.2   367  ASN367     -0.2716
    207  ND2       19.0790   21.3050   61.4780 N.am  367  ASN367     -0.0877
    208  N         21.3700   18.4450   62.7030 N.am  368  PHE368     -0.1962
    209  CA        21.7300   17.3340   61.8230 C.3   368  PHE368      0.1771
    210  C         20.6190   17.1570   60.7970 C.2   368  PHE368      0.2619
    211  O         19.4820   16.8760   61.1690 O.2   368  PHE368     -0.2715
    212  CB        21.8860   16.0350   62.6210 C.3   368  PHE368      0.0574
    213  CG        23.0870   16.0180   63.5150 C.ar  368  PHE368     -0.0200
    214  CD1       24.3520   15.7360   62.9970 C.ar  368  PHE368     -0.0042
    215  CD2       22.9650   16.3100   64.8680 C.ar  368  PHE368     -0.0042
    216  CE1       25.4770   15.7530   63.8160 C.ar  368  PHE368     -0.0003
    217  CE2       24.0810   16.3320   65.6980 C.ar  368  PHE368     -0.0003
    218  CZ        25.3430   16.0500   65.1700 C.ar  368  PHE368     -0.0000
    219  N         20.9340   17.3300   59.5150 N.am  369  ASP369     -0.1971
    220  CA        19.9190   17.1600   58.4690 C.3   369  ASP369      0.1709
    221  C         19.3490   15.7460   58.5310 C.2   369  ASP369      0.2293
    222  O         20.0630   14.7960   58.8510 O.2   369  ASP369     -0.2864
    223  CB        20.5010   17.3890   57.0680 C.3   369  ASP369      0.1436
    224  CG        20.9710   18.8120   56.8460 C.2   369  ASP369      0.3671
    225  OD1       20.3550   19.7440   57.3990 O.co2 369  ASP369     -0.2456
    226  OD2       21.9520   18.9970   56.0970 O.co2 369  ASP369     -0.2456
    227  N         25.5640    9.3900   60.4460 N.3   422  PHE422     -0.1241
    228  CA        26.6010   10.2940   60.9230 C.3   422  PHE422      0.1605
    229  C         27.5430    9.5140   61.8360 C.2   422  PHE422      0.2264
    230  O         28.7550    9.4730   61.5420 O.2   422  PHE422     -0.2867
    231  CB        25.9930   11.4680   61.6980 C.3   422  PHE422      0.0534
    232  CG        25.1580   12.3930   60.8570 C.ar  422  PHE422     -0.0203
    233  CD1       23.8010   12.1580   60.6740 C.ar  422  PHE422     -0.0042
    234  CD2       25.7340   13.5000   60.2420 C.ar  422  PHE422     -0.0042
    235  CE1       23.0220   13.0220   59.8990 C.ar  422  PHE422     -0.0003
    236  CE2       24.9670   14.3700   59.4640 C.ar  422  PHE422     -0.0003
    237  CZ        23.6080   14.1280   59.2900 C.ar  422  PHE422     -0.0000
@<TRIPOS>BOND
     1    59    58    1
     2    54    53    2
     3    55    56    1
     4    55    52    1
     5    53    52    1
     6    58    57    1
     7    56    57    1
     8    52    51    1
     9    51    47   am
    10    33    31   ar
    11    33    35   ar
    12    39    38    2
    13     8     9    1
    14    31    30   ar
    15    35    34   ar
    16    19    18    2
    17    47    46    1
    18    47    48    2
    19    44    42   ar
    20    23    22    2
    21    46    45    1
    22    46    49    1
    23    41    42    1
    24    41    40    1
    25    38    45   am
    26    38    37    1
    27     9    10    1
    28     9    12    1
    29    16    17    1
    30    16    10   am
    31    18    17    1
    32    18    25   am
    33    30    29    1
    34    30    32   ar
    35    22    24   am
    36    22    21    1
    37    42    43   ar
    38    20    17    1
    39    20    21    1
    40    34    32   ar
    41    26    29    1
    42    26    25    1
    43    26    27    1
    44    36    37    1
    45    36    27   am
    46    14    12    1
    47    49    50    1
    48    10    11    2
    49   124   122    1
    50    37    40    1
    51    12    13    1
    52    27    28    2
    53   117   116    2
    54    99   100    1
    55    99    96    1
    56   121   122    2
    57   121   120    1
    58    13    15    1
    59   116   115    1
    60   100   101    1
    61   122   123    1
    62   118   115    1
    63   118   119    1
    64    98    97    2
    65    97    96    1
    66   120   119    1
    67   102   101   ar
    68   101   103   ar
    69    96    95    1
    70   115   114    1
    71    84    82    1
    72    80    81    2
    73    80    79    1
    74    82    79    1
    75    82    83    1
    76    95    87   am
    77   106   107    2
    78   106   105    1
    79    70    69   ar
    80    70    68   ar
    81    69    67   ar
    82    79    78    1
    83    60    61    1
    84    74    73    2
    85    68    66   ar
    86   108   105    1
    87   108   109    1
    88    67    65   ar
    89     4     3    2
    90     3     2    1
    91    87    88    2
    92    87    86    1
    93   105   104    1
    94    85    86    1
    95    66    65   ar
    96    65    64    1
    97    73    72    1
    98    61    64    1
    99    61    62    1
   100    86    89    1
   101   109   111   ar
   102   109   110   ar
   103   111   113   ar
   104    89    90    1
   105     2     1    1
   106     2     5    1
   107     6     5    1
   108    62    63    2
   109    92    90   ar
   110    92    94   ar
   111    77    75    1
   112    71    72    1
   113    75    72    1
   114    75    76    1
   115   110   112   ar
   116    90    91   ar
   117   113   112   ar
   118     5     7    1
   119    94    93   ar
   120   130   131    1
   121   130   129    1
   122   176   174   ar
   123    91    93   ar
   124   131   125    1
   125   226   224   ar
   126   129   126    1
   127   224   223    1
   128   224   225   ar
   129   174   175   ar
   130   174   173    1
   131   223   220    1
   132   125   126    1
   133   187   185    1
   134   199   198    1
   135   126   127    1
   136   186   185    1
   137   185   184    2
   138   173   172    1
   139   196   198   ar
   140   196   194   ar
   141   220   221    1
   142   220   219    1
   143   221   222    2
   144   198   197   ar
   145   184   183    1
   146   127   128    2
   147   237   236   ar
   148   237   235   ar
   149   169   172    1
   150   169   168    1
   151   169   170    1
   152   194   193   ar
   153   236   234   ar
   154   219   210   am
   155   183   182    1
   156   235   233   ar
   157   197   195   ar
   158   171   170    2
   159   234   232   ar
   160   182   181    1
   161   227   228    1
   162   177   178    1
   163   233   232   ar
   164   193   195   ar
   165   193   192    1
   166   210   211    2
   167   210   209    1
   168   232   231    1
   169   228   231    1
   170   228   229    1
   171   181   178    1
   172   206   205    2
   173   207   205   am
   174   178   179    1
   175   230   229    2
   176   209   212    1
   177   209   208    1
   178   192   189    1
   179   191   190    2
   180   180   179    2
   181   205   204    1
   182   189   190    1
   183   189   188    1
   184   155   154    2
   185   166   165    1
   186   212   213    1
   187   208   202   am
   188   163   162    1
   189   163   164    2
   190   203   202    2
   191   162   165    1
   192   162   161    1
   193   214   213   ar
   194   214   216   ar
   195   202   201    1
   196   165   167    1
   197   151   149    1
   198   143   142    1
   199   154   161   am
   200   154   153    1
   201   213   215   ar
   202   204   201    1
   203   216   218   ar
   204   200   201    1
   205   159   158   ar
   206   150   149    1
   207   142   141   ar
   208   142   140   ar
   209   156   153    1
   210   156   157    1
   211   152   153    1
   212   152   146   am
   213   149   148    1
   214   141   139   ar
   215   215   217   ar
   216   148   145    1
   217   218   217   ar
   218   145   146    1
   219   145   144    1
   220   158   157    1
   221   158   160   ar
   222   140   138   ar
   223   146   147    2
   224   139   137   ar
   225   138   137   ar
   226   137   136    1
   227   136   133    1
   228   133   132    1
   229   133   134    1
   230   135   134    2
