@<TRIPOS>MOLECULE
tmp/3qw8A00.pdb
 226 220 0 0 0
SMALL
GASTEIGER

@<TRIPOS>ATOM
      1  N         26.7580   12.9870   54.4680 N.3    69  VAL69      -0.1245
      2  CA        25.8330   13.9620   53.9120 C.3    69  VAL69       0.1561
      3  C         26.2910   14.3680   52.5150 C.2    69  VAL69       0.2260
      4  O         27.0000   15.3610   52.3490 O.2    69  VAL69      -0.2867
      5  CB        25.7460   15.2230   54.8000 C.3    69  VAL69       0.0252
      6  CG1       24.7270   16.2010   54.2240 C.3    69  VAL69       0.0019
      7  CG2       25.3650   14.8330   56.2180 C.3    69  VAL69       0.0019
      8  N         24.3410   18.2780   46.7420 N.3   160  ILE160     -0.1231
      9  CA        23.8820   19.0300   47.9070 C.3   160  ILE160      0.1692
     10  C         24.9260   19.9180   48.5730 C.2   160  ILE160      0.2592
     11  O         24.6500   20.5480   49.5940 O.2   160  ILE160     -0.2718
     12  CB        23.2790   18.0900   48.9660 C.3   160  ILE160      0.0266
     13  CG1       24.3460   17.1360   49.5020 C.3   160  ILE160      0.0019
     14  CG2       22.1220   17.3120   48.3540 C.3   160  ILE160      0.0020
     15  CD1       23.8710   16.2670   50.6500 C.3   160  ILE160      0.0001
     16  N         26.1190   19.9830   47.9950 N.am  161  GLN161     -0.1966
     17  CA        27.1610   20.8200   48.5660 C.3   161  GLN161      0.1733
     18  C         27.0750   22.2240   47.9770 C.2   161  GLN161      0.2616
     19  O         27.8600   22.5880   47.0960 O.2   161  GLN161     -0.2715
     20  CB        28.5470   20.2270   48.2910 C.3   161  GLN161      0.0408
     21  CG        29.6560   20.8910   49.0900 C.3   161  GLN161      0.0908
     22  CD        29.4180   20.7970   50.5890 C.2   161  GLN161      0.2608
     23  OE1       29.3950   19.7060   51.1630 O.2   161  GLN161     -0.2717
     24  NE2       29.2280   21.9410   51.2280 N.am  161  GLN161     -0.0878
     25  N         26.1050   23.0050   48.4490 N.am  162  PHE162     -0.1960
     26  CA        25.9460   24.3750   47.9690 C.3   162  PHE162      0.1771
     27  C         27.0520   25.2030   48.6100 C.2   162  PHE162      0.2619
     28  O         27.4500   24.9400   49.7440 O.2   162  PHE162     -0.2715
     29  CB        24.5790   24.9480   48.3640 C.3   162  PHE162      0.0574
     30  CG        23.4080   24.1660   47.8320 C.ar  162  PHE162     -0.0200
     31  CD1       23.5570   23.2860   46.7640 C.ar  162  PHE162     -0.0042
     32  CD2       22.1430   24.3210   48.3980 C.ar  162  PHE162     -0.0042
     33  CE1       22.4610   22.5710   46.2670 C.ar  162  PHE162     -0.0003
     34  CE2       21.0480   23.6130   47.9070 C.ar  162  PHE162     -0.0003
     35  CZ        21.2100   22.7350   46.8390 C.ar  162  PHE162     -0.0000
     36  N         27.5410   26.2130   47.9030 N.am  163  GLU163     -0.1963
     37  CA        28.6310   27.0000   48.4560 C.3   163  GLU163      0.1733
     38  C         29.0340   28.1540   47.5610 C.2   163  GLU163      0.2616
     39  O         28.7710   28.1390   46.3600 O.2   163  GLU163     -0.2715
     40  CB        29.8370   26.0750   48.6750 C.3   163  GLU163      0.0429
     41  CG        31.1720   26.7670   48.8950 C.3   163  GLU163      0.1163
     42  CD        32.2980   25.7760   49.1370 C.2   163  GLU163      0.3649
     43  OE1       32.3990   24.7900   48.3720 O.co2 163  GLU163     -0.2457
     44  OE2       33.0800   25.9860   50.0890 O.co2 163  GLU163     -0.2457
     45  N         29.6650   29.1590   48.1620 N.am  164  CYS164     -0.1968
     46  CA        30.1570   30.3100   47.4180 C.3   164  CYS164      0.1712
     47  C         31.5980   30.0400   47.0130 C.2   164  CYS164      0.2296
     48  O         32.4400   29.7250   47.8540 O.2   164  CYS164     -0.2864
     49  CB        30.1240   31.5700   48.2730 C.3   164  CYS164      0.0983
     50  SG        28.5020   32.2770   48.4630 S.3   164  CYS164     -0.0798
     51  N         16.2710   20.0810   51.8110 N.3   193  PHE193     -0.1227
     52  CA        16.6240   19.2100   52.9200 C.3   193  PHE193      0.1736
     53  C         15.5630   19.0950   53.9960 C.2   193  PHE193      0.2596
     54  O         14.8330   20.0460   54.2690 O.2   193  PHE193     -0.2718
     55  CB        17.9300   19.7250   53.5160 C.3   193  PHE193      0.0547
     56  CG        18.9850   19.9940   52.4810 C.ar  193  PHE193     -0.0202
     57  CD1       19.6970   18.9480   51.9050 C.ar  193  PHE193     -0.0042
     58  CD2       19.2250   21.2910   52.0410 C.ar  193  PHE193     -0.0042
     59  CE1       20.6370   19.1880   50.8980 C.ar  193  PHE193     -0.0003
     60  CE2       20.1600   21.5460   51.0360 C.ar  193  PHE193     -0.0003
     61  CZ        20.8670   20.4920   50.4620 C.ar  193  PHE193     -0.0000
     62  N         15.4950   17.9200   54.6100 N.am  194  GLY194     -0.1942
     63  CA        14.5200   17.6930   55.6530 C.3   194  GLY194      0.2014
     64  C         15.1060   17.9070   57.0290 C.2   194  GLY194      0.2638
     65  O         16.2520   17.5410   57.2870 O.2   194  GLY194     -0.2714
     66  N         14.3310   18.5240   57.9100 N.am  195  PHE195     -0.1973
     67  CA        14.7900   18.7630   59.2690 C.3   195  PHE195      0.1639
     68  C         13.6560   18.3760   60.2000 C.2   195  PHE195      0.2290
     69  O         12.5580   18.0450   59.7440 O.2   195  PHE195     -0.2864
     70  CB        15.1950   20.2320   59.4620 C.3   195  PHE195      0.0560
     71  CG        14.0570   21.2070   59.3290 C.ar  195  PHE195     -0.0200
     72  CD1       13.3570   21.6420   60.4480 C.ar  195  PHE195     -0.0042
     73  CD2       13.6770   21.6800   58.0780 C.ar  195  PHE195     -0.0042
     74  CE1       12.2930   22.5360   60.3260 C.ar  195  PHE195     -0.0003
     75  CE2       12.6160   22.5710   57.9460 C.ar  195  PHE195     -0.0003
     76  CZ        11.9210   23.0000   59.0740 C.ar  195  PHE195     -0.0000
     77  N         13.0760   22.2150   54.2100 N.3   214  THR214     -0.1218
     78  CA        13.6170   23.5650   54.2510 C.3   214  THR214      0.1862
     79  C         13.1190   24.3140   53.0140 C.2   214  THR214      0.2287
     80  O         13.1040   23.7720   51.9040 O.2   214  THR214     -0.2866
     81  CB        15.1690   23.5310   54.2400 C.3   214  THR214      0.1770
     82  OG1       15.6390   22.8360   55.4060 O.3   214  THR214     -0.2211
     83  CG2       15.7420   24.9430   54.2240 C.3   214  THR214      0.0375
     84  N         17.6450   28.7000   51.8770 N.3   219  THR219     -0.1218
     85  CA        18.9290   28.1280   51.5000 C.3   219  THR219      0.1862
     86  C         19.6890   29.0700   50.5560 C.2   219  THR219      0.2287
     87  O         20.8870   29.2830   50.7180 O.2   219  THR219     -0.2866
     88  CB        18.7200   26.7560   50.8400 C.3   219  THR219      0.1770
     89  OG1       17.9700   25.9240   51.7340 O.3   219  THR219     -0.2211
     90  CG2       20.0490   26.0810   50.5410 C.3   219  THR219      0.0375
     91  N         20.8290   32.1460   52.4120 N.3   222  HIS222     -0.1226
     92  CA        22.0030   31.8200   53.2180 C.3   222  HIS222      0.1752
     93  C         23.2630   32.0240   52.3680 C.2   222  HIS222      0.2595
     94  O         24.2170   32.6640   52.8020 O.2   222  HIS222     -0.2718
     95  CB        21.9170   30.3680   53.6930 C.3   222  HIS222      0.0759
     96  CG        23.1310   29.8860   54.4260 C.ar  222  HIS222      0.0818
     97  ND1       23.1840   29.7940   55.8020 N.ar  222  HIS222     -0.2268
     98  CD2       24.3250   29.4310   53.9750 C.ar  222  HIS222      0.1154
     99  CE1       24.3540   29.2980   56.1640 C.ar  222  HIS222      0.1986
    100  NE2       25.0660   29.0690   55.0750 N.ar  222  HIS222     -0.2212
    101  N         23.2590   31.4850   51.1530 N.am  223  GLU223     -0.1979
    102  CA        24.4100   31.6330   50.2720 C.3   223  GLU223      0.1602
    103  C         24.6050   33.0850   49.8340 C.2   223  GLU223      0.2287
    104  O         25.7320   33.5420   49.6710 O.2   223  GLU223     -0.2864
    105  CB        24.2800   30.7170   49.0490 C.3   223  GLU223      0.0415
    106  CG        24.3550   29.2230   49.3880 C.3   223  GLU223      0.1163
    107  CD        25.5490   28.8610   50.2640 C.2   223  GLU223      0.3649
    108  OE1       26.6420   29.4370   50.0710 O.co2 223  GLU223     -0.2457
    109  OE2       25.4010   27.9790   51.1410 O.co2 223  GLU223     -0.2457
    110  N         26.5050   34.9110   52.4830 N.3   226  HIS226     -0.1241
    111  CA        27.9310   34.6490   52.3770 C.3   226  HIS226      0.1621
    112  C         28.4710   35.5250   51.2470 C.2   226  HIS226      0.2264
    113  O         29.5230   36.1440   51.3860 O.2   226  HIS226     -0.2867
    114  CB        28.2190   33.1880   52.0100 C.3   226  HIS226      0.0745
    115  CG        28.0910   32.2210   53.1450 C.ar  226  HIS226      0.0817
    116  ND1       28.7480   32.3810   54.3490 N.ar  226  HIS226     -0.2268
    117  CD2       27.4540   31.0290   53.2200 C.ar  226  HIS226      0.1154
    118  CE1       28.5230   31.3250   55.1120 C.ar  226  HIS226      0.1986
    119  NE2       27.7420   30.4900   54.4500 N.ar  226  HIS226     -0.2212
    120  N         28.5990   16.5990   68.4080 N.3   250  TYR250     -0.1241
    121  CA        29.6130   17.3550   67.6850 C.3   250  TYR250      0.1605
    122  C         30.9180   17.1600   68.4570 C.2   250  TYR250      0.2264
    123  O         31.9610   16.8410   67.8860 O.2   250  TYR250     -0.2867
    124  CB        29.2630   18.8450   67.6580 C.3   250  TYR250      0.0534
    125  CG        28.4380   19.2720   66.4670 C.ar  250  TYR250     -0.0201
    126  CD1       27.1360   18.8040   66.2830 C.ar  250  TYR250     -0.0009
    127  CD2       28.9630   20.1490   65.5210 C.ar  250  TYR250     -0.0009
    128  CE1       26.3770   19.2010   65.1800 C.ar  250  TYR250      0.0417
    129  CE2       28.2130   20.5540   64.4130 C.ar  250  TYR250      0.0417
    130  CZ        26.9240   20.0760   64.2490 C.ar  250  TYR250      0.1957
    131  OH        26.1910   20.4720   63.1540 O.3   250  TYR250     -0.2866
    132  N         34.1330   17.9950   66.1140 N.3   255  LEU255     -0.1245
    133  CA        33.6700   18.7960   64.9900 C.3   255  LEU255      0.1561
    134  C         33.7710   20.2850   65.2990 C.2   255  LEU255      0.2260
    135  O         33.4070   20.7330   66.3860 O.2   255  LEU255     -0.2867
    136  CB        32.2270   18.4310   64.6450 C.3   255  LEU255      0.0270
    137  CG        32.0060   16.9590   64.2890 C.3   255  LEU255      0.0019
    138  CD1       30.5530   16.7340   63.9130 C.3   255  LEU255      0.0001
    139  CD2       32.9200   16.5720   63.1350 C.3   255  LEU255      0.0001
    140  N         30.1330   30.7410   59.3260 N.3   261  GLU261     -0.1245
    141  CA        28.8330   30.0660   59.2320 C.3   261  GLU261      0.1567
    142  C         27.9150   30.4710   60.3810 C.2   261  GLU261      0.2260
    143  O         26.7050   30.6500   60.1920 O.2   261  GLU261     -0.2867
    144  CB        29.0010   28.5450   59.2510 C.3   261  GLU261      0.0388
    145  CG        29.6450   27.9520   58.0080 C.3   261  GLU261      0.1160
    146  CD        28.8070   28.1170   56.7490 C.2   261  GLU261      0.3649
    147  OE1       27.6110   28.4590   56.8550 O.co2 261  GLU261     -0.2457
    148  OE2       29.3480   27.8810   55.6470 O.co2 261  GLU261     -0.2457
    149  N         20.4220   34.1770   58.1620 N.3   350  GLU350     -0.1245
    150  CA        19.4300   33.1590   57.8540 C.3   350  GLU350      0.1567
    151  C         18.2680   33.2710   58.8280 C.2   350  GLU350      0.2260
    152  O         17.1060   33.2350   58.4180 O.2   350  GLU350     -0.2867
    153  CB        20.0480   31.7640   57.9660 C.3   350  GLU350      0.0388
    154  CG        19.1170   30.6230   57.5830 C.3   350  GLU350      0.1160
    155  CD        19.7850   29.2640   57.6970 C.2   350  GLU350      0.3649
    156  OE1       20.9880   29.1730   57.3780 O.co2 350  GLU350     -0.2457
    157  OE2       19.1060   28.2870   58.0880 O.co2 350  GLU350     -0.2457
    158  N         12.0900   26.3710   60.0050 N.3   361  ASN361     -0.1225
    159  CA        13.4650   26.1920   59.5430 C.3   361  ASN361      0.1785
    160  C         14.2820   25.6440   60.7120 C.2   361  ASN361      0.2597
    161  O         13.8130   25.6600   61.8520 O.2   361  ASN361     -0.2718
    162  CB        13.9780   27.5790   59.1030 C.3   361  ASN361      0.1169
    163  CG        15.3640   27.5530   58.4620 C.2   361  ASN361      0.2627
    164  OD1       16.3700   27.8910   59.0990 O.2   361  ASN361     -0.2716
    165  ND2       15.4180   27.1760   57.1950 N.am  361  ASN361     -0.0877
    166  N         15.4800   25.1350   60.4360 N.am  362  ARG362     -0.1979
    167  CA        16.3290   24.6480   61.5180 C.3   362  ARG362      0.1597
    168  C         16.4840   25.8460   62.4600 C.2   362  ARG362      0.2287
    169  O         16.5490   26.9930   62.0100 O.2   362  ARG362     -0.2864
    170  CB        17.6940   24.1960   60.9730 C.3   362  ARG362      0.0334
    171  CG        18.4570   25.2810   60.2280 C.3   362  ARG362      0.0492
    172  CD        19.7560   24.7450   59.6290 C.3   362  ARG362      0.2205
    173  NE        20.4270   25.7620   58.8220 N.pl3 362  ARG362     -0.0865
    174  CZ        21.4910   25.5400   58.0580 C.cat 362  ARG362      0.5346
    175  NH1       22.0200   24.3260   57.9860 N.pl3 362  ARG362      0.1354
    176  NH2       22.0240   26.5350   57.3580 N.pl3 362  ARG362      0.1354
    177  N         22.3970   26.2000   63.3420 N.3   365  TYR365     -0.1241
    178  CA        23.2580   25.6350   62.3080 C.3   365  TYR365      0.1605
    179  C         23.8700   24.3550   62.8700 C.2   365  TYR365      0.2264
    180  O         24.2700   23.4550   62.1280 O.2   365  TYR365     -0.2867
    181  CB        24.3720   26.6320   61.9790 C.3   365  TYR365      0.0534
    182  CG        25.2120   26.2790   60.7720 C.ar  365  TYR365     -0.0201
    183  CD1       24.7700   26.5680   59.4800 C.ar  365  TYR365     -0.0009
    184  CD2       26.4630   25.6740   60.9190 C.ar  365  TYR365     -0.0009
    185  CE1       25.5550   26.2680   58.3650 C.ar  365  TYR365      0.0417
    186  CE2       27.2540   25.3720   59.8120 C.ar  365  TYR365      0.0417
    187  CZ        26.7940   25.6720   58.5400 C.ar  365  TYR365      0.1957
    188  OH        27.5720   25.3870   57.4400 O.3   365  TYR365     -0.2866
    189  N         23.1490   21.3930   63.9130 N.3   367  ASN367     -0.1225
    190  CA        22.2240   20.2700   63.9210 C.3   367  ASN367      0.1785
    191  C         22.7410   19.1580   63.0140 C.2   367  ASN367      0.2597
    192  O         23.9250   19.1270   62.6670 O.2   367  ASN367     -0.2718
    193  CB        20.8450   20.7340   63.4440 C.3   367  ASN367      0.1169
    194  CG        20.8050   21.0220   61.9530 C.2   367  ASN367      0.2627
    195  OD1       21.8430   21.1280   61.2940 O.2   367  ASN367     -0.2716
    196  ND2       19.5980   21.1540   61.4110 N.am  367  ASN367     -0.0877
    197  N         21.8500   18.2400   62.6490 N.am  368  PHE368     -0.1962
    198  CA        22.1990   17.1340   61.7670 C.3   368  PHE368      0.1771
    199  C         21.1120   16.9590   60.7120 C.2   368  PHE368      0.2619
    200  O         19.9460   16.7640   61.0390 O.2   368  PHE368     -0.2715
    201  CB        22.3500   15.8350   62.5660 C.3   368  PHE368      0.0574
    202  CG        23.5820   15.7910   63.4290 C.ar  368  PHE368     -0.0200
    203  CD1       24.8230   15.4920   62.8760 C.ar  368  PHE368     -0.0042
    204  CD2       23.5050   16.0720   64.7890 C.ar  368  PHE368     -0.0042
    205  CE1       25.9760   15.4720   63.6670 C.ar  368  PHE368     -0.0003
    206  CE2       24.6480   16.0560   65.5870 C.ar  368  PHE368     -0.0003
    207  CZ        25.8870   15.7560   65.0260 C.ar  368  PHE368     -0.0000
    208  N         21.5030   17.0350   59.4440 N.am  369  ASP369     -0.1971
    209  CA        20.5590   16.8650   58.3460 C.3   369  ASP369      0.1709
    210  C         19.9110   15.4930   58.4660 C.2   369  ASP369      0.2293
    211  O         20.5220   14.5560   58.9750 O.2   369  ASP369     -0.2864
    212  CB        21.2820   16.9800   57.0020 C.3   369  ASP369      0.1436
    213  CG        21.5680   18.4200   56.6160 C.2   369  ASP369      0.3671
    214  OD1       22.3890   18.6360   55.7000 O.co2 369  ASP369     -0.2456
    215  OD2       20.9690   19.3340   57.2240 O.co2 369  ASP369     -0.2456
    216  N         25.8180    9.2290   60.1830 N.3   422  PHE422     -0.1241
    217  CA        26.8780   10.0190   60.7980 C.3   422  PHE422      0.1605
    218  C         27.7800    9.1660   61.6840 C.2   422  PHE422      0.2264
    219  O         28.9990    9.1180   61.4060 O.2   422  PHE422     -0.2867
    220  CB        26.2860   11.1630   61.6240 C.3   422  PHE422      0.0534
    221  CG        25.4330   12.1120   60.8280 C.ar  422  PHE422     -0.0203
    222  CD1       24.0830   11.8470   60.6150 C.ar  422  PHE422     -0.0042
    223  CD2       25.9790   13.2770   60.2960 C.ar  422  PHE422     -0.0042
    224  CE1       23.2880   12.7320   59.8840 C.ar  422  PHE422     -0.0003
    225  CE2       25.1920   14.1680   59.5630 C.ar  422  PHE422     -0.0003
    226  CZ        23.8440   13.8940   59.3580 C.ar  422  PHE422     -0.0000
@<TRIPOS>BOND
     1    33    31   ar
     2    33    35   ar
     3    39    38    2
     4     8     9    1
     5    31    30   ar
     6    35    34   ar
     7    47    46    1
     8    47    48    2
     9    19    18    2
    10    46    45    1
    11    46    49    1
    12    38    45   am
    13    38    37    1
    14    30    29    1
    15    30    32   ar
    16    36    37    1
    17    36    27   am
    18    34    32   ar
    19     9    10    1
    20     9    12    1
    21    26    29    1
    22    26    25    1
    23    26    27    1
    24    18    25   am
    25    18    17    1
    26    16    17    1
    27    16    10   am
    28    49    50    1
    29    20    17    1
    30    20    21    1
    31    14    12    1
    32    43    42   ar
    33    37    40    1
    34    10    11    2
    35    27    28    2
    36    40    41    1
    37    41    42    1
    38    12    13    1
    39   105   106    1
    40   105   102    1
    41    21    22    1
    42    42    44   ar
    43   106   107    1
    44    13    15    1
    45   104   103    2
    46   103   102    1
    47   108   107   ar
    48   107   109   ar
    49   102   101    1
    50    61    59   ar
    51    61    60   ar
    52    90    88    1
    53    86    87    2
    54    86    85    1
    55    22    23    2
    56    22    24   am
    57    88    85    1
    58    88    89    1
    59    59    57   ar
    60    60    58   ar
    61   101    93   am
    62   112   113    2
    63   112   111    1
    64    85    84    1
    65    51    52    1
    66    80    79    2
    67    57    56   ar
    68   114   111    1
    69   114   115    1
    70    58    56   ar
    71     4     3    2
    72    93    94    2
    73    93    92    1
    74   111   110    1
    75    91    92    1
    76    56    55    1
    77     3     2    1
    78    52    55    1
    79    52    53    1
    80    79    78    1
    81   115   117   ar
    82   115   116   ar
    83    92    95    1
    84   117   119   ar
    85    95    96    1
    86     2     1    1
    87     2     5    1
    88    98    96   ar
    89    98   100   ar
    90    53    54    2
    91    53    62   am
    92    77    78    1
    93    83    81    1
    94     6     5    1
    95    81    78    1
    96    81    82    1
    97   116   118   ar
    98    96    97   ar
    99   119   118   ar
   100    62    63    1
   101     5     7    1
   102   100    99   ar
   103   148   146   ar
   104    63    64    1
   105   214   213   ar
   106    97    99   ar
   107   213   212    1
   108   213   215   ar
   109   146   147   ar
   110   146   145    1
   111   212   209    1
   112    64    65    2
   113    64    66   am
   114   165   163   am
   115   176   174    1
   116   156   155   ar
   117   188   187    1
   118   154   155    1
   119   154   153    1
   120   155   157   ar
   121   150   153    1
   122   150   149    1
   123   150   151    1
   124    66    67    1
   125    75    73   ar
   126    75    76   ar
   127   175   174    1
   128   145   144    1
   129   174   173    2
   130    73    71   ar
   131   209   210    1
   132   209   208    1
   133   185   187   ar
   134   185   183   ar
   135   152   151    2
   136   163   164    2
   137   163   162    1
   138   210   211    2
   139   187   186   ar
   140   173   172    1
   141    76    74   ar
   142   162   159    1
   143   141   144    1
   144   141   140    1
   145   141   142    1
   146    67    70    1
   147    67    68    1
   148    71    70    1
   149    71    72   ar
   150   226   225   ar
   151   226   224   ar
   152   208   199   am
   153   183   182   ar
   154   159   158    1
   155   159   160    1
   156   225   223   ar
   157   172   171    1
   158    69    68    2
   159   186   184   ar
   160   224   222   ar
   161   216   217    1
   162   143   142    2
   163   171   170    1
   164   223   221   ar
   165    74    72   ar
   166   166   160   am
   167   166   167    1
   168   222   221   ar
   169   199   200    2
   170   199   198    1
   171   160   161    2
   172   182   184   ar
   173   182   181    1
   174   217   220    1
   175   217   218    1
   176   221   220    1
   177   170   167    1
   178   195   194    2
   179   219   218    2
   180   196   194   am
   181   167   168    1
   182   198   201    1
   183   198   197    1
   184   194   193    1
   185   181   178    1
   186   169   168    2
   187   180   179    2
   188   178   179    1
   189   178   177    1
   190   201   202    1
   191   197   191   am
   192   192   191    2
   193   203   202   ar
   194   203   205   ar
   195   191   190    1
   196   139   137    1
   197   131   130    1
   198   202   204   ar
   199   193   190    1
   200   205   207   ar
   201   138   137    1
   202   189   190    1
   203   130   129   ar
   204   130   128   ar
   205   137   136    1
   206   129   127   ar
   207   136   133    1
   208   204   206   ar
   209   133   134    1
   210   133   132    1
   211   207   206   ar
   212   128   126   ar
   213   134   135    2
   214   127   125   ar
   215   126   125   ar
   216   125   124    1
   217   124   121    1
   218   121   120    1
   219   121   122    1
   220   123   122    2
