@<TRIPOS>MOLECULE
tmp/3qw9A01.pdb
 94 94 0 0 0
SMALL
GASTEIGER

@<TRIPOS>ATOM
      1  N         14.6690   24.9970    4.7520 N.3    57  PRO57      -0.2102
      2  CA        14.2680   25.1490    3.3530 C.3    57  PRO57       0.1504
      3  C         12.8440   24.7090    3.0510 C.2    57  PRO57       0.2576
      4  O         12.4940   24.6210    1.8800 O.2    57  PRO57      -0.2718
      5  CB        15.2840   24.3080    2.6090 C.3    57  PRO57       0.0282
      6  CG        16.0000   23.4860    3.6440 C.3    57  PRO57       0.0208
      7  CD        15.4680   23.7710    4.9630 C.3    57  PRO57       0.0893
      8  N         12.0320   24.4320    4.0770 N.am   58  TYR58      -0.1963
      9  CA        10.6680   23.9380    3.8590 C.3    58  TYR58       0.1771
     10  C          9.6860   24.8180    4.5990 C.2    58  TYR58       0.2620
     11  O          9.8830   25.1280    5.7780 O.2    58  TYR58      -0.2715
     12  CB        10.4820   22.4570    4.2910 C.3    58  TYR58       0.0574
     13  CG        11.6610   21.5840    3.9910 C.ar   58  TYR58      -0.0198
     14  CD1       11.9670   21.2480    2.6780 C.ar   58  TYR58      -0.0009
     15  CD2       12.5000   21.1270    4.9920 C.ar   58  TYR58      -0.0009
     16  CE1       13.0540   20.4530    2.3660 C.ar   58  TYR58       0.0417
     17  CE2       13.6180   20.2950    4.6860 C.ar   58  TYR58       0.0417
     18  CZ        13.8860   19.9780    3.3590 C.ar   58  TYR58       0.1957
     19  OH        14.9530   19.2120    2.9620 O.3    58  TYR58      -0.2866
     20  N          8.6250   25.2110    3.8880 N.am   59  SER59      -0.1950
     21  CA         7.5130   25.9330    4.4710 C.3    59  SER59       0.1924
     22  C          6.7530   25.1170    5.4910 C.2    59  SER59       0.2314
     23  O          6.2070   25.6960    6.3870 O.2    59  SER59      -0.2863
     24  CB         6.5140   26.4300    3.4300 C.3    59  SER59       0.2116
     25  OG         5.8800   25.4220    2.6820 O.3    59  SER59      -0.2180
     26  N          8.8550   19.6060    9.1560 N.3    63  ARG63      -0.1245
     27  CA        10.1640   19.0410    8.7640 C.3    63  ARG63       0.1563
     28  C         11.2160   19.6940    9.6130 C.2    63  ARG63       0.2260
     29  O         11.3500   20.9180    9.6130 O.2    63  ARG63      -0.2867
     30  CB        10.4070   19.2360    7.2680 C.3    63  ARG63       0.0307
     31  CG         9.2400   18.6700    6.4040 C.3    63  ARG63       0.0489
     32  CD         9.5840   18.4040    4.9340 C.3    63  ARG63       0.2205
     33  NE        10.8110   17.6250    4.7560 N.pl3  63  ARG63      -0.0865
     34  CZ        11.3380   17.2920    3.5800 C.cat  63  ARG63       0.5346
     35  NH1       10.7410   17.6390    2.4370 N.pl3  63  ARG63       0.1354
     36  NH2       12.4730   16.5930    3.5480 N.pl3  63  ARG63       0.1354
     37  N         23.7130   28.0990    5.7890 N.3   109  VAL109     -0.1231
     38  CA        24.0650   26.6840    5.9050 C.3   109  VAL109      0.1692
     39  C         23.2320   25.7660    5.0080 C.2   109  VAL109      0.2592
     40  O         23.3910   24.5520    5.0400 O.2   109  VAL109     -0.2718
     41  CB        23.9690   26.1930    7.3740 C.3   109  VAL109      0.0266
     42  CG1       24.8700   27.0640    8.2950 C.3   109  VAL109      0.0020
     43  CG2       22.5400   26.1670    7.8710 C.3   109  VAL109      0.0020
     44  N         22.3750   26.3360    4.1780 N.am  110  PHE110     -0.1962
     45  CA        21.5800   25.5490    3.2560 C.3   110  PHE110      0.1771
     46  C         22.0250   25.9370    1.8740 C.2   110  PHE110      0.2620
     47  O         22.8370   26.8240    1.7030 O.2   110  PHE110     -0.2715
     48  CB        20.0910   25.8180    3.4590 C.3   110  PHE110      0.0574
     49  CG        19.5680   25.3370    4.7950 C.ar  110  PHE110     -0.0200
     50  CD1       19.4920   24.0100    5.0760 C.ar  110  PHE110     -0.0042
     51  CD2       19.1630   26.2450    5.7740 C.ar  110  PHE110     -0.0042
     52  CE1       19.0140   23.5760    6.3060 C.ar  110  PHE110     -0.0003
     53  CE2       18.7160   25.8140    6.9850 C.ar  110  PHE110     -0.0003
     54  CZ        18.6590   24.4750    7.2480 C.ar  110  PHE110     -0.0000
     55  N         21.5380   25.2760    0.8610 N.am  111  ASN111     -0.1958
     56  CA        21.9900   25.6660   -0.4870 C.3   111  ASN111      0.1819
     57  C         20.7710   25.9510   -1.3560 C.2   111  ASN111      0.2622
     58  O         20.7280   25.6280   -2.5390 O.2   111  ASN111     -0.2715
     59  CB        22.9620   24.6070   -1.0270 C.3   111  ASN111      0.1195
     60  CG        23.4610   24.9150   -2.4330 C.2   111  ASN111      0.2630
     61  OD1       23.5780   26.0770   -2.8250 O.2   111  ASN111     -0.2716
     62  ND2       23.7520   23.8580   -3.2030 N.am  111  ASN111     -0.0877
     63  N         19.7710   26.5650   -0.7060 N.am  112  THR112     -0.1937
     64  CA        18.5180   26.9720   -1.3320 C.3   112  THR112      0.2028
     65  C         18.2840   28.4820   -1.1910 C.2   112  THR112      0.2643
     66  O         18.5370   29.0820   -0.1360 O.2   112  THR112     -0.2714
     67  CB        17.3180   26.3210   -0.6180 C.3   112  THR112      0.1808
     68  OG1       17.2260   26.8560    0.7090 O.3   112  THR112     -0.2208
     69  CG2       17.4820   24.8350   -0.5440 C.3   112  THR112      0.0379
     70  N         17.7030   29.0830   -2.2160 N.am  113  SER113     -0.1935
     71  CA        17.5710   30.5340   -2.2070 C.3   113  SER113      0.2055
     72  C         16.3290   31.0200   -1.4680 C.2   113  SER113      0.2642
     73  O         16.1960   32.1830   -1.1830 O.2   113  SER113     -0.2714
     74  CB        17.6220   31.0770   -3.6180 C.3   113  SER113      0.2130
     75  OG        16.4910   30.6780   -4.3600 O.3   113  SER113     -0.2179
     76  N         15.4000   30.1200   -1.1960 N.am  114  LEU114     -0.1977
     77  CA        14.2130   30.4780   -0.4740 C.3   114  LEU114      0.1596
     78  C         14.2740   29.6400    0.7970 C.2   114  LEU114      0.2287
     79  O         14.3130   28.3880    0.7480 O.2   114  LEU114     -0.2864
     80  CB        12.9990   30.1220   -1.2740 C.3   114  LEU114      0.0297
     81  CG        12.6070   31.1660   -2.3160 C.3   114  LEU114      0.0022
     82  CD1       11.6430   30.6120   -3.3950 C.3   114  LEU114      0.0001
     83  CD2       12.0020   32.3240   -1.5680 C.3   114  LEU114      0.0001
     84  N         12.7000   29.4460    5.1290 N.3   116  PHE116     -0.1241
     85  CA        11.6100   29.7790    6.0360 C.3   116  PHE116      0.1605
     86  C         11.9610   29.8070    7.4780 C.2   116  PHE116      0.2264
     87  O         12.6470   28.8880    7.9550 O.2   116  PHE116     -0.2867
     88  CB        10.5200   28.7560    5.8600 C.3   116  PHE116      0.0534
     89  CG        10.1340   28.6080    4.4330 C.ar  116  PHE116     -0.0203
     90  CD1        9.2220   29.4830    3.8660 C.ar  116  PHE116     -0.0042
     91  CD2       10.7950   27.7160    3.6380 C.ar  116  PHE116     -0.0042
     92  CE1        8.8920   29.3740    2.5380 C.ar  116  PHE116     -0.0003
     93  CE2       10.4890   27.6210    2.2710 C.ar  116  PHE116     -0.0003
     94  CZ         9.5570   28.5010    1.7240 C.ar  116  PHE116     -0.0000
@<TRIPOS>BOND
     1    75    74    1
     2    74    71    1
     3    82    81    1
     4    62    60   am
     5    61    60    2
     6    58    57    2
     7    60    59    1
     8    81    83    1
     9    81    80    1
    10    70    71    1
    11    70    65   am
    12    71    72    1
    13    72    76   am
    14    72    73    2
    15    57    63   am
    16    57    56    1
    17    64    65    1
    18    64    63    1
    19    64    67    1
    20    80    77    1
    21    76    77    1
    22    65    66    2
    23    59    56    1
    24    67    69    1
    25    67    68    1
    26    56    55    1
    27    77    78    1
    28    79    78    2
    29    55    46   am
    30    47    46    2
    31    94    93   ar
    32    94    92   ar
    33    46    45    1
    34     4     3    2
    35    93    91   ar
    36    16    14   ar
    37    16    18   ar
    38    35    34    1
    39    92    90   ar
    40     5     2    1
    41     5     6    1
    42    14    13   ar
    43    25    24    1
    44    19    18    1
    45     3     2    1
    46     3     8   am
    47    45    48    1
    48    45    44    1
    49     2     1    1
    50    18    17   ar
    51    24    21    1
    52    48    49    1
    53    36    34    1
    54    34    33    2
    55    91    89   ar
    56     6     7    1
    57     9     8    1
    58     9    12    1
    59     9    10    1
    60    90    89   ar
    61    20    21    1
    62    20    10   am
    63    13    12    1
    64    13    15   ar
    65    44    39   am
    66    89    88    1
    67    21    22    1
    68    10    11    2
    69    17    15   ar
    70     1     7    1
    71    33    32    1
    72    49    50   ar
    73    49    51   ar
    74    32    31    1
    75    39    40    2
    76    39    38    1
    77    50    52   ar
    78    84    85    1
    79    22    23    2
    80    51    53   ar
    81    37    38    1
    82    88    85    1
    83    38    41    1
    84    85    86    1
    85    52    54   ar
    86    31    30    1
    87    53    54   ar
    88    30    27    1
    89    41    43    1
    90    41    42    1
    91    86    87    2
    92    27    26    1
    93    27    28    1
    94    28    29    2
