@<TRIPOS>MOLECULE
tmp/3qw9B00.pdb
 87 86 0 0 0
SMALL
GASTEIGER

@<TRIPOS>ATOM
      1  N        -16.9370   35.7910   18.8770 N.3    57  PRO57      -0.2102
      2  CA       -16.3610   36.2410   20.1550 C.3    57  PRO57       0.1504
      3  C        -15.2130   35.3690   20.7210 C.2    57  PRO57       0.2576
      4  O        -14.7360   35.6320   21.8550 O.2    57  PRO57      -0.2718
      5  CB       -17.5370   36.1940   21.1150 C.3    57  PRO57       0.0282
      6  CG       -18.7520   35.9750   20.3140 C.3    57  PRO57       0.0208
      7  CD       -18.3030   35.2920   19.0370 C.3    57  PRO57       0.0893
      8  N        -14.7430   34.3880   19.9330 N.am   58  TYR58      -0.1963
      9  CA       -13.7740   33.3800   20.3880 C.3    58  TYR58       0.1771
     10  C        -12.5410   33.4020   19.5110 C.2    58  TYR58       0.2620
     11  O        -12.6430   33.3390   18.2940 O.2    58  TYR58      -0.2715
     12  CB       -14.4000   31.9590   20.4060 C.3    58  TYR58       0.0574
     13  CG       -15.8240   31.9450   20.9410 C.ar   58  TYR58      -0.0198
     14  CD1      -16.0910   32.2560   22.2540 C.ar   58  TYR58      -0.0009
     15  CD2      -16.8810   31.6330   20.1260 C.ar   58  TYR58      -0.0009
     16  CE1      -17.3930   32.2960   22.7390 C.ar   58  TYR58       0.0417
     17  CE2      -18.1760   31.6600   20.5770 C.ar   58  TYR58       0.0417
     18  CZ       -18.4320   31.9650   21.8960 C.ar   58  TYR58       0.1957
     19  OH       -19.7260   31.9690   22.3070 O.3    58  TYR58      -0.2866
     20  N        -11.3570   33.4910   20.1230 N.am   59  SER59      -0.1936
     21  CA       -10.1090   33.4030   19.3540 C.3    59  SER59       0.2055
     22  C         -9.9040   32.0420   18.7190 C.2    59  SER59       0.2643
     23  O         -9.2340   31.9430   17.6760 O.2    59  SER59      -0.2714
     24  CB        -8.8850   33.7990   20.1940 C.3    59  SER59       0.2130
     25  OG        -8.6000   32.9320   21.2850 O.3    59  SER59      -0.2179
     26  N        -10.4600   31.0060   19.3430 N.am   60  ASN60      -0.1971
     27  CA       -10.3220   29.6410   18.8500 C.3    60  ASN60       0.1688
     28  C        -11.2370   29.4900   17.6130 C.2    60  ASN60       0.2292
     29  O        -12.4570   29.5430   17.7570 O.2    60  ASN60      -0.2864
     30  CB       -10.7020   28.6120   19.9470 C.3    60  ASN60       0.1181
     31  CG       -10.7010   27.1820   19.4330 C.2    60  ASN60       0.2629
     32  OD1      -10.4990   26.9460   18.2450 O.2    60  ASN60      -0.2716
     33  ND2      -10.8830   26.2360   20.3120 N.am   60  ASN60      -0.0877
     34  N        -14.5140   27.1030   17.3750 N.3    63  ARG63      -0.1245
     35  CA       -15.8350   27.3840   17.9800 C.3    63  ARG63       0.1563
     36  C        -16.7770   27.9220   16.8990 C.2    63  ARG63       0.2260
     37  O        -16.3870   28.7670   16.0600 O.2    63  ARG63      -0.2867
     38  CB       -15.8110   28.3990   19.1410 C.3    63  ARG63       0.0307
     39  CG       -14.9720   28.0730   20.3840 C.3    63  ARG63       0.0489
     40  CD       -15.6820   27.3290   21.5480 C.3    63  ARG63       0.2205
     41  NE       -17.0720   27.6870   21.8820 N.pl3  63  ARG63      -0.0865
     42  CZ       -17.5060   28.3300   22.9820 C.cat  63  ARG63       0.5346
     43  NH1      -16.6910   28.8320   23.9120 N.pl3  63  ARG63       0.1354
     44  NH2      -18.8130   28.5010   23.1540 N.pl3  63  ARG63       0.1354
     45  N        -23.0270   40.4720   17.4010 N.3   110  PHE110     -0.1241
     46  CA       -22.5580   40.1250   18.7540 C.3   110  PHE110      0.1605
     47  C        -22.5980   41.3590   19.6710 C.2   110  PHE110      0.2264
     48  O        -22.7950   42.4760   19.2010 O.2   110  PHE110     -0.2867
     49  CB       -21.1260   39.5870   18.6530 C.3   110  PHE110      0.0534
     50  CG       -21.0080   38.3060   17.8770 C.ar  110  PHE110     -0.0203
     51  CD1      -21.5570   37.1520   18.3740 C.ar  110  PHE110     -0.0042
     52  CD2      -20.3900   38.2590   16.6460 C.ar  110  PHE110     -0.0042
     53  CE1      -21.4970   35.9720   17.6790 C.ar  110  PHE110     -0.0003
     54  CE2      -20.2850   37.0560   15.9580 C.ar  110  PHE110     -0.0003
     55  CZ       -20.8750   35.9190   16.4770 C.ar  110  PHE110     -0.0000
     56  N        -19.8730   41.7900   22.3100 N.3   112  THR112     -0.1203
     57  CA       -18.6810   41.6510   23.1320 C.3   112  THR112      0.1994
     58  C        -17.6930   42.6840   22.6260 C.2   112  THR112      0.2619
     59  O        -17.6090   42.9180   21.4350 O.2   112  THR112     -0.2717
     60  CB       -18.0360   40.2340   23.0290 C.3   112  THR112      0.1784
     61  OG1      -17.7420   39.9890   21.6660 O.3   112  THR112     -0.2211
     62  CG2      -18.9990   39.0960   23.5510 C.3   112  THR112      0.0376
     63  N        -16.8880   43.2140   23.5400 N.am  113  SER113     -0.1937
     64  CA       -15.8690   44.2120   23.2430 C.3   113  SER113      0.2055
     65  C        -14.8170   43.7860   22.2660 C.2   113  SER113      0.2642
     66  O        -14.2710   44.6120   21.5730 O.2   113  SER113     -0.2714
     67  CB       -15.1860   44.6490   24.5410 C.3   113  SER113      0.2130
     68  OG       -16.0680   45.4780   25.1630 O.3   113  SER113     -0.2179
     69  N        -14.5080   42.5030   22.2200 N.am  114  LEU114     -0.1977
     70  CA       -13.5440   42.0140   21.2970 C.3   114  LEU114      0.1596
     71  C        -14.1620   40.8920   20.5110 C.2   114  LEU114      0.2287
     72  O        -14.7860   40.0540   21.0770 O.2   114  LEU114     -0.2864
     73  CB       -12.2820   41.4680   21.9830 C.3   114  LEU114      0.0297
     74  CG       -11.2830   42.3280   22.7250 C.3   114  LEU114      0.0022
     75  CD1      -10.7720   43.4920   21.8320 C.3   114  LEU114      0.0001
     76  CD2      -11.8800   42.8360   24.0190 C.3   114  LEU114      0.0001
     77  N        -13.2530   38.2790   16.8420 N.3   116  PHE116     -0.1241
     78  CA       -12.2100   37.6880   16.0570 C.3   116  PHE116      0.1605
     79  C        -12.7050   37.3380   14.6660 C.2   116  PHE116      0.2264
     80  O        -13.6900   36.6350   14.5340 O.2   116  PHE116     -0.2867
     81  CB       -11.7450   36.4600   16.8170 C.3   116  PHE116      0.0534
     82  CG       -11.2560   36.8110   18.2250 C.ar  116  PHE116     -0.0203
     83  CD1       -9.9740   37.2860   18.4290 C.ar  116  PHE116     -0.0042
     84  CD2      -12.1160   36.8070   19.2840 C.ar  116  PHE116     -0.0042
     85  CE1       -9.5290   37.6400   19.7550 C.ar  116  PHE116     -0.0003
     86  CE2      -11.6960   37.1830   20.5440 C.ar  116  PHE116     -0.0003
     87  CZ       -10.3940   37.5870   20.7630 C.ar  116  PHE116     -0.0000
@<TRIPOS>BOND
     1    80    79    2
     2    79    78    1
     3    54    55   ar
     4    54    52   ar
     5    78    81    1
     6    78    77    1
     7    37    36    2
     8    55    53   ar
     9    52    50   ar
    10    81    82    1
    11    36    35    1
    12    34    35    1
    13    45    46    1
    14    28    29    2
    15    28    27    1
    16    23    22    2
    17    53    51   ar
    18    50    51   ar
    19    50    49    1
    20    35    38    1
    21    82    83   ar
    22    82    84   ar
    23    32    31    2
    24    11    10    2
    25    83    85   ar
    26    49    46    1
    27    22    26   am
    28    22    21    1
    29    46    47    1
    30    27    26    1
    31    27    30    1
    32     1     7    1
    33     1     2    1
    34     7     6    1
    35    38    39    1
    36    48    47    2
    37    84    86   ar
    38    21    20    1
    39    21    24    1
    40    31    30    1
    41    31    33   am
    42    10    20   am
    43    10     9    1
    44    85    87   ar
    45     8     9    1
    46     8     3   am
    47    15    17   ar
    48    15    13   ar
    49     2     3    1
    50     2     5    1
    51    24    25    1
    52     6     5    1
    53    39    40    1
    54     9    12    1
    55    12    13    1
    56    71    72    2
    57    71    70    1
    58    86    87   ar
    59    17    18   ar
    60     3     4    2
    61    13    14   ar
    62    70    73    1
    63    70    69    1
    64    59    58    2
    65    40    41    1
    66    66    65    2
    67    61    60    1
    68    75    74    1
    69    41    42    2
    70    18    19    1
    71    18    16   ar
    72    73    74    1
    73    69    65   am
    74    14    16   ar
    75    65    64    1
    76    56    57    1
    77    58    57    1
    78    58    63   am
    79    74    76    1
    80    42    44    1
    81    42    43    1
    82    60    57    1
    83    60    62    1
    84    64    63    1
    85    64    67    1
    86    67    68    1
