@<TRIPOS>MOLECULE
tmp/3qwcB02.pdb
 187 186 0 0 0
SMALL
GASTEIGER

@<TRIPOS>ATOM
      1  N         22.4190   -5.5650   18.3580 N.3    43  HIS43      -0.1241
      2  CA        22.2910   -6.9370   17.8790 C.3    43  HIS43       0.1621
      3  C         21.5310   -7.0280   16.5580 C.2    43  HIS43       0.2264
      4  O         21.5410   -8.0680   15.9020 O.2    43  HIS43      -0.2867
      5  CB        21.6630   -7.8570   18.9300 C.3    43  HIS43       0.0745
      6  CG        20.1740   -7.7620   18.9980 C.ar   43  HIS43       0.0817
      7  ND1       19.5230   -7.0080   19.9480 N.ar   43  HIS43      -0.2268
      8  CD2       19.2060   -8.3320   18.2390 C.ar   43  HIS43       0.1154
      9  CE1       18.2180   -7.1060   19.7650 C.ar   43  HIS43       0.1986
     10  NE2       17.9990   -7.9030   18.7340 N.ar   43  HIS43      -0.2212
     11  N         25.8270   -9.6140   15.3950 N.3    47  TYR47      -0.1241
     12  CA        25.6040  -10.7430   16.2880 C.3    47  TYR47       0.1605
     13  C         26.2800  -11.9990   15.7350 C.2    47  TYR47       0.2264
     14  O         25.6570  -12.8330   15.0680 O.2    47  TYR47      -0.2867
     15  CB        24.1140  -10.9710   16.5590 C.3    47  TYR47       0.0534
     16  CG        23.8940  -11.8720   17.7450 C.ar   47  TYR47      -0.0201
     17  CD1       24.2760  -11.4680   19.0160 C.ar   47  TYR47      -0.0009
     18  CD2       23.3400  -13.1360   17.5960 C.ar   47  TYR47      -0.0009
     19  CE1       24.1010  -12.2970   20.1150 C.ar   47  TYR47       0.0417
     20  CE2       23.1590  -13.9700   18.6950 C.ar   47  TYR47       0.0417
     21  CZ        23.5390  -13.5390   19.9500 C.ar   47  TYR47       0.1957
     22  OH        23.3660  -14.3520   21.0490 O.3    47  TYR47      -0.2866
     23  N         25.1380  -15.7280   15.2210 N.3    50  TRP50      -0.1241
     24  CA        24.2340  -16.0220   14.1080 C.3    50  TRP50       0.1605
     25  C         24.8080  -15.5560   12.7770 C.2    50  TRP50       0.2264
     26  O         24.0610  -15.3770   11.8060 O.2    50  TRP50      -0.2867
     27  CB        22.8730  -15.3470   14.3080 C.3    50  TRP50       0.0550
     28  CG        22.1030  -15.8300   15.5070 C.ar   50  TRP50       0.0003
     29  CD1       22.3680  -16.9320   16.2660 C.ar   50  TRP50       0.0946
     30  CD2       20.9390  -15.2170   16.0800 C.ar   50  TRP50       0.0152
     31  NE1       21.4410  -17.0450   17.2780 N.ar   50  TRP50      -0.2442
     32  CE2       20.5540  -16.0040   17.1850 C.ar   50  TRP50       0.0810
     33  CE3       20.1890  -14.0790   15.7660 C.ar   50  TRP50       0.0012
     34  CZ2       19.4490  -15.6860   17.9790 C.ar   50  TRP50       0.0191
     35  CZ3       19.0900  -13.7650   16.5570 C.ar   50  TRP50       0.0001
     36  CH2       18.7310  -14.5660   17.6490 C.ar   50  TRP50       0.0015
     37  N         28.0560   -8.8830   23.0490 N.3    92  TRP92      -0.1241
     38  CA        27.3120   -9.8730   22.2920 C.3    92  TRP92       0.1605
     39  C         27.7140  -11.2890   22.7090 C.2    92  TRP92       0.2264
     40  O         27.0170  -12.2570   22.4040 O.2    92  TRP92      -0.2867
     41  CB        27.5450   -9.6880   20.7900 C.3    92  TRP92       0.0550
     42  CG        29.0030   -9.6650   20.3640 C.ar   92  TRP92       0.0003
     43  CD1       29.7780   -8.5530   20.1610 C.ar   92  TRP92       0.0946
     44  CD2       29.8450  -10.7980   20.0750 C.ar   92  TRP92       0.0152
     45  NE1       31.0480   -8.9250   19.7650 N.ar   92  TRP92      -0.2442
     46  CE2       31.1120  -10.2950   19.7060 C.ar   92  TRP92       0.0810
     47  CE3       29.6470  -12.1870   20.0820 C.ar   92  TRP92       0.0012
     48  CZ2       32.1780  -11.1320   19.3600 C.ar   92  TRP92       0.0191
     49  CZ3       30.7060  -13.0140   19.7340 C.ar   92  TRP92       0.0001
     50  CH2       31.9530  -12.4820   19.3790 C.ar   92  TRP92       0.0015
     51  N         27.9840  -12.4360   25.8100 N.3    94  GLU94      -0.1231
     52  CA        27.3070  -12.9250   27.0080 C.3    94  GLU94       0.1699
     53  C         25.8210  -12.5720   27.0770 C.2    94  GLU94       0.2592
     54  O         24.9570  -13.4250   26.8420 O.2    94  GLU94      -0.2718
     55  CB        28.0100  -12.4300   28.2790 C.3    94  GLU94       0.0402
     56  CG        27.3180  -12.8980   29.5620 C.3    94  GLU94       0.1161
     57  CD        27.9200  -12.3160   30.8360 C.2    94  GLU94       0.3649
     58  OE1       27.6060  -12.8470   31.9250 O.co2  94  GLU94      -0.2457
     59  OE2       28.6920  -11.3320   30.7570 O.co2  94  GLU94      -0.2457
     60  N         25.5260  -11.3130   27.3940 N.am   95  ASN95      -0.1960
     61  CA        24.1730  -10.9410   27.7990 C.3    95  ASN95       0.1819
     62  C         23.5920   -9.7310   27.0830 C.2    95  ASN95       0.2621
     63  O         22.5910   -9.1800   27.5270 O.2    95  ASN95      -0.2715
     64  CB        24.1480  -10.6760   29.3020 C.3    95  ASN95       0.1195
     65  CG        25.1150   -9.5790   29.7040 C.2    95  ASN95       0.2630
     66  OD1       25.8450   -9.0600   28.8690 O.2    95  ASN95      -0.2716
     67  ND2       25.1270   -9.2270   30.9790 N.am   95  ASN95      -0.0877
     68  N         24.2090   -9.3140   25.9800 N.am   96  LEU96      -0.1977
     69  CA        23.7300   -8.1420   25.2330 C.3    96  LEU96       0.1596
     70  C         23.8200   -6.8510   26.0410 C.2    96  LEU96       0.2287
     71  O         23.0800   -5.8960   25.7920 O.2    96  LEU96      -0.2864
     72  CB        22.2830   -8.3410   24.7570 C.3    96  LEU96       0.0297
     73  CG        22.0950   -8.7550   23.2990 C.3    96  LEU96       0.0022
     74  CD1       23.1540   -9.7280   22.8380 C.3    96  LEU96       0.0001
     75  CD2       20.6780   -9.2930   23.0370 C.3    96  LEU96       0.0001
     76  N          4.9400  -16.3510   19.7090 N.3   146  GLU146     -0.1245
     77  CA         6.2200  -17.0460   19.7560 C.3   146  GLU146      0.1567
     78  C          6.3520  -18.0830   18.6380 C.2   146  GLU146      0.2260
     79  O          7.4010  -18.1930   18.0030 O.2   146  GLU146     -0.2867
     80  CB         6.4250  -17.7000   21.1220 C.3   146  GLU146      0.0388
     81  CG         7.8500  -18.1260   21.3770 C.3   146  GLU146      0.1160
     82  CD         8.0410  -18.7210   22.7580 C.2   146  GLU146      0.3649
     83  OE1        7.4950  -18.1650   23.7330 O.co2 146  GLU146     -0.2457
     84  OE2        8.7350  -19.7510   22.8610 O.co2 146  GLU146     -0.2457
     85  N         20.1360  -15.4120   32.9540 N.3   172  ILE172     -0.1245
     86  CA        21.0380  -14.4360   32.3590 C.3   172  ILE172      0.1561
     87  C         21.4410  -13.3500   33.3560 C.2   172  ILE172      0.2260
     88  O         20.6360  -12.9280   34.1940 O.2   172  ILE172     -0.2867
     89  CB        20.4060  -13.8100   31.1020 C.3   172  ILE172      0.0252
     90  CG1       20.1630  -14.9080   30.0580 C.3   172  ILE172      0.0019
     91  CG2       21.2940  -12.7080   30.5470 C.3   172  ILE172      0.0019
     92  CD1       19.5040  -14.4130   28.7900 C.3   172  ILE172      0.0001
     93  N          4.0430   -8.4500   25.0230 N.3   192  ASP192     -0.1225
     94  CA         5.4930   -8.5150   24.9770 C.3   192  ASP192      0.1805
     95  C          5.9400   -8.1450   23.5750 C.2   192  ASP192      0.2598
     96  O          5.1540   -8.2080   22.6230 O.2   192  ASP192     -0.2718
     97  CB         5.9350   -9.9560   25.3000 C.3   192  ASP192      0.1424
     98  CG         7.4150  -10.0770   25.6430 C.2   192  ASP192      0.3668
     99  OD1        8.1140   -9.0500   25.6970 O.co2 192  ASP192     -0.2456
    100  OD2        7.8790  -11.2250   25.8800 O.co2 192  ASP192     -0.2456
    101  N          7.2010   -7.7570   23.4540 N.am  193  ALA193     -0.1966
    102  CA         7.8660   -7.6910   22.1640 C.3   193  ALA193      0.1728
    103  C          8.2340   -9.1060   21.7490 C.2   193  ALA193      0.2616
    104  O          8.2230  -10.0260   22.5700 O.2   193  ALA193     -0.2715
    105  CB         9.1180   -6.8290   22.2520 C.3   193  ALA193      0.0334
    106  N          8.5730   -9.2760   20.4770 N.am  194  CYS194     -0.1954
    107  CA         8.9420  -10.5840   19.9640 C.3   194  CYS194      0.1843
    108  C          9.9860  -10.4110   18.8530 C.2   194  CYS194      0.2625
    109  O         10.4050   -9.2880   18.5770 O.2   194  CYS194     -0.2714
    110  CB         7.6860  -11.2960   19.4480 C.3   194  CYS194      0.0997
    111  SG         7.7810  -13.1150   19.4300 S.3   194  CYS194     -0.0797
    112  N         10.4190  -11.5190   18.2410 N.am  195  GLU195     -0.1977
    113  CA        11.3040  -11.4700   17.0800 C.3   195  GLU195      0.1602
    114  C         10.7870  -10.4780   16.0360 C.2   195  GLU195      0.2287
    115  O          9.5990  -10.4780   15.7120 O.2   195  GLU195     -0.2864
    116  CB        11.4430  -12.8650   16.4410 C.3   195  GLU195      0.0415
    117  CG        12.2780  -12.8720   15.1660 C.3   195  GLU195      0.1163
    118  CD        12.3340  -14.2340   14.4830 C.2   195  GLU195      0.3649
    119  OE1       12.9850  -14.3380   13.4190 O.co2 195  GLU195     -0.2457
    120  OE2       11.7320  -15.2000   15.0010 O.co2 195  GLU195     -0.2457
    121  N         12.9200   -6.2180   17.8190 N.3   198  SER198     -0.1217
    122  CA        14.2700   -5.7910   18.2100 C.3   198  SER198      0.1889
    123  C         14.6040   -4.4180   17.6890 C.2   198  SER198      0.2288
    124  O         14.3510   -4.1230   16.5170 O.2   198  SER198     -0.2866
    125  CB        15.3240   -6.7300   17.6130 C.3   198  SER198      0.2089
    126  OG        15.3030   -8.0060   18.2050 O.3   198  SER198     -0.2183
    127  N         14.1230   -2.1570   22.4890 N.3   218  VAL218     -0.1231
    128  CA        13.7970   -3.5820   22.5950 C.3   218  VAL218      0.1692
    129  C         15.0570   -4.3910   22.3800 C.2   218  VAL218      0.2593
    130  O         15.6920   -4.2830   21.3320 O.2   218  VAL218     -0.2718
    131  CB        12.7570   -4.0020   21.5250 C.3   218  VAL218      0.0266
    132  CG1       12.5310   -5.5110   21.5880 C.3   218  VAL218      0.0020
    133  CG2       11.4650   -3.2660   21.7350 C.3   218  VAL218      0.0020
    134  N         15.4360   -5.1930   23.3750 N.am  219  SER219     -0.1938
    135  CA        16.7310   -5.8760   23.3320 C.3   219  SER219      0.2055
    136  C         16.6210   -7.3990   23.2820 C.2   219  SER219      0.2643
    137  O         17.0310   -8.0300   22.3010 O.2   219  SER219     -0.2714
    138  CB        17.6020   -5.4280   24.5160 C.3   219  SER219      0.2130
    139  OG        18.8900   -6.0150   24.4520 O.3   219  SER219     -0.2179
    140  N         16.0660   -8.0000   24.3220 N.am  220  TRP220     -0.1959
    141  CA        15.9990   -9.4540   24.3580 C.3   220  TRP220      0.1771
    142  C         14.8870  -10.0020   25.2310 C.2   220  TRP220      0.2620
    143  O         14.3010   -9.2980   26.0530 O.2   220  TRP220     -0.2715
    144  CB        17.3520  -10.0690   24.7510 C.3   220  TRP220      0.0590
    145  CG        17.8720   -9.7220   26.1420 C.ar  220  TRP220      0.0006
    146  CD1       18.6760   -8.6710   26.4760 C.ar  220  TRP220      0.0946
    147  CD2       17.6560  -10.4610   27.3620 C.ar  220  TRP220      0.0152
    148  NE1       18.9630   -8.7010   27.8190 N.ar  220  TRP220     -0.2442
    149  CE2       18.3550   -9.7870   28.3850 C.ar  220  TRP220      0.0810
    150  CE3       16.9510  -11.6250   27.6820 C.ar  220  TRP220      0.0012
    151  CZ2       18.3640  -10.2350   29.7150 C.ar  220  TRP220      0.0191
    152  CZ3       16.9610  -12.0730   29.0090 C.ar  220  TRP220      0.0001
    153  CH2       17.6620  -11.3780   30.0020 C.ar  220  TRP220      0.0015
    154  N         14.5970  -11.2820   25.0330 N.am  221  GLY221     -0.1940
    155  CA        13.5730  -11.9430   25.8050 C.3   221  GLY221      0.2014
    156  C         13.7240  -13.4270   25.5830 C.2   221  GLY221      0.2639
    157  O         14.2130  -13.8530   24.5480 O.2   221  GLY221     -0.2714
    158  N         13.3200  -14.2140   26.5630 N.am  222  GLU222     -0.1963
    159  CA        13.3500  -15.6590   26.4180 C.3   222  GLU222      0.1733
    160  C         11.9380  -16.1350   26.0750 C.2   222  GLU222      0.2617
    161  O         11.0500  -16.1720   26.9290 O.2   222  GLU222     -0.2715
    162  CB        13.9100  -16.2900   27.6960 C.3   222  GLU222      0.0429
    163  CG        15.3540  -15.8510   27.9760 C.3   222  GLU222      0.1163
    164  CD        15.8840  -16.3000   29.3340 C.2   222  GLU222      0.3649
    165  OE1       15.4520  -15.7400   30.3640 O.co2 222  GLU222     -0.2457
    166  OE2       16.7480  -17.2050   29.3650 O.co2 222  GLU222     -0.2457
    167  N         11.7270  -16.4610   24.8040 N.am  223  GLY223     -0.1940
    168  CA        10.3830  -16.6680   24.2940 C.3   223  GLY223      0.2014
    169  C          9.6850  -15.3210   24.1560 C.2   223  GLY223      0.2639
    170  O         10.3100  -14.2760   24.3420 O.2   223  GLY223     -0.2714
    171  N          8.3960  -15.3400   23.8280 N.am  224  CYS224     -0.1967
    172  CA         7.5940  -14.1200   23.7770 C.3   224  CYS224      0.1712
    173  C          6.3150  -14.3030   24.5950 C.2   224  CYS224      0.2296
    174  O          5.5820  -15.2790   24.4130 O.2   224  CYS224     -0.2864
    175  CB         7.2240  -13.7780   22.3310 C.3   224  CYS224      0.0983
    176  SG         8.6020  -13.8240   21.1630 S.3   224  CYS224     -0.0798
    177  N         13.3520   -7.4990   28.0180 N.3   232  PHE232     -0.1241
    178  CA        14.4520   -6.6750   28.4880 C.3   232  PHE232      0.1605
    179  C         14.7750   -5.6080   27.4710 C.2   232  PHE232      0.2264
    180  O         14.7620   -5.8620   26.2690 O.2   232  PHE232     -0.2867
    181  CB        15.6730   -7.5430   28.8190 C.3   232  PHE232      0.0534
    182  CG        15.5320   -8.2850   30.1260 C.ar  232  PHE232     -0.0203
    183  CD1       14.7650   -9.4320   30.2010 C.ar  232  PHE232     -0.0042
    184  CD2       16.1330   -7.8100   31.2830 C.ar  232  PHE232     -0.0042
    185  CE1       14.6130  -10.1170   31.3950 C.ar  232  PHE232     -0.0003
    186  CE2       15.9840   -8.4970   32.4950 C.ar  232  PHE232     -0.0003
    187  CZ        15.2220   -9.6460   32.5410 C.ar  232  PHE232     -0.0000
@<TRIPOS>BOND
     1    26    25    2
     2    25    24    1
     3   119   118   ar
     4    24    27    1
     5    24    23    1
     6    27    28    1
     7   118   120   ar
     8   118   117    1
     9    14    13    2
    10   117   116    1
    11    11    12    1
    12    28    30   ar
    13    28    29   ar
    14   115   114    2
    15    13    12    1
    16    33    30   ar
    17    33    35   ar
    18     4     3    2
    19   114   113    1
    20    30    32   ar
    21    29    31   ar
    22    12    15    1
    23   116   113    1
    24   124   123    2
    25    35    36   ar
    26     3     2    1
    27    15    16    1
    28   113   112    1
    29    32    31   ar
    30    32    34   ar
    31    18    16   ar
    32    18    20   ar
    33   125   126    1
    34   125   122    1
    35    36    34   ar
    36   123   122    1
    37    16    17   ar
    38   121   122    1
    39     2     1    1
    40     2     5    1
    41    79    78    2
    42     8    10   ar
    43     8     6   ar
    44   112   108   am
    45   109   108    2
    46    78    77    1
    47    20    21   ar
    48    10     9   ar
    49   108   107    1
    50     5     6    1
    51     6     7   ar
    52    17    19   ar
    53    48    50   ar
    54    48    46   ar
    55    50    49   ar
    56   111   110    1
    57   111   176    1
    58   110   107    1
    59    46    45   ar
    60    46    44   ar
    61    76    77    1
    62    49    47   ar
    63    77    80    1
    64     9     7   ar
    65    45    43   ar
    66    21    19   ar
    67    21    22    1
    68   107   106    1
    69    44    47   ar
    70    44    42   ar
    71    43    42   ar
    72    42    41    1
    73   106   103   am
    74    41    38    1
    75    80    81    1
    76   176   175    1
    77   130   129    2
    78    81    82    1
    79   131   132    1
    80   131   133    1
    81   131   128    1
    82   103   102    1
    83   103   104    2
    84   102   105    1
    85   102   101    1
    86    38    39    1
    87    38    37    1
    88   137   136    2
    89   175   172    1
    90   129   128    1
    91   129   134   am
    92    40    39    2
    93   127   128    1
    94    96    95    2
    95    82    84   ar
    96    82    83   ar
    97    74    73    1
    98    75    73    1
    99   136   135    1
   100   136   140   am
   101    73    72    1
   102   135   134    1
   103   135   138    1
   104   101    95   am
   105    95    94    1
   106   172   171    1
   107   172   173    1
   108   171   169   am
   109   169   168    1
   110   169   170    2
   111   168   167    1
   112   140   141    1
   113   141   144    1
   114   141   142    1
   115   174   173    2
   116   139   138    1
   117   157   156    2
   118   144   145    1
   119    72    69    1
   120   167   160   am
   121    94    93    1
   122    94    97    1
   123   154   142   am
   124   154   155    1
   125   142   143    2
   126    69    68    1
   127    69    70    1
   128    97    98    1
   129   156   155    1
   130   156   158   am
   131    98    99   ar
   132    98   100   ar
   133    71    70    2
   134    51    52    1
   135    68    62   am
   136   160   159    1
   137   160   161    2
   138   145   146   ar
   139   145   147   ar
   140   180   179    2
   141   159   158    1
   142   159   162    1
   143   146   148   ar
   144    54    53    2
   145    52    53    1
   146    52    55    1
   147    53    60   am
   148    62    63    2
   149    62    61    1
   150   147   150   ar
   151   147   149   ar
   152    60    61    1
   153   179   178    1
   154   150   152   ar
   155   162   163    1
   156    61    64    1
   157   148   149   ar
   158   163   164    1
   159   177   178    1
   160    55    56    1
   161   149   151   ar
   162   178   181    1
   163    92    90    1
   164   181   182    1
   165    66    65    2
   166   152   153   ar
   167    64    65    1
   168   164   166   ar
   169   164   165   ar
   170    56    57    1
   171    65    67   am
   172   151   153   ar
   173    90    89    1
   174   182   183   ar
   175   182   184   ar
   176   183   185   ar
   177    91    89    1
   178    59    57   ar
   179    57    58   ar
   180    89    86    1
   181   184   186   ar
   182   185   187   ar
   183    86    85    1
   184    86    87    1
   185   186   187   ar
   186    87    88    2
