@<TRIPOS>MOLECULE
tmp/3qwiA01.pdb
 154 148 0 0 0
SMALL
GASTEIGER

@<TRIPOS>ATOM
      1  N        -12.1350  -21.4920    9.4710 N.3    97  VAL97      -0.1245
      2  CA       -10.9880  -21.0040    8.7120 C.3    97  VAL97       0.1561
      3  C        -11.1580  -21.3170    7.2210 C.2    97  VAL97       0.2260
      4  O        -11.9910  -22.1530    6.8490 O.2    97  VAL97      -0.2867
      5  CB        -9.6670  -21.5880    9.2640 C.3    97  VAL97       0.0252
      6  CG1       -9.4820  -23.0550    8.8260 C.3    97  VAL97       0.0019
      7  CG2       -8.4800  -20.7300    8.8500 C.3    97  VAL97       0.0019
      8  N         -7.7320  -12.5940   14.9900 N.3   143  SER143     -0.1202
      9  CA        -6.6850  -13.4110   14.4070 C.3   143  SER143      0.2020
     10  C         -5.4240  -12.5670   14.2970 C.2   143  SER143      0.2619
     11  O         -5.5120  -11.3590   14.0840 O.2   143  SER143     -0.2717
     12  CB        -7.1180  -13.8410   13.0110 C.3   143  SER143      0.2103
     13  OG        -6.5340  -15.0800   12.6550 O.3   143  SER143     -0.2182
     14  N         -4.2550  -13.1840   14.4380 N.am  144  ASN144     -0.1960
     15  CA        -3.0020  -12.4950   14.1080 C.3   144  ASN144      0.1819
     16  C         -2.9160  -12.1810   12.6090 C.2   144  ASN144      0.2621
     17  O         -2.1680  -11.2860   12.1840 O.2   144  ASN144     -0.2715
     18  CB        -1.7770  -13.2920   14.5730 C.3   144  ASN144      0.1195
     19  CG        -1.5160  -14.5250   13.7310 C.2   144  ASN144      0.2630
     20  OD1       -2.4340  -15.1970   13.2720 O.2   144  ASN144     -0.2716
     21  ND2       -0.2520  -14.8320   13.5330 N.am  144  ASN144     -0.0877
     22  N         -3.7040  -12.9150   11.8220 N.am  145  THR145     -0.1951
     23  CA        -3.7540  -12.7300   10.3710 C.3   145  THR145      0.1897
     24  C         -4.6500  -11.5600    9.9720 C.2   145  THR145      0.2313
     25  O         -4.6950  -11.1700    8.8140 O.2   145  THR145     -0.2863
     26  CB        -4.2140  -14.0130    9.6380 C.3   145  THR145      0.1794
     27  OG1       -5.4950  -14.4180   10.1400 O.3   145  THR145     -0.2208
     28  CG2       -3.2090  -15.1310    9.8490 C.3   145  THR145      0.0378
     29  N         -0.1090  -10.4750   10.6370 N.3   149  PHE149     -0.1241
     30  CA         0.5390  -11.5560    9.8980 C.3   149  PHE149      0.1605
     31  C         -0.0890  -11.6850    8.5110 C.2   149  PHE149      0.2264
     32  O         -1.3010  -11.8070    8.3910 O.2   149  PHE149     -0.2867
     33  CB         0.4190  -12.8630   10.7020 C.3   149  PHE149      0.0534
     34  CG         1.2410  -14.0170   10.1590 C.ar  149  PHE149     -0.0203
     35  CD1        2.5120  -13.8120    9.6250 C.ar  149  PHE149     -0.0042
     36  CD2        0.7520  -15.3170   10.2260 C.ar  149  PHE149     -0.0042
     37  CE1        3.2590  -14.8770    9.1390 C.ar  149  PHE149     -0.0003
     38  CE2        1.4960  -16.3850    9.7560 C.ar  149  PHE149     -0.0003
     39  CZ         2.7510  -16.1670    9.2080 C.ar  149  PHE149     -0.0000
     40  N        -10.5410  -15.0110    5.1640 N.3   157  TYR157     -0.1241
     41  CA       -10.4980  -15.2020    6.6120 C.3   157  TYR157      0.1605
     42  C         -9.9160  -13.9810    7.3170 C.2   157  TYR157      0.2264
     43  O        -10.4520  -13.5400    8.3290 O.2   157  TYR157     -0.2867
     44  CB        -9.6960  -16.4570    6.9630 C.3   157  TYR157      0.0534
     45  CG        -9.5470  -16.7130    8.4420 C.ar  157  TYR157     -0.0201
     46  CD1      -10.5570  -17.3430    9.1680 C.ar  157  TYR157     -0.0009
     47  CD2       -8.3840  -16.3430    9.1130 C.ar  157  TYR157     -0.0009
     48  CE1      -10.4140  -17.5880   10.5370 C.ar  157  TYR157      0.0417
     49  CE2       -8.2260  -16.5820   10.4740 C.ar  157  TYR157      0.0417
     50  CZ        -9.2400  -17.2000   11.1790 C.ar  157  TYR157      0.1957
     51  OH        -9.0730  -17.4270   12.5200 O.3   157  TYR157     -0.2866
     52  N         -5.5360  -14.6710   18.5450 N.3   187  PRO187     -0.2102
     53  CA        -4.5000  -15.6990   18.6460 C.3   187  PRO187      0.1504
     54  C         -3.6750  -15.8530   17.3630 C.2   187  PRO187      0.2576
     55  O         -4.1480  -15.5360   16.2660 O.2   187  PRO187     -0.2718
     56  CB        -5.2970  -16.9840   18.9060 C.3   187  PRO187      0.0282
     57  CG        -6.6910  -16.5310   19.3150 C.3   187  PRO187      0.0208
     58  CD        -6.9000  -15.2290   18.6280 C.3   187  PRO187      0.0893
     59  N         -2.4380  -16.3180   17.5190 N.am  188  GLY188     -0.1943
     60  CA        -1.6600  -16.8350   16.4070 C.3   188  GLY188      0.2014
     61  C         -1.9070  -18.3290   16.3280 C.2   188  GLY188      0.2639
     62  O         -2.9160  -18.8270   16.8450 O.2   188  GLY188     -0.2714
     63  N         -0.9930  -19.0520   15.6920 N.am  189  GLY189     -0.1939
     64  CA        -1.1000  -20.5030   15.5960 C.3   189  GLY189      0.2014
     65  C         -1.2570  -21.1720   16.9520 C.2   189  GLY189      0.2639
     66  O         -0.3050  -21.2470   17.7320 O.2   189  GLY189     -0.2714
     67  N         -2.4660  -21.6570   17.2200 N.am  190  THR190     -0.1950
     68  CA        -2.8150  -22.3070   18.4730 C.3   190  THR190      0.1897
     69  C         -3.2260  -23.7490   18.1730 C.2   190  THR190      0.2313
     70  O         -4.0540  -23.9960   17.2940 O.2   190  THR190     -0.2863
     71  CB        -3.9770  -21.5540   19.1650 C.3   190  THR190      0.1794
     72  OG1       -3.6890  -20.1540   19.1770 O.3   190  THR190     -0.2208
     73  CG2       -4.1870  -22.0240   20.5880 C.3   190  THR190      0.0378
     74  N         -8.3390  -26.7310   14.1890 N.3   194  MET194     -0.1230
     75  CA        -8.1230  -25.7110   13.1680 C.3   194  MET194      0.1702
     76  C         -6.6700  -25.6550   12.7300 C.2   194  MET194      0.2592
     77  O         -6.3760  -25.4940   11.5380 O.2   194  MET194     -0.2718
     78  CB        -8.5630  -24.3340   13.6490 C.3   194  MET194      0.0401
     79  CG        -8.4290  -23.2640   12.5790 C.3   194  MET194      0.0596
     80  SD        -9.2590  -21.7300   12.9900 S.3   194  MET194     -0.1393
     81  CE       -10.9790  -22.2170   12.7950 C.3   194  MET194      0.0692
     82  N         -5.7710  -25.7810   13.7020 N.am  195  PHE195     -0.1976
     83  CA        -4.3420  -25.7670   13.4330 C.3   195  PHE195      0.1639
     84  C         -3.9860  -26.8610   12.4250 C.2   195  PHE195      0.2290
     85  O         -3.3810  -26.5770   11.3980 O.2   195  PHE195     -0.2864
     86  CB        -3.5260  -25.9000   14.7310 C.3   195  PHE195      0.0560
     87  CG        -2.0410  -25.6690   14.5450 C.ar  195  PHE195     -0.0200
     88  CD1       -1.1980  -26.7170   14.1820 C.ar  195  PHE195     -0.0042
     89  CD2       -1.4900  -24.4030   14.7320 C.ar  195  PHE195     -0.0042
     90  CE1        0.1700  -26.5090   13.9990 C.ar  195  PHE195     -0.0003
     91  CE2       -0.1230  -24.1850   14.5570 C.ar  195  PHE195     -0.0003
     92  CZ         0.7060  -25.2420   14.1890 C.ar  195  PHE195     -0.0000
     93  N         -5.1960  -26.2920    8.6740 N.3   198  VAL198     -0.1231
     94  CA        -4.5620  -25.3680    7.7360 C.3   198  VAL198      0.1692
     95  C         -3.0830  -25.0180    7.9510 C.2   198  VAL198      0.2592
     96  O         -2.5890  -24.0920    7.3040 O.2   198  VAL198     -0.2718
     97  CB        -5.3880  -24.0610    7.5680 C.3   198  VAL198      0.0266
     98  CG1       -6.6760  -24.3380    6.7990 C.3   198  VAL198      0.0020
     99  CG2       -5.6620  -23.4000    8.9090 C.3   198  VAL198      0.0020
    100  N         -2.3740  -25.7440    8.8210 N.am  199  SER199     -0.1952
    101  CA        -0.9700  -25.4120    9.1280 C.3   199  SER199      0.1924
    102  C         -0.0710  -25.4560    7.8930 C.2   199  SER199      0.2314
    103  O          0.8670  -24.6770    7.7890 O.2   199  SER199     -0.2863
    104  CB        -0.3990  -26.2790   10.2650 C.3   199  SER199      0.2116
    105  OG        -0.3060  -27.6560    9.9190 O.3   199  SER199     -0.2180
    106  N          0.2550  -22.1830    6.0210 N.3   202  TYR202     -0.1227
    107  CA         1.0640  -21.1420    6.6700 C.3   202  TYR202      0.1736
    108  C          2.5760  -21.3220    6.4850 C.2   202  TYR202      0.2595
    109  O          3.3800  -20.5090    6.9730 O.2   202  TYR202     -0.2718
    110  CB         0.7600  -21.1180    8.1600 C.3   202  TYR202      0.0548
    111  CG        -0.5570  -20.4890    8.5200 C.ar  202  TYR202     -0.0200
    112  CD1       -1.7330  -21.2380    8.5360 C.ar  202  TYR202     -0.0009
    113  CD2       -0.6290  -19.1430    8.8710 C.ar  202  TYR202     -0.0009
    114  CE1       -2.9570  -20.6510    8.8810 C.ar  202  TYR202      0.0417
    115  CE2       -1.8420  -18.5480    9.2180 C.ar  202  TYR202      0.0417
    116  CZ        -3.0020  -19.3070    9.2220 C.ar  202  TYR202      0.1957
    117  OH        -4.2010  -18.7120    9.5750 O.3   202  TYR202     -0.2866
    118  N          2.9500  -22.3940    5.7920 N.am  203  ILE203     -0.1980
    119  CA         4.3500  -22.7630    5.6030 C.3   203  ILE203      0.1595
    120  C          4.6540  -22.9800    4.1180 C.2   203  ILE203      0.2287
    121  O          3.9050  -23.6850    3.4320 O.2   203  ILE203     -0.2864
    122  CB         4.7040  -24.0330    6.4320 C.3   203  ILE203      0.0276
    123  CG1        4.7050  -23.6950    7.9270 C.3   203  ILE203      0.0022
    124  CG2        6.0510  -24.6330    5.9940 C.3   203  ILE203      0.0022
    125  CD1        4.3300  -24.8390    8.8300 C.3   203  ILE203      0.0001
    126  N          5.3570  -29.5510   11.0610 N.3   214  ARG214     -0.1245
    127  CA         4.6580  -28.2780   10.9320 C.3   214  ARG214      0.1563
    128  C          4.4000  -27.6660   12.2940 C.2   214  ARG214      0.2260
    129  O          4.5290  -26.4590   12.4630 O.2   214  ARG214     -0.2867
    130  CB         3.3600  -28.4520   10.1530 C.3   214  ARG214      0.0307
    131  CG         3.4910  -28.0760    8.6900 C.3   214  ARG214      0.0489
    132  CD         2.8940  -29.1130    7.7640 C.3   214  ARG214      0.2205
    133  NE         1.4780  -29.3730    8.0140 N.pl3 214  ARG214     -0.0865
    134  CZ         0.8750  -30.5320    7.7500 C.cat 214  ARG214      0.5346
    135  NH1        1.5640  -31.5480    7.2400 N.pl3 214  ARG214      0.1354
    136  NH2       -0.4210  -30.6800    8.0040 N.pl3 214  ARG214      0.1354
    137  N          7.7270  -26.2730   13.4840 N.3   217  MET217     -0.1230
    138  CA         8.0760  -25.0520   12.7530 C.3   217  MET217      0.1702
    139  C          7.2490  -23.8740   13.2570 C.2   217  MET217      0.2592
    140  O          7.7440  -22.7420   13.3250 O.2   217  MET217     -0.2718
    141  CB         7.8840  -25.2290   11.2420 C.3   217  MET217      0.0401
    142  CG         8.9700  -26.0580   10.5550 C.3   217  MET217      0.0596
    143  SD         8.6070  -26.3120    8.8060 S.3   217  MET217     -0.1393
    144  CE         8.7950  -24.6400    8.1680 C.3   217  MET217      0.0692
    145  N          5.9930  -24.1470   13.6010 N.am  218  ALA218     -0.1980
    146  CA         5.1030  -23.1380   14.1510 C.3   218  ALA218      0.1597
    147  C          5.5920  -22.6880   15.5210 C.2   218  ALA218      0.2287
    148  O          5.4290  -21.5210   15.8930 O.2   218  ALA218     -0.2864
    149  CB         3.6920  -23.6740   14.2510 C.3   218  ALA218      0.0319
    150  N          8.1090  -19.9920   15.3350 N.3   221  ALA221     -0.1245
    151  CA         7.5940  -18.6570   15.0050 C.3   221  ALA221      0.1562
    152  C          7.7930  -17.7200   16.2050 C.2   221  ALA221      0.2260
    153  O          8.4110  -16.6550   16.0740 O.2   221  ALA221     -0.2867
    154  CB         6.1110  -18.7140   14.5950 C.3   221  ALA221      0.0290
@<TRIPOS>BOND
     1   121   120    2
     2   120   119    1
     3    40    41    1
     4   119   118    1
     5   119   122    1
     6   118   108   am
     7   124   122    1
     8   106   107    1
     9   122   123    1
    10   108   107    1
    11   108   109    2
    12    41    44    1
    13    41    42    1
    14   107   110    1
    15    98    97    1
    16     4     3    2
    17    44    45    1
    18     3     2    1
    19   135   134    1
    20    96    95    2
    21    42    43    2
    22    97    94    1
    23    97    99    1
    24    94    95    1
    25    94    93    1
    26   134   136    1
    27   134   133    2
    28   132   133    1
    29   132   131    1
    30   103   102    2
    31   102   101    1
    32   123   125    1
    33    95   100   am
    34   110   111    1
    35   144   143    1
    36    32    31    2
    37    45    47   ar
    38    45    46   ar
    39    31    30    1
    40   111   112   ar
    41   111   113   ar
    42   112   114   ar
    43   131   130    1
    44     2     5    1
    45     2     1    1
    46   143   142    1
    47    25    24    2
    48   100   101    1
    49     6     5    1
    50     7     5    1
    51   113   115   ar
    52   114   116   ar
    53    47    49   ar
    54   101   104    1
    55    37    39   ar
    56    37    35   ar
    57    46    48   ar
    58    39    38   ar
    59   115   116   ar
    60   116   117    1
    61    35    34   ar
    62    26    28    1
    63    26    27    1
    64    26    23    1
    65    38    36   ar
    66    30    29    1
    67    30    33    1
    68   105   104    1
    69    24    23    1
    70   130   127    1
    71    34    36   ar
    72    34    33    1
    73    23    22    1
    74    49    50   ar
    75    48    50   ar
    76   142   141    1
    77   127   126    1
    78   127   128    1
    79    50    51    1
    80   141   138    1
    81    85    84    2
    82    77    76    2
    83    22    16   am
    84    17    16    2
    85   128   129    2
    86    84    83    1
    87    79    80    1
    88    79    78    1
    89    16    15    1
    90    13    12    1
    91    76    75    1
    92    76    82   am
    93   138   139    1
    94   138   137    1
    95    81    80    1
    96    12     9    1
    97    75    78    1
    98    75    74    1
    99   139   140    2
   100   139   145   am
   101    20    19    2
   102    83    82    1
   103    83    86    1
   104    21    19   am
   105   145   146    1
   106    19    18    1
   107    90    88   ar
   108    90    92   ar
   109    11    10    2
   110    15    14    1
   111    15    18    1
   112   146   149    1
   113   146   147    1
   114    88    87   ar
   115    92    91   ar
   116    10     9    1
   117    10    14   am
   118     9     8    1
   119    87    86    1
   120    87    89   ar
   121    91    89   ar
   122   154   151    1
   123   151   150    1
   124   151   152    1
   125   147   148    2
   126    64    63    1
   127    64    65    1
   128    63    61   am
   129   153   152    2
   130    55    54    2
   131    61    60    1
   132    61    62    2
   133    60    59    1
   134    65    67   am
   135    65    66    2
   136    67    68    1
   137    70    69    2
   138    54    59   am
   139    54    53    1
   140    69    68    1
   141    68    71    1
   142    52    58    1
   143    52    53    1
   144    58    57    1
   145    53    56    1
   146    56    57    1
   147    71    72    1
   148    71    73    1
