@<TRIPOS>MOLECULE
tmp/3qwkA00.pdb
 172 162 0 0 0
SMALL
GASTEIGER

@<TRIPOS>ATOM
      1  N        -67.8010   15.1960  -79.8510 N.3     8  GLU8       -0.1245
      2  CA       -67.5530   15.8490  -78.5720 C.3     8  GLU8        0.1567
      3  C        -68.1670   17.2400  -78.5450 C.2     8  GLU8        0.2260
      4  O        -68.4820   17.8120  -79.5850 O.2     8  GLU8       -0.2867
      5  CB       -66.0530   15.9590  -78.2880 C.3     8  GLU8        0.0388
      6  CG       -65.2970   16.8590  -79.2440 C.3     8  GLU8        0.1160
      7  CD       -64.0310   17.4190  -78.6280 C.2     8  GLU8        0.3649
      8  OE1      -64.1380   18.1310  -77.6050 O.co2   8  GLU8       -0.2457
      9  OE2      -62.9330   17.1540  -79.1600 O.co2   8  GLU8       -0.2457
     10  N        -67.9630   21.0170  -78.3130 N.3    10  ILE10      -0.1245
     11  CA       -66.9590   22.0400  -78.5840 C.3    10  ILE10       0.1561
     12  C        -67.1790   23.2330  -77.6640 C.2    10  ILE10       0.2260
     13  O        -66.4510   24.2260  -77.7300 O.2    10  ILE10      -0.2867
     14  CB       -67.0240   22.5320  -80.0440 C.3    10  ILE10       0.0252
     15  CG1      -66.9120   21.3520  -81.0060 C.3    10  ILE10       0.0019
     16  CG2      -65.8830   23.4950  -80.3180 C.3    10  ILE10       0.0019
     17  CD1      -67.0270   21.7560  -82.4620 C.3    10  ILE10       0.0001
     18  N        -69.8100   26.1760  -75.5560 N.3    12  GLU12      -0.1231
     19  CA       -70.9740   27.0430  -75.6340 C.3    12  GLU12       0.1699
     20  C        -70.8500   27.9950  -76.8190 C.2    12  GLU12       0.2592
     21  O        -69.7540   28.4400  -77.1690 O.2    12  GLU12      -0.2718
     22  CB       -71.1110   27.8530  -74.3400 C.3    12  GLU12       0.0402
     23  CG       -71.9860   29.0970  -74.4600 C.3    12  GLU12       0.1161
     24  CD       -73.4660   28.7780  -74.5460 C.2    12  GLU12       0.3649
     25  OE1      -73.8470   27.9170  -75.3670 O.co2  12  GLU12      -0.2457
     26  OE2      -74.2490   29.4000  -73.7940 O.co2  12  GLU12      -0.2457
     27  N        -71.9870   28.2930  -77.4360 N.am   13  GLY13      -0.1957
     28  CA       -72.0100   29.2020  -78.5630 C.3    13  GLY13       0.1869
     29  C        -72.8080   30.4290  -78.1730 C.2    13  GLY13       0.2309
     30  O        -73.5960   30.3890  -77.2230 O.2    13  GLY13      -0.2863
     31  N        -72.5510   23.6610  -78.8050 N.3    18  VAL18      -0.1245
     32  CA       -71.8810   23.3230  -80.0560 C.3    18  VAL18       0.1561
     33  C        -71.1780   21.9830  -79.9500 C.2    18  VAL18       0.2260
     34  O        -70.4510   21.7350  -78.9920 O.2    18  VAL18      -0.2867
     35  CB       -70.8110   24.3680  -80.4210 C.3    18  VAL18       0.0252
     36  CG1      -70.3380   24.1380  -81.8510 C.3    18  VAL18       0.0019
     37  CG2      -71.3610   25.7720  -80.2400 C.3    18  VAL18       0.0019
     38  N        -68.8520   18.8060  -82.0780 N.3    20  LYS20      -0.1245
     39  CA       -68.0700   18.4210  -83.2400 C.3    20  LYS20       0.1561
     40  C        -68.8190   17.1400  -83.5880 C.2    20  LYS20       0.2260
     41  O        -69.0130   16.2860  -82.7280 O.2    20  LYS20      -0.2867
     42  CB       -66.6350   18.0910  -82.8520 C.3    20  LYS20       0.0271
     43  CG       -65.8000   17.5890  -84.0190 C.3    20  LYS20       0.0035
     44  CD       -64.3670   17.3260  -83.5730 C.3    20  LYS20       0.0206
     45  CE       -63.5180   16.7740  -84.7110 C.3    20  LYS20       0.1093
     46  NZ       -62.1230   16.5180  -84.2500 N.3    20  LYS20      -0.1314
     47  N        -69.2080   21.1770  -87.3600 N.3    31  ALA31      -0.1245
     48  CA       -69.4880   21.7840  -86.0670 C.3    31  ALA31       0.1562
     49  C        -71.0000   21.9220  -86.1290 C.2    31  ALA31       0.2260
     50  O        -71.5350   22.4680  -87.0920 O.2    31  ALA31      -0.2867
     51  CB       -68.8400   23.1560  -85.9510 C.3    31  ALA31       0.0290
     52  N        -74.2580   23.4430  -84.2530 N.3    33  LYS33      -0.1245
     53  CA       -74.7250   24.3660  -83.2310 C.3    33  LYS33       0.1561
     54  C        -76.2320   24.2400  -83.0530 C.2    33  LYS33       0.2260
     55  O        -76.9890   24.3790  -84.0070 O.2    33  LYS33      -0.2867
     56  CB       -74.3590   25.8010  -83.6230 C.3    33  LYS33       0.0271
     57  CG       -74.5750   26.8240  -82.5270 C.3    33  LYS33       0.0035
     58  CD       -73.7240   28.0520  -82.7920 C.3    33  LYS33       0.0206
     59  CE       -73.5820   28.9180  -81.5510 C.3    33  LYS33       0.1093
     60  NZ       -72.4910   29.9240  -81.7200 N.3    33  LYS33      -0.1314
     61  N        -66.2860   31.0340  -92.6290 N.3    60  VAL60      -0.1245
     62  CA       -66.6560   29.6600  -92.2900 C.3    60  VAL60       0.1561
     63  C        -67.9520   29.3090  -93.0280 C.2    60  VAL60       0.2260
     64  O        -68.9650   29.9780  -92.8680 O.2    60  VAL60      -0.2867
     65  CB       -66.8880   29.5060  -90.7530 C.3    60  VAL60       0.0252
     66  CG1      -67.4370   28.1210  -90.4320 C.3    60  VAL60       0.0019
     67  CG2      -65.5670   29.7240  -90.0140 C.3    60  VAL60       0.0019
     68  N        -71.8790   23.8130  -89.6610 N.3    76  PHE76      -0.1227
     69  CA       -70.7570   24.5820  -90.1960 C.3    76  PHE76       0.1736
     70  C        -69.5610   23.7290  -90.5750 C.2    76  PHE76       0.2595
     71  O        -69.3380   22.6500  -90.0100 O.2    76  PHE76      -0.2718
     72  CB       -70.2270   25.5680  -89.1570 C.3    76  PHE76       0.0547
     73  CG       -71.2260   26.5740  -88.6850 C.ar   76  PHE76      -0.0202
     74  CD1      -71.5800   27.6510  -89.4840 C.ar   76  PHE76      -0.0042
     75  CD2      -71.7550   26.4800  -87.4000 C.ar   76  PHE76      -0.0042
     76  CE1      -72.4480   28.6370  -89.0040 C.ar   76  PHE76      -0.0003
     77  CE2      -72.6250   27.4590  -86.9070 C.ar   76  PHE76      -0.0003
     78  CZ       -72.9680   28.5410  -87.7140 C.ar   76  PHE76      -0.0000
     79  N        -68.7770   24.2370  -91.5220 N.am   77  GLU77      -0.1965
     80  CA       -67.5500   23.5490  -91.8950 C.3    77  GLU77       0.1733
     81  C        -66.7190   23.6210  -90.6090 C.2    77  GLU77       0.2616
     82  O        -66.7820   24.6060  -89.8570 O.2    77  GLU77      -0.2715
     83  CB       -66.8300   24.2660  -93.0480 C.3    77  GLU77       0.0429
     84  CG       -65.9910   25.4530  -92.6440 C.3    77  GLU77       0.1163
     85  CD       -65.1530   26.0290  -93.7830 C.2    77  GLU77       0.3649
     86  OE1      -64.0440   25.5160  -94.0720 O.co2  77  GLU77      -0.2457
     87  OE2      -65.6050   27.0150  -94.3870 O.co2  77  GLU77      -0.2457
     88  N        -65.9530   22.5770  -90.3470 N.am   78  PHE78      -0.1960
     89  CA       -65.1710   22.5110  -89.1280 C.3    78  PHE78       0.1771
     90  C        -63.7220   23.0120  -89.2430 C.2    78  PHE78       0.2619
     91  O        -63.0670   22.7690  -90.2460 O.2    78  PHE78      -0.2715
     92  CB       -65.1760   21.0510  -88.6480 C.3    78  PHE78       0.0574
     93  CG       -64.4350   20.8220  -87.3720 C.ar   78  PHE78      -0.0200
     94  CD1      -63.0980   20.4130  -87.3810 C.ar   78  PHE78      -0.0042
     95  CD2      -65.0790   20.9990  -86.1530 C.ar   78  PHE78      -0.0042
     96  CE1      -62.4200   20.1810  -86.1920 C.ar   78  PHE78      -0.0003
     97  CE2      -64.4040   20.7690  -84.9540 C.ar   78  PHE78      -0.0003
     98  CZ       -63.0800   20.3610  -84.9720 C.ar   78  PHE78      -0.0000
     99  N        -63.2640   23.7440  -88.2240 N.am   79  LEU79      -0.1963
    100  CA       -61.8740   24.2030  -88.1230 C.3    79  LEU79       0.1728
    101  C        -61.5110   23.8540  -86.6920 C.2    79  LEU79       0.2616
    102  O        -62.3220   24.0040  -85.7720 O.2    79  LEU79      -0.2715
    103  CB       -61.6890   25.7080  -88.3910 C.3    79  LEU79       0.0311
    104  CG       -61.6290   26.0660  -89.8860 C.3    79  LEU79       0.0022
    105  CD1      -63.0370   26.2670  -90.4030 C.3    79  LEU79       0.0001
    106  CD2      -60.8290   27.3390  -90.1090 C.3    79  LEU79       0.0001
    107  N        -60.2860   23.3820  -86.5120 N.am   80  HIS80      -0.1959
    108  CA       -59.8210   22.9150  -85.2210 C.3    80  HIS80       0.1787
    109  C        -59.5410   23.9040  -84.1140 C.2    80  HIS80       0.2620
    110  O        -59.5460   23.5280  -82.9360 O.2    80  HIS80      -0.2715
    111  CB       -58.5660   22.0660  -85.4180 C.3    80  HIS80       0.0785
    112  CG       -58.8120   20.7670  -86.1250 C.ar   80  HIS80       0.0821
    113  ND1      -58.9130   20.6710  -87.4970 N.ar   80  HIS80      -0.2267
    114  CD2      -58.9700   19.5090  -85.6450 C.ar   80  HIS80       0.1154
    115  CE1      -59.1210   19.4080  -87.8320 C.ar   80  HIS80       0.1986
    116  NE2      -59.1590   18.6820  -86.7270 N.ar   80  HIS80      -0.2212
    117  N        -59.2940   25.1580  -84.4550 N.am   81  GLN81      -0.1963
    118  CA       -58.9470   26.1080  -83.4030 C.3    81  GLN81       0.1733
    119  C        -59.4500   27.5090  -83.6630 C.2    81  GLN81       0.2616
    120  O        -59.7380   27.8670  -84.7960 O.2    81  GLN81      -0.2715
    121  CB       -57.4250   26.1300  -83.2600 C.3    81  GLN81       0.0408
    122  CG       -56.8860   26.7820  -81.9910 C.3    81  GLN81       0.0908
    123  CD       -55.4460   26.3700  -81.7230 C.2    81  GLN81       0.2608
    124  OE1      -55.1390   25.1750  -81.6330 O.2    81  GLN81      -0.2717
    125  NE2      -54.5600   27.3470  -81.5930 N.am   81  GLN81      -0.0878
    126  N        -59.5470   28.2980  -82.5990 N.am   82  ASP82      -0.1971
    127  CA       -59.9790   29.6810  -82.7470 C.3    82  ASP82       0.1709
    128  C        -58.8030   30.5720  -82.3830 C.2    82  ASP82       0.2293
    129  O        -57.8150   30.1130  -81.7800 O.2    82  ASP82      -0.2864
    130  CB       -61.2120   29.9790  -81.8840 C.3    82  ASP82       0.1436
    131  CG       -60.9500   29.8250  -80.3920 C.2    82  ASP82       0.3671
    132  OD1      -60.1580   30.6160  -79.8340 O.co2  82  ASP82      -0.2456
    133  OD2      -61.5500   28.9080  -79.7900 O.co2  82  ASP82      -0.2456
    134  N        -57.7590   30.9540  -78.5120 N.3    85  LYS85      -0.1245
    135  CA       -56.9040   29.8870  -78.0040 C.3    85  LYS85       0.1561
    136  C        -55.4930   30.0390  -78.5600 C.2    85  LYS85       0.2260
    137  O        -54.5150   29.8670  -77.8340 O.2    85  LYS85      -0.2867
    138  CB       -57.4490   28.4950  -78.3830 C.3    85  LYS85       0.0271
    139  CG       -56.5440   27.3540  -77.9130 C.3    85  LYS85       0.0035
    140  CD       -56.9290   26.0150  -78.5280 C.3    85  LYS85       0.0206
    141  CE       -56.0330   24.8870  -78.0260 C.3    85  LYS85       0.1093
    142  NZ       -56.2770   24.5630  -76.5940 N.3    85  LYS85      -0.1314
    143  N        -62.5300   34.6410  -80.4180 N.3   127  GLN127     -0.1245
    144  CA       -63.1310   33.3160  -80.3830 C.3   127  GLN127      0.1566
    145  C        -63.9650   33.0140  -81.6190 C.2   127  GLN127      0.2260
    146  O        -64.1840   31.8520  -81.9280 O.2   127  GLN127     -0.2867
    147  CB       -63.9620   33.1400  -79.1040 C.3   127  GLN127      0.0367
    148  CG       -65.1230   34.0920  -78.9580 C.3   127  GLN127      0.0905
    149  CD       -65.6380   34.1280  -77.5370 C.2   127  GLN127      0.2608
    150  OE1      -64.9690   34.6370  -76.6350 O.2   127  GLN127     -0.2717
    151  NE2      -66.8240   33.5720  -77.3240 N.am  127  GLN127     -0.0878
    152  N        -61.6470   31.5120  -86.7300 N.3   130  LEU130     -0.1245
    153  CA       -61.1220   30.1600  -86.7270 C.3   130  LEU130      0.1561
    154  C        -59.9210   30.0040  -87.6380 C.2   130  LEU130      0.2260
    155  O        -59.8240   30.6440  -88.6850 O.2   130  LEU130     -0.2867
    156  CB       -62.2390   29.1940  -87.1190 C.3   130  LEU130      0.0270
    157  CG       -63.4980   29.4150  -86.2590 C.3   130  LEU130      0.0019
    158  CD1      -64.5300   28.3560  -86.6110 C.3   130  LEU130      0.0001
    159  CD2      -63.1540   29.3410  -84.7350 C.3   130  LEU130      0.0001
    160  N        -66.3490   33.5180  -88.3300 N.3   140  ALA140     -0.1231
    161  CA       -67.3920   32.5670  -87.9700 C.3   140  ALA140      0.1694
    162  C        -68.4910   33.1890  -87.1390 C.2   140  ALA140      0.2592
    163  O        -68.3700   34.3170  -86.6690 O.2   140  ALA140     -0.2718
    164  CB       -66.7950   31.3970  -87.1880 C.3   140  ALA140      0.0304
    165  N        -69.5630   32.4220  -86.9780 N.am  141  ASP141     -0.1974
    166  CA       -70.6920   32.7990  -86.1430 C.3   141  ASP141      0.1709
    167  C        -71.0810   34.2630  -86.2250 C.2   141  ASP141      0.2293
    168  O        -70.8520   35.0300  -85.2920 O.2   141  ASP141     -0.2864
    169  CB       -70.3640   32.4270  -84.6890 C.3   141  ASP141      0.1436
    170  CG       -71.4990   32.7110  -83.7370 C.2   141  ASP141      0.3671
    171  OD1      -71.3540   32.3830  -82.5390 O.co2 141  ASP141     -0.2456
    172  OD2      -72.5340   33.2610  -84.1730 O.co2 141  ASP141     -0.2456
@<TRIPOS>BOND
     1    87    85   ar
     2    86    85   ar
     3    85    84    1
     4    83    84    1
     5    83    80    1
     6    63    64    2
     7    63    62    1
     8    61    62    1
     9    62    65    1
    10    80    79    1
    11    80    81    1
    12    79    70   am
    13    65    66    1
    14    65    67    1
    15    81    88   am
    16    81    82    2
    17    70    69    1
    18    70    71    2
    19   105   104    1
    20    88    89    1
    21    91    90    2
    22    69    68    1
    23    69    72    1
    24   106   104    1
    25   104   103    1
    26    74    76   ar
    27    74    73   ar
    28    90    89    1
    29    90    99   am
    30    72    73    1
    31    89    92    1
    32    76    78   ar
    33    73    75   ar
    34   155   154    2
    35    92    93    1
    36   103   100    1
    37   160   161    1
    38    99   100    1
    39   100   101    1
    40   161   164    1
    41   161   162    1
    42   115   113   ar
    43   115   116   ar
    44    78    77   ar
    45   154   153    1
    46   113   112   ar
    47    75    77   ar
    48    94    93   ar
    49    94    96   ar
    50    93    95   ar
    51    47    48    1
    52   162   165   am
    53   162   163    2
    54   156   153    1
    55   156   157    1
    56    50    49    2
    57   165   166    1
    58   152   153    1
    59   116   114   ar
    60   101   107   am
    61   101   102    2
    62   158   157    1
    63   107   108    1
    64   157   159    1
    65   167   166    1
    66   167   168    2
    67    96    98   ar
    68    95    97   ar
    69   166   169    1
    70    49    48    1
    71   112   114   ar
    72   112   111    1
    73    48    51    1
    74   111   108    1
    75   108   109    1
    76    98    97   ar
    77   120   119    2
    78    45    46    1
    79    45    44    1
    80   169   170    1
    81   117   109   am
    82   117   118    1
    83    52    53    1
    84   172   170   ar
    85   109   110    2
    86    43    44    1
    87    43    42    1
    88    55    54    2
    89   170   171   ar
    90   119   118    1
    91   119   126   am
    92    56    53    1
    93    56    57    1
    94    40    39    1
    95    40    41    2
    96   118   121    1
    97   121   122    1
    98    39    42    1
    99    39    38    1
   100    53    54    1
   101    58    57    1
   102    58    59    1
   103   127   126    1
   104   127   128    1
   105   127   130    1
   106    17    15    1
   107   128   129    2
   108   122   123    1
   109   146   145    2
   110   130   131    1
   111    36    35    1
   112   123   124    2
   113   123   125   am
   114    60    59    1
   115   145   144    1
   116    15    14    1
   117    35    37    1
   118    35    32    1
   119   143   144    1
   120   131   132   ar
   121   131   133   ar
   122   144   147    1
   123    16    14    1
   124    32    33    1
   125    32    31    1
   126    14    11    1
   127    33    34    2
   128     1     2    1
   129     4     3    2
   130     6     7    1
   131     6     5    1
   132     9     7   ar
   133   147   148    1
   134   148   149    1
   135     7     8   ar
   136    11    10    1
   137    11    12    1
   138     2     3    1
   139     2     5    1
   140    28    29    1
   141    28    27    1
   142   136   135    1
   143   136   137    2
   144   140   141    1
   145   140   139    1
   146   134   135    1
   147   138   135    1
   148   138   139    1
   149    29    30    2
   150   141   142    1
   151    13    12    2
   152   149   151   am
   153   149   150    2
   154    27    20   am
   155    21    20    2
   156    20    19    1
   157    19    18    1
   158    19    22    1
   159    25    24   ar
   160    24    23    1
   161    24    26   ar
   162    23    22    1
