@<TRIPOS>MOLECULE
tmp/3qwrA00.pdb
 109 106 0 0 0
SMALL
GASTEIGER

@<TRIPOS>ATOM
      1  N         22.2920  -27.1010  -57.2450 N.3     1  TRP1       -0.1227
      2  CA        22.9780  -28.2230  -56.5730 C.3     1  TRP1        0.1737
      3  C         22.6200  -29.5830  -57.1980 C.2     1  TRP1        0.2595
      4  O         21.5820  -29.6880  -57.8460 O.2     1  TRP1       -0.2718
      5  CB        22.8590  -28.2090  -55.0200 C.3     1  TRP1        0.0564
      6  CG        21.4750  -28.2940  -54.4550 C.ar    1  TRP1        0.0003
      7  CD1       20.6260  -27.2590  -54.2190 C.ar    1  TRP1        0.0946
      8  CD2       20.8200  -29.4650  -53.9800 C.ar    1  TRP1        0.0152
      9  NE1       19.4610  -27.7210  -53.6650 N.ar    1  TRP1       -0.2442
     10  CE2       19.5590  -29.0690  -53.4830 C.ar    1  TRP1        0.0810
     11  CE3       21.1640  -30.8160  -53.9430 C.ar    1  TRP1        0.0012
     12  CZ2       18.6490  -29.9720  -52.9300 C.ar    1  TRP1        0.0191
     13  CZ3       20.2680  -31.7110  -53.3770 C.ar    1  TRP1        0.0001
     14  CH2       19.0310  -31.2830  -52.8650 C.ar    1  TRP1        0.0015
     15  N         23.5120  -30.5850  -57.0970 N.am    2  GLU2       -0.1965
     16  CA        23.2830  -31.8820  -57.7270 C.3     2  GLU2        0.1733
     17  C         22.6070  -32.8800  -56.8050 C.2     2  GLU2        0.2616
     18  O         23.1340  -33.2000  -55.7370 O.2     2  GLU2       -0.2715
     19  CB        24.5890  -32.4200  -58.2760 C.3     2  GLU2        0.0429
     20  CG        24.4730  -33.7720  -58.9160 C.3     2  GLU2        0.1163
     21  CD        25.7940  -34.5070  -58.9310 C.2     2  GLU2        0.3649
     22  OE1       25.9280  -35.5290  -58.2150 O.co2   2  GLU2       -0.2457
     23  OE2       26.7160  -34.0220  -59.6230 O.co2   2  GLU2       -0.2457
     24  N         21.4190  -33.3380  -57.2050 N.am    3  LEU3       -0.1977
     25  CA        20.6630  -34.3470  -56.4690 C.3     3  LEU3        0.1596
     26  C         20.8900  -35.4670  -57.3870 C.2     3  LEU3        0.2287
     27  O         20.1650  -35.5340  -58.3760 O.2     3  LEU3       -0.2864
     28  CB        19.1620  -34.1010  -56.5520 C.3     3  LEU3        0.0297
     29  CG        18.3400  -35.1920  -55.9120 C.3     3  LEU3        0.0022
     30  CD1       18.3420  -35.0280  -54.3890 C.3     3  LEU3        0.0001
     31  CD2       16.9500  -35.1930  -56.4800 C.3     3  LEU3        0.0001
     32  N         16.3520  -24.0770  -56.7000 N.3    11  GLU11      -0.1245
     33  CA        16.1460  -23.1020  -55.5880 C.3    11  GLU11       0.1567
     34  C         15.7300  -21.7040  -56.0610 C.2    11  GLU11       0.2260
     35  O         16.5600  -20.8720  -56.4430 O.2    11  GLU11      -0.2867
     36  CB        17.2520  -22.9750  -54.5360 C.3    11  GLU11       0.0388
     37  CG        17.9430  -24.2510  -54.1360 C.3    11  GLU11       0.1160
     38  CD        18.5060  -24.1720  -52.7460 C.2    11  GLU11       0.3649
     39  OE1       19.0110  -25.2070  -52.2590 O.co2  11  GLU11      -0.2457
     40  OE2       18.4240  -23.0840  -52.1330 O.co2  11  GLU11      -0.2457
     41  N         13.0680  -26.1000  -56.7330 N.3    82  HIS82      -0.1241
     42  CA        12.7850  -26.1540  -55.2940 C.3    82  HIS82       0.1621
     43  C         12.2740  -24.7530  -54.8980 C.2    82  HIS82       0.2264
     44  O         13.0370  -23.7830  -54.8450 O.2    82  HIS82      -0.2867
     45  CB        14.0370  -26.5900  -54.4880 C.3    82  HIS82       0.0745
     46  CG        13.7910  -26.9290  -53.0450 C.ar   82  HIS82       0.0817
     47  ND1       14.8340  -27.0370  -52.1440 N.ar   82  HIS82      -0.2268
     48  CD2       12.6310  -27.1590  -52.3890 C.ar   82  HIS82       0.1154
     49  CE1       14.2790  -27.3440  -50.9830 C.ar   82  HIS82       0.1986
     50  NE2       12.9600  -27.4340  -51.0810 N.ar   82  HIS82      -0.2212
     51  N         10.6240  -23.2900  -47.5020 N.3    89  TRP89      -0.1241
     52  CA        10.6320  -24.2940  -48.5650 C.3    89  TRP89       0.1605
     53  C          9.3030  -25.0010  -48.6350 C.2    89  TRP89       0.2264
     54  O          8.7340  -25.3500  -47.5950 O.2    89  TRP89      -0.2867
     55  CB        11.7170  -25.3260  -48.3390 C.3    89  TRP89       0.0550
     56  CG        13.0870  -24.7520  -48.3660 C.ar   89  TRP89       0.0003
     57  CD1       13.9450  -24.6560  -47.3190 C.ar   89  TRP89       0.0946
     58  CD2       13.7720  -24.2030  -49.4990 C.ar   89  TRP89       0.0152
     59  NE1       15.1310  -24.0940  -47.7290 N.ar   89  TRP89      -0.2442
     60  CE2       15.0580  -23.8200  -49.0660 C.ar   89  TRP89       0.0810
     61  CE3       13.4250  -23.9930  -50.8410 C.ar   89  TRP89       0.0012
     62  CZ2       15.9980  -23.2550  -49.9210 C.ar   89  TRP89       0.0191
     63  CZ3       14.3620  -23.4440  -51.6870 C.ar   89  TRP89       0.0001
     64  CH2       15.6260  -23.0720  -51.2230 C.ar   89  TRP89       0.0015
     65  N         16.8110  -41.5750  -46.8790 N.3   134  LYS134     -0.1245
     66  CA        18.1380  -41.7380  -46.3190 C.3   134  LYS134      0.1561
     67  C         18.0120  -41.4880  -44.8250 C.2   134  LYS134      0.2260
     68  O         17.1160  -40.7450  -44.3820 O.2   134  LYS134     -0.2867
     69  CB        19.1230  -40.7390  -46.9590 C.3   134  LYS134      0.0271
     70  CG        19.2750  -40.9500  -48.4580 C.3   134  LYS134      0.0035
     71  CD        20.3100  -40.0050  -49.0420 C.3   134  LYS134      0.0206
     72  CE        20.2230  -39.9470  -50.5520 C.3   134  LYS134      0.1093
     73  NZ        18.9910  -39.2550  -51.0180 N.3   134  LYS134     -0.1314
     74  N         15.5950  -38.4100  -43.8220 N.3   187  MET187     -0.1245
     75  CA        15.4020  -37.3950  -44.8480 C.3   187  MET187      0.1570
     76  C         14.7090  -37.9700  -46.0370 C.2   187  MET187      0.2261
     77  O         15.1040  -39.0220  -46.5210 O.2   187  MET187     -0.2867
     78  CB        16.7100  -36.6520  -45.2310 C.3   187  MET187      0.0387
     79  CG        17.9850  -37.5180  -45.1800 C.3   187  MET187      0.0595
     80  SD        18.8740  -37.3920  -43.5850 S.3   187  MET187     -0.1393
     81  CE        20.4780  -36.7580  -44.1380 C.3   187  MET187      0.0692
     82  N         13.5120  -37.2140  -49.9640 N.3   189  ASP189     -0.1239
     83  CA        13.5500  -36.3960  -51.1690 C.3   189  ASP189      0.1674
     84  C         12.2390  -36.6950  -51.8950 C.2   189  ASP189      0.2266
     85  O         11.9300  -37.8410  -52.1430 O.2   189  ASP189     -0.2867
     86  CB        14.7650  -36.7800  -52.0440 C.3   189  ASP189      0.1410
     87  CG        16.1140  -36.3790  -51.4730 C.2   189  ASP189      0.3668
     88  OD1       16.2960  -35.1900  -51.1590 O.co2 189  ASP189     -0.2456
     89  OD2       17.0080  -37.2400  -51.4020 O.co2 189  ASP189     -0.2456
     90  N         10.7800  -30.2960  -56.8700 N.3   196  TYR196     -0.1241
     91  CA        11.5100  -30.9640  -55.7860 C.3   196  TYR196      0.1605
     92  C         11.0630  -30.4230  -54.4100 C.2   196  TYR196      0.2264
     93  O         10.8140  -29.2120  -54.2720 O.2   196  TYR196     -0.2867
     94  CB        13.0310  -30.7920  -55.9530 C.3   196  TYR196      0.0534
     95  CG        13.8480  -31.2980  -54.7700 C.ar  196  TYR196     -0.0201
     96  CD1       14.2390  -32.6270  -54.6850 C.ar  196  TYR196     -0.0009
     97  CD2       14.2040  -30.4470  -53.7230 C.ar  196  TYR196     -0.0009
     98  CE1       15.0100  -33.0880  -53.6170 C.ar  196  TYR196      0.0417
     99  CE2       14.9490  -30.9030  -52.6360 C.ar  196  TYR196      0.0417
    100  CZ        15.3550  -32.2220  -52.5920 C.ar  196  TYR196      0.1957
    101  OH        16.1100  -32.6610  -51.5370 O.3   196  TYR196     -0.2866
    102  N         11.8900  -31.3470  -49.9130 N.3   198  ASN198     -0.1240
    103  CA        12.4920  -32.2390  -48.9480 C.3   198  ASN198      0.1653
    104  C         11.9220  -32.1460  -47.5610 C.2   198  ASN198      0.2266
    105  O         11.4100  -31.1060  -47.1460 O.2   198  ASN198     -0.2867
    106  CB        13.9780  -32.5020  -49.0510 C.3   198  ASN198      0.1155
    107  CG        14.9550  -31.6290  -48.3260 C.2   198  ASN198      0.2627
    108  OD1       14.7930  -31.1810  -47.1810 O.2   198  ASN198     -0.2716
    109  ND2       16.0200  -31.4420  -49.0970 N.am  198  ASN198     -0.0877
@<TRIPOS>BOND
     1    23    21   ar
     2    21    20    1
     3    21    22   ar
     4    20    19    1
     5    27    26    2
     6    19    16    1
     7     4     3    2
     8    16    15    1
     9    16    17    1
    10    26    25    1
    11     1     2    1
    12    24    17   am
    13    24    25    1
    14     3    15   am
    15     3     2    1
    16    90    91    1
    17    17    18    2
    18    41    42    1
    19    32    33    1
    20     2     5    1
    21    28    25    1
    22    28    29    1
    23    31    29    1
    24    35    34    2
    25    34    33    1
    26    94    91    1
    27    94    95    1
    28    29    30    1
    29    91    92    1
    30    33    36    1
    31    42    43    1
    32    42    45    1
    33     5     6    1
    34    43    44    2
    35    95    96   ar
    36    95    97   ar
    37    96    98   ar
    38    36    37    1
    39    45    46    1
    40     6     7   ar
    41     6     8   ar
    42    92    93    2
    43     7     9   ar
    44    37    38    1
    45     8    11   ar
    46     8    10   ar
    47    11    13   ar
    48    97    99   ar
    49     9    10   ar
    50    98   100   ar
    51    10    12   ar
    52    13    14   ar
    53    46    48   ar
    54    46    47   ar
    55    12    14   ar
    56    38    39   ar
    57    38    40   ar
    58    99   100   ar
    59   100   101    1
    60    48    50   ar
    61    47    49   ar
    62    85    84    2
    63    86    87    1
    64    86    83    1
    65    84    83    1
    66    63    64   ar
    67    63    61   ar
    68    87    89   ar
    69    87    88   ar
    70    64    62   ar
    71    83    82    1
    72    50    49   ar
    73    73    72    1
    74    61    58   ar
    75    72    71    1
    76    62    60   ar
    77   102   103    1
    78    58    60   ar
    79    58    56   ar
    80   109   107   am
    81    60    59   ar
    82   106   103    1
    83   106   107    1
    84    71    70    1
    85   103   104    1
    86    53    52    1
    87    53    54    2
    88    52    55    1
    89    52    51    1
    90    70    69    1
    91    56    55    1
    92    56    57   ar
    93   107   108    2
    94    59    57   ar
    95   104   105    2
    96    69    66    1
    97    65    66    1
    98    77    76    2
    99    66    67    1
   100    76    75    1
   101    78    79    1
   102    78    75    1
   103    79    80    1
   104    75    74    1
   105    67    68    2
   106    81    80    1
