@<TRIPOS>MOLECULE
tmp/3qwuA00.pdb
 125 116 0 0 0
SMALL
GASTEIGER

@<TRIPOS>ATOM
      1  N         44.9780   44.4670   20.9460 N.3    50  TYR50      -0.1241
      2  CA        44.5590   44.7790   19.5720 C.3    50  TYR50       0.1605
      3  C         43.0910   45.0160   19.6650 C.2    50  TYR50       0.2264
      4  O         42.4030   44.2180   20.2720 O.2    50  TYR50      -0.2867
      5  CB        44.8500   43.6510   18.5760 C.3    50  TYR50       0.0534
      6  CG        44.7780   44.1370   17.1670 C.ar   50  TYR50      -0.0201
      7  CD1       43.6520   43.9270   16.3940 C.ar   50  TYR50      -0.0009
      8  CD2       45.8230   44.7910   16.6100 C.ar   50  TYR50      -0.0009
      9  CE1       43.5740   44.3790   15.0780 C.ar   50  TYR50       0.0417
     10  CE2       45.7740   45.2220   15.2880 C.ar   50  TYR50       0.0417
     11  CZ        44.6350   45.0360   14.5470 C.ar   50  TYR50       0.1957
     12  OH        44.6100   45.4630   13.2690 O.3    50  TYR50      -0.2866
     13  N         37.7150   44.9870   15.5610 N.3    53  ILE53      -0.1245
     14  CA        37.2600   45.5310   14.2700 C.3    53  ILE53       0.1561
     15  C         35.7860   45.1620   14.0230 C.2    53  ILE53       0.2260
     16  O         35.4150   44.0110   14.0640 O.2    53  ILE53      -0.2867
     17  CB        38.1010   44.9800   13.1020 C.3    53  ILE53       0.0252
     18  CG1       39.5860   45.0520   13.4520 C.3    53  ILE53       0.0019
     19  CG2       37.7020   45.6750   11.7840 C.3    53  ILE53       0.0019
     20  CD1       40.5510   44.7570   12.2900 C.3    53  ILE53       0.0001
     21  N         42.9710   45.7140    2.5640 N.3    74  GLU74      -0.1231
     22  CA        43.9770   44.6870    2.8720 C.3    74  GLU74       0.1699
     23  C         43.3350   43.2950    2.9920 C.2    74  GLU74       0.2592
     24  O         42.1940   43.1960    3.3690 O.2    74  GLU74      -0.2718
     25  CB        44.6630   44.9910    4.2050 C.3    74  GLU74       0.0402
     26  CG        45.5220   46.1790    4.1290 C.3    74  GLU74       0.1161
     27  CD        46.3120   46.4110    5.4010 C.2    74  GLU74       0.3649
     28  OE1       45.9410   45.9000    6.4840 O.co2  74  GLU74      -0.2457
     29  OE2       47.3310   47.0980    5.2870 O.co2  74  GLU74      -0.2457
     30  N         44.0920   42.2370    2.7010 N.am   75  GLU75      -0.1966
     31  CA        43.5910   40.8850    2.8590 C.3    75  GLU75       0.1733
     32  C         43.5070   40.5480    4.3440 C.2    75  GLU75       0.2616
     33  O         44.4150   40.8500    5.1080 O.2    75  GLU75      -0.2715
     34  CB        44.4650   39.8360    2.1770 C.3    75  GLU75       0.0429
     35  CG        43.9090   38.3950    2.4390 C.3    75  GLU75       0.1163
     36  CD        44.7860   37.2550    1.8910 C.2    75  GLU75       0.3649
     37  OE1       45.8640   37.5510    1.3610 O.co2  75  GLU75      -0.2457
     38  OE2       44.3930   36.0700    1.9890 O.co2  75  GLU75      -0.2457
     39  N         42.3890   39.9350    4.7140 N.am   76  LYS76      -0.1963
     40  CA        42.1910   39.4100    6.0260 C.3    76  LYS76       0.1728
     41  C         42.6230   37.9160    5.9900 C.2    76  LYS76       0.2616
     42  O         42.0610   37.0610    5.2790 O.2    76  LYS76      -0.2715
     43  CB        40.7200   39.5790    6.4780 C.3    76  LYS76       0.0311
     44  CG        40.6100   39.3980    7.9880 C.3    76  LYS76       0.0038
     45  CD        39.2220   39.3520    8.5680 C.3    76  LYS76       0.0206
     46  CE        39.2770   38.7260   10.0480 C.3    76  LYS76       0.1093
     47  NZ        40.3260   37.5580   10.2820 N.3    76  LYS76      -0.1314
     48  N         43.6970   37.6260    6.6930 N.am   77  VAL77      -0.1977
     49  CA        44.3010   36.3010    6.6500 C.3    77  VAL77       0.1596
     50  C         43.7540   35.5380    7.8590 C.2    77  VAL77       0.2287
     51  O         43.7100   36.0430    8.9930 O.2    77  VAL77      -0.2864
     52  CB        45.8630   36.3730    6.7030 C.3    77  VAL77       0.0276
     53  CG1       46.4380   34.9840    6.9540 C.3    77  VAL77       0.0022
     54  CG2       46.4250   36.9410    5.4280 C.3    77  VAL77       0.0022
     55  N         46.0160   36.1300   15.7710 N.3    81  ASN81      -0.1240
     56  CA        46.5790   37.4290   15.9740 C.3    81  ASN81       0.1653
     57  C         47.7910   37.3470   16.8860 C.2    81  ASN81       0.2266
     58  O         47.7910   36.6290   17.9180 O.2    81  ASN81      -0.2867
     59  CB        45.5070   38.2670   16.6500 C.3    81  ASN81       0.1155
     60  CG        45.9410   39.6480   16.9090 C.2    81  ASN81       0.2627
     61  OD1       46.6930   39.9160   17.8550 O.2    81  ASN81      -0.2716
     62  ND2       45.4110   40.5680   16.1300 N.am   81  ASN81      -0.0877
     63  N         46.0800   37.0630   21.3720 N.3    96  ARG96      -0.1245
     64  CA        45.1060   38.1230   21.4260 C.3    96  ARG96       0.1563
     65  C         44.7110   38.3320   22.8480 C.2    96  ARG96       0.2260
     66  O         44.4490   39.4850   23.2530 O.2    96  ARG96      -0.2867
     67  CB        43.8760   37.7840   20.5870 C.3    96  ARG96       0.0307
     68  CG        42.8610   38.8980   20.5390 C.3    96  ARG96       0.0489
     69  CD        43.1300   40.0590   19.5520 C.3    96  ARG96       0.2205
     70  NE        41.8530   40.3060   18.8510 N.pl3  96  ARG96      -0.0865
     71  CZ        41.1270   41.4260   18.8430 C.cat  96  ARG96       0.5346
     72  NH1       41.5350   42.5180   19.4410 N.pl3  96  ARG96       0.1354
     73  NH2       39.9700   41.4580   18.1900 N.pl3  96  ARG96       0.1354
     74  N         49.3530   38.3820   11.6550 N.3   128  GLU128     -0.1245
     75  CA        48.6300   37.1090   11.6700 C.3   128  GLU128      0.1567
     76  C         49.6240   35.9860   11.4530 C.2   128  GLU128      0.2260
     77  O         50.4030   36.0390   10.4990 O.2   128  GLU128     -0.2867
     78  CB        47.6300   37.0710   10.5280 C.3   128  GLU128      0.0388
     79  CG        46.4850   36.0810   10.7370 C.3   128  GLU128      0.1160
     80  CD        45.4660   36.5310   11.8020 C.2   128  GLU128      0.3649
     81  OE1       45.6770   37.6210   12.3570 O.co2 128  GLU128     -0.2457
     82  OE2       44.4830   35.7970   12.0700 O.co2 128  GLU128     -0.2457
     83  N         50.2650   43.1680    9.4620 N.3   153  PHE153     -0.1241
     84  CA        49.1690   44.0180    9.0110 C.3   153  PHE153      0.1605
     85  C         49.0780   45.3330    9.7960 C.2   153  PHE153      0.2264
     86  O         48.2970   46.2440    9.4280 O.2   153  PHE153     -0.2867
     87  CB        47.8250   43.2610    9.0930 C.3   153  PHE153      0.0534
     88  CG        47.4630   42.7650   10.4660 C.ar  153  PHE153     -0.0203
     89  CD1       47.0700   43.6200   11.4570 C.ar  153  PHE153     -0.0042
     90  CD2       47.5320   41.4210   10.7770 C.ar  153  PHE153     -0.0042
     91  CE1       46.7670   43.0950   12.7490 C.ar  153  PHE153     -0.0003
     92  CE2       47.2400   40.9470   12.0490 C.ar  153  PHE153     -0.0003
     93  CZ        46.8790   41.7810   13.0230 C.ar  153  PHE153     -0.0000
     94  N         50.4450   41.3360    4.7720 N.3   181  VAL181     -0.1245
     95  CA        49.1590   40.9320    4.1790 C.3   181  VAL181      0.1561
     96  C         49.1390   41.5660    2.8020 C.2   181  VAL181      0.2260
     97  O         49.8090   42.5780    2.6030 O.2   181  VAL181     -0.2867
     98  CB        47.9610   41.3780    5.0760 C.3   181  VAL181      0.0252
     99  CG1       47.9680   40.5980    6.4130 C.3   181  VAL181      0.0019
    100  CG2       47.9970   42.8850    5.3700 C.3   181  VAL181      0.0019
    101  N         40.1370   43.5850    5.2030 N.3   213  VAL213     -0.1245
    102  CA        39.9620   44.6720    6.1960 C.3   213  VAL213      0.1561
    103  C         40.0860   46.0240    5.5440 C.2   213  VAL213      0.2260
    104  O         41.0210   46.2750    4.8300 O.2   213  VAL213     -0.2867
    105  CB        41.0190   44.6100    7.3190 C.3   213  VAL213      0.0252
    106  CG1       40.7250   45.6500    8.4050 C.3   213  VAL213      0.0019
    107  CG2       41.0450   43.2450    7.9210 C.3   213  VAL213      0.0019
    108  N         40.6560   50.0820    5.8810 N.3   215  LYS215     -0.1245
    109  CA        41.3950   51.0110    6.8070 C.3   215  LYS215      0.1561
    110  C         41.4260   52.4480    6.3160 C.2   215  LYS215      0.2260
    111  O         42.1120   52.7660    5.3580 O.2   215  LYS215     -0.2867
    112  CB        42.8240   50.5450    7.0450 C.3   215  LYS215      0.0271
    113  CG        42.8660   49.0810    7.4360 C.3   215  LYS215      0.0035
    114  CD        44.1760   48.5630    8.0110 C.3   215  LYS215      0.0206
    115  CE        44.0290   47.0450    8.3560 C.3   215  LYS215      0.1093
    116  NZ        45.3120   46.3830    8.8150 N.3   215  LYS215     -0.1314
    117  N         35.7200   45.1960    8.6630 N.3   225  LYS225     -0.1245
    118  CA        36.0640   43.9660    7.9530 C.3   225  LYS225      0.1561
    119  C         34.8360   43.3460    7.2820 C.2   225  LYS225      0.2260
    120  O         33.6870   43.5220    7.7430 O.2   225  LYS225     -0.2867
    121  CB        36.7120   42.9580    8.8960 C.3   225  LYS225      0.0271
    122  CG        35.8330   42.5000   10.0700 C.3   225  LYS225      0.0035
    123  CD        36.5640   41.3540   10.8590 C.3   225  LYS225      0.0206
    124  CE        36.3410   41.4200   12.3750 C.3   225  LYS225      0.1093
    125  NZ        35.0120   40.9790   12.8800 N.3   225  LYS225     -0.1314
@<TRIPOS>BOND
     1    37    36   ar
     2    36    38   ar
     3    36    35    1
     4    34    35    1
     5    34    31    1
     6    21    22    1
     7    97    96    2
     8    30    31    1
     9    30    23   am
    10    96    95    1
    11    31    32    1
    12    22    23    1
    13    22    25    1
    14    23    24    2
    15    26    25    1
    16    26    27    1
    17    95    94    1
    18    95    98    1
    19    32    39   am
    20    32    33    2
    21    39    40    1
    22   104   103    2
    23    98   100    1
    24    98    99    1
    25   101   102    1
    26    42    41    2
    27    29    27   ar
    28   111   110    2
    29    27    28   ar
    30    54    52    1
    31   103   102    1
    32   108   109    1
    33    41    40    1
    34    41    48   am
    35    40    43    1
    36   102   105    1
    37   110   109    1
    38    43    44    1
    39    49    48    1
    40    49    52    1
    41    49    50    1
    42    52    53    1
    43   109   112    1
    44   112   113    1
    45   119   120    2
    46   119   118    1
    47   105   107    1
    48   105   106    1
    49   113   114    1
    50    50    51    2
    51   118   117    1
    52   118   121    1
    53    44    45    1
    54   114   115    1
    55   115   116    1
    56    45    46    1
    57   121   122    1
    58    84    87    1
    59    84    83    1
    60    84    85    1
    61    87    88    1
    62    86    85    2
    63    46    47    1
    64   122   123    1
    65    88    90   ar
    66    88    89   ar
    67    77    76    2
    68    78    79    1
    69    78    75    1
    70    79    80    1
    71    90    92   ar
    72   123   124    1
    73    76    75    1
    74    89    91   ar
    75    74    75    1
    76    19    17    1
    77    80    82   ar
    78    80    81   ar
    79    92    93   ar
    80    20    18    1
    81   124   125    1
    82    91    93   ar
    83    17    18    1
    84    17    14    1
    85    12    11    1
    86    15    16    2
    87    15    14    1
    88    14    13    1
    89    11     9   ar
    90    11    10   ar
    91     9     7   ar
    92    10     8   ar
    93    55    56    1
    94    56    59    1
    95    56    57    1
    96    62    60   am
    97     7     6   ar
    98     8     6   ar
    99    59    60    1
   100    57    58    2
   101    60    61    2
   102     6     5    1
   103    73    71    1
   104     5     2    1
   105    71    70    2
   106    71    72    1
   107    70    69    1
   108    69    68    1
   109     2     3    1
   110     2     1    1
   111     3     4    2
   112    68    67    1
   113    67    64    1
   114    63    64    1
   115    64    65    1
   116    65    66    2
