@<TRIPOS>MOLECULE
tmp/3qwwA00.pdb
 176 174 0 0 0
SMALL
GASTEIGER

@<TRIPOS>ATOM
      1  N         -7.2900   29.1710   48.5520 N.3    14  GLY14      -0.1210
      2  CA        -5.9660   28.9030   48.0060 C.3    14  GLY14       0.1956
      3  C         -4.8520   29.1060   49.0160 C.2    14  GLY14       0.2612
      4  O         -3.6990   28.8340   48.7020 O.2    14  GLY14      -0.2717
      5  N         -5.1770   29.5670   50.2450 N.am   15  LYS15      -0.1965
      6  CA        -4.1650   29.8080   51.3020 C.3    15  LYS15       0.1728
      7  C         -4.5460   29.1650   52.6310 C.2    15  LYS15       0.2617
      8  O         -4.1030   29.6340   53.6860 O.2    15  LYS15      -0.2715
      9  CB        -3.9830   31.3260   51.5530 C.3    15  LYS15       0.0311
     10  CG        -3.5120   32.1040   50.3470 C.3    15  LYS15       0.0038
     11  CD        -3.4540   33.5870   50.6870 C.3    15  LYS15       0.0206
     12  CE        -3.0500   34.4480   49.5090 C.3    15  LYS15       0.1093
     13  NZ        -4.1480   34.5280   48.5110 N.3    15  LYS15      -0.1314
     14  N         -5.3950   28.1420   52.5940 N.am   16  GLY16      -0.1940
     15  CA        -5.8270   27.4560   53.8080 C.3    16  GLY16       0.2014
     16  C         -6.5650   28.3530   54.7690 C.2    16  GLY16       0.2638
     17  O         -7.5190   29.0390   54.3810 O.2    16  GLY16      -0.2714
     18  N         -6.1390   28.3540   56.0330 N.am   17  ARG17      -0.1977
     19  CA        -6.7830   29.1710   57.0580 C.3    17  ARG17       0.1597
     20  C         -5.9820   30.4680   57.1630 C.2    17  ARG17       0.2287
     21  O         -4.7680   30.4540   56.9330 O.2    17  ARG17      -0.2864
     22  CB        -6.8280   28.4500   58.4220 C.3    17  ARG17       0.0334
     23  CG        -7.4870   27.0520   58.3130 C.3    17  ARG17       0.0492
     24  CD        -7.0500   26.1260   59.4440 C.3    17  ARG17       0.2205
     25  NE        -5.6150   25.8330   59.3730 N.pl3  17  ARG17      -0.0865
     26  CZ        -5.0220   24.8460   60.0300 C.cat  17  ARG17       0.5346
     27  NH1       -5.7450   23.9860   60.7510 N.pl3  17  ARG17       0.1354
     28  NH2       -3.7070   24.6830   59.9430 N.pl3  17  ARG17       0.1354
     29  N         -5.4870   29.5480   66.6490 N.3   127  LEU127     -0.1245
     30  CA        -4.8340   28.4170   66.0090 C.3   127  LEU127      0.1561
     31  C         -3.9930   27.6280   67.0440 C.2   127  LEU127      0.2260
     32  O         -3.1360   28.2150   67.7090 O.2   127  LEU127     -0.2867
     33  CB        -3.9350   28.9080   64.8520 C.3   127  LEU127      0.0270
     34  CG        -3.2430   27.8070   64.0400 C.3   127  LEU127      0.0019
     35  CD1       -4.2830   26.9770   63.2730 C.3   127  LEU127      0.0001
     36  CD2       -2.2280   28.4340   63.0350 C.3   127  LEU127      0.0001
     37  N          0.0000   23.2470   59.9850 N.3   133  GLU133     -0.1245
     38  CA         0.2860   22.5930   58.7120 C.3   133  GLU133      0.1567
     39  C          1.6920   22.0120   58.7750 C.2   133  GLU133      0.2260
     40  O          2.5900   22.5960   59.4020 O.2   133  GLU133     -0.2867
     41  CB         0.2060   23.5960   57.5470 C.3   133  GLU133      0.0388
     42  CG        -1.2050   24.0130   57.2000 C.3   133  GLU133      0.1160
     43  CD        -1.3760   24.4500   55.7610 C.2   133  GLU133      0.3649
     44  OE1       -0.6850   25.4110   55.3520 O.co2 133  GLU133     -0.2457
     45  OE2       -2.2420   23.8770   55.0580 O.co2 133  GLU133     -0.2457
     46  N          2.8510   19.8760   55.7240 N.3   135  HIS135     -0.1241
     47  CA         3.2570   19.6650   54.3200 C.3   135  HIS135      0.1621
     48  C          4.1470   18.4080   54.1310 C.2   135  HIS135      0.2264
     49  O          5.0640   18.4260   53.3060 O.2   135  HIS135     -0.2867
     50  CB         3.9700   20.9200   53.7660 C.3   135  HIS135      0.0745
     51  CG         3.1080   22.1410   53.7450 C.ar  135  HIS135      0.0817
     52  ND1        1.9600   22.1920   52.9840 N.ar  135  HIS135     -0.2268
     53  CD2        3.2770   23.3330   54.3600 C.ar  135  HIS135      0.1154
     54  CE1        1.4400   23.3950   53.1880 C.ar  135  HIS135      0.1986
     55  NE2        2.1920   24.1100   54.0210 N.ar  135  HIS135     -0.2212
     56  N          7.3930   25.2190   59.0680 N.3   179  CYS179     -0.1221
     57  CA         6.5050   26.1670   58.3740 C.3   179  CYS179      0.1808
     58  C          5.6740   27.0590   59.2810 C.2   179  CYS179      0.2601
     59  O          4.8100   27.7980   58.7870 O.2   179  CYS179     -0.2717
     60  CB         5.6590   25.4930   57.2930 C.3   179  CYS179      0.0970
     61  SG         4.6070   24.1800   57.9110 S.3   179  CYS179     -0.0800
     62  N          5.9600   27.0410   60.6080 N.am  180  ASN180     -0.1974
     63  CA         5.2050   27.8700   61.5420 C.3   180  ASN180      0.1688
     64  C          6.0720   28.5320   62.6170 C.2   180  ASN180      0.2292
     65  O          5.5180   29.1980   63.4750 O.2   180  ASN180     -0.2864
     66  CB         4.1060   27.0750   62.2160 C.3   180  ASN180      0.1181
     67  CG         3.0840   26.5620   61.2440 C.2   180  ASN180      0.2629
     68  OD1        2.2190   27.3010   60.8130 O.2   180  ASN180     -0.2716
     69  ND2        3.2610   25.3080   60.8030 N.am  180  ASN180     -0.0877
     70  N          1.1460   32.4000   63.8370 N.3   201  ALA201     -0.1231
     71  CA         1.3310   31.4410   62.7250 C.3   201  ALA201      0.1694
     72  C          0.1000   31.3380   61.8000 C.2   201  ALA201      0.2592
     73  O          0.1850   30.7960   60.6930 O.2   201  ALA201     -0.2718
     74  CB         1.7130   30.0440   63.2610 C.3   201  ALA201      0.0304
     75  N         -1.0500   31.8280   62.2610 N.am  202  LEU202     -0.1966
     76  CA        -2.2640   31.8190   61.4330 C.3   202  LEU202      0.1728
     77  C         -2.1550   32.8090   60.2700 C.2   202  LEU202      0.2616
     78  O         -2.7620   32.5880   59.2230 O.2   202  LEU202     -0.2715
     79  CB        -3.4580   32.1870   62.3180 C.3   202  LEU202      0.0311
     80  CG        -4.8680   32.2360   61.6670 C.3   202  LEU202      0.0022
     81  CD1       -5.2440   30.8940   60.9860 C.3   202  LEU202      0.0001
     82  CD2       -5.9180   32.6300   62.7150 C.3   202  LEU202      0.0001
     83  N         -1.3950   33.9260   60.4480 N.am  203  MET203     -0.1963
     84  CA        -1.3850   34.9010   59.3580 C.3   203  MET203      0.1736
     85  C         -0.6560   34.3890   58.1270 C.2   203  MET203      0.2616
     86  O          0.4700   33.8750   58.2220 O.2   203  MET203     -0.2715
     87  CB        -0.7550   36.2070   59.8310 C.3   203  MET203      0.0427
     88  CG        -1.6080   36.9460   60.8390 C.3   203  MET203      0.0599
     89  SD        -0.8200   38.4650   61.4290 S.3   203  MET203     -0.1393
     90  CE         0.4860   37.8220   62.4710 C.3   203  MET203      0.0692
     91  N         -1.2720   34.5900   56.9670 N.am  204  ASN204     -0.1958
     92  CA        -0.6630   34.2470   55.6840 C.3   204  ASN204      0.1819
     93  C          0.3530   35.2990   55.2710 C.2   204  ASN204      0.2621
     94  O          0.4450   36.3300   55.9100 O.2   204  ASN204     -0.2715
     95  CB        -1.7410   34.0210   54.6210 C.3   204  ASN204      0.1195
     96  CG        -2.4580   32.7020   54.8730 C.2   204  ASN204      0.2630
     97  OD1       -1.8300   31.6400   55.0010 O.2   204  ASN204     -0.2716
     98  ND2       -3.7800   32.7330   54.9200 N.am  204  ASN204     -0.0877
     99  N          1.1240   35.0120   54.2160 N.am  205  HIS205     -0.1973
    100  CA         2.1980   35.8690   53.7250 C.3   205  HIS205      0.1656
    101  C          1.7810   36.7540   52.5780 C.2   205  HIS205      0.2291
    102  O          1.0450   36.3310   51.6800 O.2   205  HIS205     -0.2864
    103  CB         3.3800   34.9970   53.2470 C.3   205  HIS205      0.0771
    104  CG         4.4090   35.7670   52.4590 C.ar  205  HIS205      0.0820
    105  ND1        5.3920   36.4970   53.1030 N.ar  205  HIS205     -0.2267
    106  CD2        4.4860   36.0210   51.1240 C.ar  205  HIS205      0.1154
    107  CE1        6.0940   37.0950   52.1470 C.ar  205  HIS205      0.1986
    108  NE2        5.5510   36.8900   50.9440 N.ar  205  HIS205     -0.2212
    109  N          6.8670   36.7090   55.5540 N.3   238  TYR238     -0.1241
    110  CA         7.6240   35.6280   56.2010 C.3   238  TYR238      0.1605
    111  C          9.1240   35.7810   55.9050 C.2   238  TYR238      0.2264
    112  O          9.9400   35.0640   56.4750 O.2   238  TYR238     -0.2867
    113  CB         7.1930   34.2900   55.5740 C.3   238  TYR238      0.0534
    114  CG         5.7860   33.7860   55.8500 C.ar  238  TYR238     -0.0201
    115  CD1        4.8750   34.5410   56.6010 C.ar  238  TYR238     -0.0009
    116  CD2        5.3680   32.5490   55.3680 C.ar  238  TYR238     -0.0009
    117  CE1        3.5720   34.0760   56.8420 C.ar  238  TYR238      0.0417
    118  CE2        4.0960   32.0550   55.6460 C.ar  238  TYR238      0.0417
    119  CZ         3.2020   32.8180   56.3790 C.ar  238  TYR238      0.1957
    120  OH         1.9650   32.3010   56.6480 O.3   238  TYR238     -0.2866
    121  N          8.0380   27.1310   52.9080 N.3   256  TYR256     -0.1227
    122  CA         6.5960   27.1980   53.1380 C.3   256  TYR256      0.1736
    123  C          5.7300   26.5210   52.1070 C.2   256  TYR256      0.2595
    124  O          4.4990   26.5350   52.2300 O.2   256  TYR256     -0.2718
    125  CB         6.1690   28.6720   53.3140 C.3   256  TYR256      0.0548
    126  CG         6.8290   29.3310   54.5090 C.ar  256  TYR256     -0.0200
    127  CD1        6.3310   29.1420   55.8000 C.ar  256  TYR256     -0.0009
    128  CD2        7.9770   30.1070   54.3590 C.ar  256  TYR256     -0.0009
    129  CE1        6.9480   29.7160   56.9050 C.ar  256  TYR256      0.0417
    130  CE2        8.6170   30.6750   55.4700 C.ar  256  TYR256      0.0417
    131  CZ         8.0950   30.4730   56.7400 C.ar  256  TYR256      0.1957
    132  OH         8.6480   31.0380   57.8620 O.3   256  TYR256     -0.2866
    133  N          6.3610   25.9450   51.0910 N.am  257  PHE257     -0.1962
    134  CA         5.6880   25.1340   50.0700 C.3   257  PHE257      0.1771
    135  C          4.5780   25.8430   49.3150 C.2   257  PHE257      0.2620
    136  O          3.4860   25.2880   49.1460 O.2   257  PHE257     -0.2715
    137  CB         5.2440   23.7560   50.6500 C.3   257  PHE257      0.0574
    138  CG         6.3800   23.0940   51.3900 C.ar  257  PHE257     -0.0200
    139  CD1        7.3950   22.4440   50.6980 C.ar  257  PHE257     -0.0042
    140  CD2        6.4890   23.2080   52.7670 C.ar  257  PHE257     -0.0042
    141  CE1        8.4840   21.8980   51.3730 C.ar  257  PHE257     -0.0003
    142  CE2        7.5870   22.6690   53.4430 C.ar  257  PHE257     -0.0003
    143  CZ         8.5750   22.0250   52.7380 C.ar  257  PHE257     -0.0000
    144  N          4.8210   27.1110   48.9160 N.am  258  PHE258     -0.1960
    145  CA         3.8510   27.8450   48.1060 C.3   258  PHE258      0.1771
    146  C          4.5880   28.8860   47.2900 C.2   258  PHE258      0.2620
    147  O          5.6720   29.3150   47.6830 O.2   258  PHE258     -0.2715
    148  CB         2.7330   28.5330   48.9380 C.3   258  PHE258      0.0574
    149  CG         3.1500   29.7920   49.6800 C.ar  258  PHE258     -0.0200
    150  CD1        3.6880   29.7170   50.9580 C.ar  258  PHE258     -0.0042
    151  CD2        3.0080   31.0510   49.0930 C.ar  258  PHE258     -0.0042
    152  CE1        4.0550   30.8860   51.6530 C.ar  258  PHE258     -0.0003
    153  CE2        3.4060   32.2130   49.7720 C.ar  258  PHE258     -0.0003
    154  CZ         3.9300   32.1190   51.0430 C.ar  258  PHE258     -0.0000
    155  N          3.9590   29.3300   46.2200 N.am  259  THR259     -0.1937
    156  CA         4.4290   30.4250   45.3760 C.3   259  THR259      0.2028
    157  C          3.5300   31.6290   45.6440 C.2   259  THR259      0.2642
    158  O          2.2970   31.5220   45.5730 O.2   259  THR259     -0.2714
    159  CB         4.3720   30.0280   43.8960 C.3   259  THR259      0.1808
    160  OG1        5.3220   28.9770   43.6870 O.3   259  THR259     -0.2208
    161  CG2        4.6850   31.2320   42.9720 C.3   259  THR259      0.0379
    162  N          4.1370   32.7730   45.9670 N.am  260  CYS260     -0.1953
    163  CA         3.3690   33.9730   46.2540 C.3   260  CYS260      0.1843
    164  C          2.7580   34.5720   44.9860 C.2   260  CYS260      0.2625
    165  O          3.4330   34.6540   43.9730 O.2   260  CYS260     -0.2714
    166  CB         4.2280   35.0060   46.9810 C.3   260  CYS260      0.0997
    167  SG         3.3010   36.4380   47.5620 S.3   260  CYS260     -0.0797
    168  N          1.5220   35.0510   45.0770 N.am  261  GLU261     -0.1977
    169  CA         0.8180   35.6950   43.9620 C.3   261  GLU261      0.1602
    170  C          0.4020   37.1320   44.3050 C.2   261  GLU261      0.2287
    171  O         -0.5620   37.6540   43.7300 O.2   261  GLU261     -0.2864
    172  CB        -0.4100   34.8480   43.5370 C.3   261  GLU261      0.0415
    173  CG        -0.0390   33.5460   42.8490 C.3   261  GLU261      0.1163
    174  CD        -1.2540   32.7820   42.3570 C.2   261  GLU261      0.3649
    175  OE1       -1.7950   33.1430   41.2860 O.co2 261  GLU261     -0.2457
    176  OE2       -1.6940   31.8490   43.0670 O.co2 261  GLU261     -0.2457
@<TRIPOS>BOND
     1   175   174   ar
     2   174   173    1
     3   174   176   ar
     4   173   172    1
     5   161   159    1
     6   172   169    1
     7   160   159    1
     8   171   170    2
     9   159   156    1
    10   169   170    1
    11   169   168    1
    12   165   164    2
    13   164   168   am
    14   164   163    1
    15   156   157    1
    16   156   155    1
    17   158   157    2
    18   157   162   am
    19   162   163    1
    20   155   146   am
    21   163   166    1
    22   166   167    1
    23   146   147    2
    24   146   145    1
    25     2     1    1
    26     2     3    1
    27   145   144    1
    28   145   148    1
    29    13    12    1
    30     4     3    2
    31   144   135   am
    32   148   149    1
    33     3     5   am
    34   151   149   ar
    35   151   153   ar
    36   136   135    2
    37   135   134    1
    38    12    11    1
    39   149   150   ar
    40   153   154   ar
    41   134   137    1
    42   134   133    1
    43     5     6    1
    44    10    11    1
    45    10     9    1
    46   137   138    1
    47   139   141   ar
    48   139   138   ar
    49   108   106   ar
    50   108   107   ar
    51   150   152   ar
    52   154   152   ar
    53   133   123   am
    54   106   104   ar
    55     6     9    1
    56     6     7    1
    57   141   143   ar
    58   138   140   ar
    59   102   101    2
    60   123   124    2
    61   123   122    1
    62   107   105   ar
    63   104   105   ar
    64   104   103    1
    65   101   100    1
    66    14     7   am
    67    14    15    1
    68     7     8    2
    69   143   142   ar
    70   140   142   ar
    71   121   122    1
    72    52    54   ar
    73    52    51   ar
    74   122   125    1
    75    54    55   ar
    76   103   100    1
    77    49    48    2
    78   125   126    1
    79   100    99    1
    80    51    50    1
    81    51    53   ar
    82    50    47    1
    83    15    16    1
    84    55    53   ar
    85    48    47    1
    86    99    93   am
    87    47    46    1
    88   128   126   ar
    89   128   130   ar
    90    17    16    2
    91   126   127   ar
    92    95    96    1
    93    95    92    1
    94    16    18   am
    95    96    98   am
    96    96    97    2
    97    45    43   ar
    98    93    92    1
    99    93    94    2
   100    44    43   ar
   101   116   118   ar
   102   116   114   ar
   103   130   131   ar
   104   109   110    1
   105   113   114    1
   106   113   110    1
   107   118   119   ar
   108    92    91    1
   109    43    42    1
   110   127   129   ar
   111   114   115   ar
   112   111   110    1
   113   111   112    2
   114    18    19    1
   115   119   120    1
   116   119   117   ar
   117   115   117   ar
   118   131   129   ar
   119   131   132    1
   120    21    20    2
   121    91    85   am
   122    19    20    1
   123    19    22    1
   124    42    41    1
   125    60    61    1
   126    60    57    1
   127    41    38    1
   128    85    86    2
   129    85    84    1
   130    23    22    1
   131    23    24    1
   132    57    56    1
   133    57    58    1
   134    38    39    1
   135    38    37    1
   136    39    40    2
   137    59    58    2
   138    78    77    2
   139    58    62   am
   140    84    87    1
   141    84    83    1
   142    25    24    1
   143    25    26    2
   144    87    88    1
   145    28    26    1
   146    26    27    1
   147    77    83   am
   148    77    76    1
   149    62    63    1
   150    73    72    2
   151    69    67   am
   152    68    67    2
   153    88    89    1
   154    81    80    1
   155    67    66    1
   156    89    90    1
   157    76    75    1
   158    76    79    1
   159    63    66    1
   160    63    64    1
   161    80    79    1
   162    80    82    1
   163    72    75   am
   164    72    71    1
   165    64    65    2
   166    71    74    1
   167    71    70    1
   168    36    34    1
   169    35    34    1
   170    34    33    1
   171    33    30    1
   172    30    29    1
   173    30    31    1
   174    31    32    2
