@<TRIPOS>MOLECULE
tmp/3qx2A00.pdb
 193 185 0 0 0
SMALL
GASTEIGER

@<TRIPOS>ATOM
      1  N         80.7800   25.6050   74.4980 N.3     8  GLU8       -0.1231
      2  CA        80.4160   24.4230   73.7240 C.3     8  GLU8        0.1699
      3  C         81.2450   24.3030   72.4560 C.2     8  GLU8        0.2592
      4  O         81.8190   25.2800   71.9780 O.2     8  GLU8       -0.2718
      5  CB        78.9460   24.4690   73.2980 C.3     8  GLU8        0.0402
      6  CG        77.9370   24.5150   74.4160 C.3     8  GLU8        0.1161
      7  CD        76.5820   24.0120   73.9680 C.2     8  GLU8        0.3649
      8  OE1       76.0890   24.4880   72.9180 O.co2   8  GLU8       -0.2457
      9  OE2       76.0140   23.1400   74.6660 O.co2   8  GLU8       -0.2457
     10  N         81.3000   23.0940   71.9140 N.am    9  LYS9       -0.1966
     11  CA        82.0060   22.8740   70.6680 C.3     9  LYS9        0.1728
     12  C         80.9390   23.1070   69.6080 C.2     9  LYS9        0.2616
     13  O         79.8730   22.4850   69.6400 O.2     9  LYS9       -0.2715
     14  CB        82.5350   21.4390   70.5830 C.3     9  LYS9        0.0311
     15  CG        83.1950   21.1030   69.2530 C.3     9  LYS9        0.0038
     16  CD        83.8400   19.7140   69.2610 C.3     9  LYS9        0.0206
     17  CE        84.9970   19.6420   70.2530 C.3     9  LYS9        0.1093
     18  NZ        85.6780   18.3160   70.2320 N.3     9  LYS9       -0.1314
     19  N         81.2050   24.0230   68.6890 N.am   10  ILE10      -0.1963
     20  CA        80.2500   24.3190   67.6340 C.3    10  ILE10       0.1727
     21  C         80.4160   23.3300   66.4900 C.2    10  ILE10       0.2617
     22  O         79.4670   23.0410   65.7580 O.2    10  ILE10      -0.2715
     23  CB        80.4410   25.7570   67.1010 C.3    10  ILE10       0.0290
     24  CG1       79.9390   26.7650   68.1380 C.3    10  ILE10       0.0022
     25  CG2       79.7040   25.9290   65.7910 C.3    10  ILE10       0.0023
     26  CD1       80.2860   28.2020   67.8170 C.3    10  ILE10       0.0001
     27  N         81.6300   22.8130   66.3360 N.am   11  GLY11      -0.1940
     28  CA        81.8810   21.8610   65.2780 C.3    11  GLY11       0.2014
     29  C         83.3380   21.7280   64.8930 C.2    11  GLY11       0.2639
     30  O         84.2230   22.3370   65.4950 O.2    11  GLY11      -0.2714
     31  N         83.5720   20.9060   63.8780 N.am   12  GLU12      -0.1963
     32  CA        84.9040   20.6500   63.3600 C.3    12  GLU12       0.1733
     33  C         85.0090   21.4140   62.0500 C.2    12  GLU12       0.2616
     34  O         84.6800   20.8920   60.9840 O.2    12  GLU12      -0.2715
     35  CB        85.0860   19.1490   63.1280 C.3    12  GLU12       0.0429
     36  CG        84.8420   18.3040   64.3820 C.3    12  GLU12       0.1163
     37  CD        84.7520   16.8140   64.0870 C.2    12  GLU12       0.3649
     38  OE1       83.8370   16.4000   63.3390 O.co2  12  GLU12      -0.2457
     39  OE2       85.5960   16.0540   64.6050 O.co2  12  GLU12      -0.2457
     40  N         85.4600   22.6610   62.1480 N.am   13  GLY13      -0.1955
     41  CA        85.5860   23.5190   60.9840 C.3    13  GLY13       0.1869
     42  C         86.3420   22.9440   59.8040 C.2    13  GLY13       0.2309
     43  O         86.7460   21.7770   59.8010 O.2    13  GLY13      -0.2863
     44  N         86.0270   24.6720   66.3110 N.3    18  VAL18      -0.1245
     45  CA        85.3940   25.9450   66.6230 C.3    18  VAL18       0.1561
     46  C         84.5820   25.7860   67.8950 C.2    18  VAL18       0.2260
     47  O         83.7830   24.8610   68.0170 O.2    18  VAL18      -0.2867
     48  CB        84.4280   26.4160   65.5310 C.3    18  VAL18       0.0252
     49  CG1       84.0010   27.8710   65.8300 C.3    18  VAL18       0.0019
     50  CG2       85.0870   26.3300   64.1720 C.3    18  VAL18       0.0019
     51  N         82.1620   27.7970   71.0270 N.3    20  LYS20      -0.1245
     52  CA        81.3910   28.9600   71.4500 C.3    20  LYS20       0.1561
     53  C         82.1670   29.2110   72.7470 C.2    20  LYS20       0.2260
     54  O         82.4390   28.2590   73.4950 O.2    20  LYS20      -0.2867
     55  CB        79.9510   28.5820   71.7990 C.3    20  LYS20       0.0271
     56  CG        79.1580   29.7290   72.4360 C.3    20  LYS20       0.0035
     57  CD        77.7150   29.3220   72.6880 C.3    20  LYS20       0.0206
     58  CE        76.8720   30.4970   73.1790 C.3    20  LYS20       0.1093
     59  NZ        75.4450   30.0700   73.3220 N.3    20  LYS20      -0.1314
     60  N         82.7330   33.1850   68.8490 N.3    31  ALA31      -0.1245
     61  CA        83.0520   31.9050   68.2190 C.3    31  ALA31       0.1562
     62  C         84.5750   31.9520   68.1230 C.2    31  ALA31       0.2260
     63  O         85.1600   32.9240   67.6140 O.2    31  ALA31      -0.2867
     64  CB        82.4330   31.8030   66.8300 C.3    31  ALA31       0.0290
     65  N         87.8790   29.9990   66.6970 N.3    33  LYS33      -0.1245
     66  CA        88.3680   28.9690   65.7770 C.3    33  LYS33       0.1561
     67  C         89.8430   28.7190   66.0410 C.2    33  LYS33       0.2260
     68  O         90.6160   29.6620   66.1290 O.2    33  LYS33      -0.2867
     69  CB        88.2530   29.4220   64.3240 C.3    33  LYS33       0.0271
     70  CG        86.8710   29.6110   63.7560 C.3    33  LYS33       0.0035
     71  CD        87.0300   29.9080   62.2460 C.3    33  LYS33       0.0206
     72  CE        85.7040   29.9850   61.5010 C.3    33  LYS33       0.1093
     73  NZ        84.7860   31.0180   62.0770 N.3    33  LYS33      -0.1314
     74  N         80.0330   38.3510   59.0100 N.3    60  VAL60      -0.1245
     75  CA        80.3500   37.9730   60.3930 C.3    60  VAL60       0.1561
     76  C         81.6360   38.7130   60.7780 C.2    60  VAL60       0.2260
     77  O         82.6600   38.5740   60.1270 O.2    60  VAL60      -0.2867
     78  CB        80.5620   36.4520   60.5010 C.3    60  VAL60       0.0252
     79  CG1       80.9970   36.0620   61.9260 C.3    60  VAL60       0.0019
     80  CG2       79.2370   35.7340   60.1560 C.3    60  VAL60       0.0019
     81  N         85.5310   35.4160   66.3070 N.3    76  PHE76      -0.1227
     82  CA        84.4470   35.9550   65.5100 C.3    76  PHE76       0.1736
     83  C         83.2060   36.2770   66.3260 C.2    76  PHE76       0.2595
     84  O         82.9570   35.7050   67.3760 O.2    76  PHE76      -0.2718
     85  CB        83.9980   34.9300   64.4430 C.3    76  PHE76       0.0547
     86  CG        84.9730   34.7270   63.3180 C.ar   76  PHE76      -0.0202
     87  CD1       85.0600   35.6520   62.2840 C.ar   76  PHE76      -0.0042
     88  CD2       85.7710   33.5870   63.2680 C.ar   76  PHE76      -0.0042
     89  CE1       85.9260   35.4500   61.2080 C.ar   76  PHE76      -0.0003
     90  CE2       86.6390   33.3780   62.1930 C.ar   76  PHE76      -0.0003
     91  CZ        86.7130   34.3160   61.1640 C.ar   76  PHE76      -0.0000
     92  N         82.4130   37.1930   65.7930 N.am   77  GLU77      -0.1965
     93  CA        81.1130   37.5290   66.3590 C.3    77  GLU77       0.1733
     94  C         80.3420   36.1810   66.3600 C.2    77  GLU77       0.2616
     95  O         80.4880   35.3800   65.4390 O.2    77  GLU77      -0.2715
     96  CB        80.4430   38.5410   65.4110 C.3    77  GLU77       0.0429
     97  CG        78.9410   38.4880   65.3490 C.3    77  GLU77       0.1163
     98  CD        78.3620   39.4200   64.2870 C.2    77  GLU77       0.3649
     99  OE1       77.1840   39.7700   64.4170 O.co2  77  GLU77      -0.2457
    100  OE2       79.0600   39.8040   63.3260 O.co2  77  GLU77      -0.2457
    101  N         79.5450   35.9220   67.3940 N.am   78  PHE78      -0.1960
    102  CA        78.7780   34.6790   67.4880 C.3    78  PHE78       0.1771
    103  C         77.3180   34.8480   67.0530 C.2    78  PHE78       0.2619
    104  O         76.6660   35.8290   67.4220 O.2    78  PHE78      -0.2715
    105  CB        78.7870   34.1660   68.9450 C.3    78  PHE78       0.0574
    106  CG        77.8930   32.9720   69.1930 C.ar   78  PHE78      -0.0200
    107  CD1       76.5860   33.1470   69.6620 C.ar   78  PHE78      -0.0042
    108  CD2       78.3500   31.6760   68.9440 C.ar   78  PHE78      -0.0042
    109  CE1       75.7490   32.0730   69.8770 C.ar   78  PHE78      -0.0003
    110  CE2       77.5190   30.5690   69.1580 C.ar   78  PHE78      -0.0003
    111  CZ        76.2050   30.7690   69.6270 C.ar   78  PHE78      -0.0000
    112  N         76.8250   33.9030   66.2560 N.am   79  LEU79      -0.1963
    113  CA        75.4150   33.8680   65.8430 C.3    79  LEU79       0.1728
    114  C         74.9460   32.4710   66.2150 C.2    79  LEU79       0.2616
    115  O         75.7130   31.5120   66.1290 O.2    79  LEU79      -0.2715
    116  CB        75.2080   34.1200   64.3400 C.3    79  LEU79       0.0311
    117  CG        75.2450   35.6090   63.9880 C.3    79  LEU79       0.0022
    118  CD1       76.6830   35.9810   63.6140 C.3    79  LEU79       0.0001
    119  CD2       74.2880   35.9380   62.8510 C.3    79  LEU79       0.0001
    120  N         73.6810   32.3530   66.6030 N.am   80  HIS80      -0.1959
    121  CA        73.1610   31.0800   67.0990 C.3    80  HIS80       0.1787
    122  C         72.8610   29.9620   66.1190 C.2    80  HIS80       0.2620
    123  O         72.7310   28.8010   66.5240 O.2    80  HIS80      -0.2715
    124  CB        71.9060   31.3350   67.9370 C.3    80  HIS80       0.0785
    125  CG        72.1750   32.0170   69.2480 C.ar   80  HIS80       0.0821
    126  ND1       72.3150   33.3850   69.3670 N.ar   80  HIS80      -0.2267
    127  CD2       72.3630   31.5100   70.4940 C.ar   80  HIS80       0.1154
    128  CE1       72.5750   33.6920   70.6250 C.ar   80  HIS80       0.1986
    129  NE2       72.6070   32.5760   71.3290 N.ar   80  HIS80      -0.2212
    130  N         72.7430   30.2760   64.8310 N.am   81  GLN81      -0.1963
    131  CA        72.3860   29.2030   63.9120 C.3    81  GLN81       0.1733
    132  C         72.9570   29.4400   62.5290 C.2    81  GLN81       0.2616
    133  O         73.2540   30.5710   62.1760 O.2    81  GLN81      -0.2715
    134  CB        70.8540   29.1440   63.8370 C.3    81  GLN81       0.0408
    135  CG        70.2650   28.1640   62.8400 C.3    81  GLN81       0.0908
    136  CD        70.5540   26.7370   63.2120 C.2    81  GLN81       0.2608
    137  OE1       71.7100   26.3290   63.2920 O.2    81  GLN81      -0.2717
    138  NE2       69.4970   25.9590   63.4480 N.am   81  GLN81      -0.0878
    139  N         73.1190   28.3630   61.7630 N.am   82  ASP82      -0.1971
    140  CA        73.5890   28.4930   60.3800 C.3    82  ASP82       0.1709
    141  C         72.4430   28.0630   59.4530 C.2    82  ASP82       0.2293
    142  O         71.5080   27.3600   59.8720 O.2    82  ASP82      -0.2864
    143  CB        74.8560   27.6720   60.1210 C.3    82  ASP82       0.1436
    144  CG        74.6550   26.1930   60.3220 C.2    82  ASP82       0.3671
    145  OD1       74.0530   25.5580   59.4480 O.co2  82  ASP82      -0.2456
    146  OD2       75.0980   25.6640   61.3600 O.co2  82  ASP82      -0.2456
    147  N         71.5060   24.1870   58.9560 N.3    85  LYS85      -0.1245
    148  CA        70.6400   23.6430   60.0000 C.3    85  LYS85       0.1561
    149  C         69.2190   24.1840   59.8700 C.2    85  LYS85       0.2260
    150  O         68.2400   23.4490   60.0740 O.2    85  LYS85      -0.2867
    151  CB        71.2040   23.9720   61.3880 C.3    85  LYS85       0.0271
    152  CG        72.5040   23.2580   61.7180 C.3    85  LYS85       0.0035
    153  CD        72.8160   23.3820   63.2180 C.3    85  LYS85       0.0206
    154  CE        74.2370   22.9610   63.5590 C.3    85  LYS85       0.1093
    155  NZ        75.2460   23.8740   62.9750 N.3    85  LYS85      -0.1314
    156  N         76.3180   26.2300   55.3670 N.3   127  GLN127     -0.1231
    157  CA        76.8700   26.2270   56.7080 C.3   127  GLN127      0.1698
    158  C         77.7030   27.4570   57.0360 C.2   127  GLN127      0.2592
    159  O         77.9740   27.6930   58.2050 O.2   127  GLN127     -0.2718
    160  CB        77.6620   24.9470   56.9650 C.3   127  GLN127      0.0381
    161  CG        78.8080   24.7060   56.0450 C.3   127  GLN127      0.0905
    162  CD        79.3170   23.2810   56.1420 C.2   127  GLN127      0.2608
    163  OE1       80.0880   22.9400   57.0460 O.2   127  GLN127     -0.2717
    164  NE2       78.8690   22.4290   55.2180 N.am  127  GLN127     -0.0878
    165  N         78.1040   28.2250   56.0220 N.am  128  ASN128     -0.1974
    166  CA        78.8840   29.4490   56.2200 C.3   128  ASN128      0.1688
    167  C         77.9870   30.6640   56.2560 C.2   128  ASN128      0.2292
    168  O         78.4900   31.7860   56.2730 O.2   128  ASN128     -0.2864
    169  CB        79.8760   29.6830   55.0720 C.3   128  ASN128      0.1181
    170  CG        81.0350   28.7820   55.1270 C.2   128  ASN128      0.2629
    171  OD1       81.3480   28.2090   56.1850 O.2   128  ASN128     -0.2716
    172  ND2       81.7140   28.6420   53.9980 N.am  128  ASN128     -0.0877
    173  N         75.2610   32.5210   58.4700 N.3   130  LEU130     -0.1245
    174  CA        74.7270   32.5080   59.8320 C.3   130  LEU130      0.1561
    175  C         73.5290   33.4270   60.0350 C.2   130  LEU130      0.2260
    176  O         73.4620   34.5040   59.4590 O.2   130  LEU130     -0.2867
    177  CB        75.8620   32.8540   60.7930 C.3   130  LEU130      0.0270
    178  CG        77.1550   32.0440   60.5680 C.3   130  LEU130      0.0019
    179  CD1       78.1700   32.4470   61.6030 C.3   130  LEU130      0.0001
    180  CD2       76.8770   30.5250   60.6470 C.3   130  LEU130      0.0001
    181  N         80.0110   34.1490   56.6040 N.3   140  ALA140     -0.1231
    182  CA        81.1310   33.8050   57.4860 C.3   140  ALA140      0.1694
    183  C         82.3060   33.2760   56.6810 C.2   140  ALA140      0.2592
    184  O         82.1290   32.6700   55.6200 O.2   140  ALA140     -0.2718
    185  CB        80.7100   32.7580   58.5010 C.3   140  ALA140      0.0304
    186  N         83.4990   33.5390   57.1940 N.am  141  ASP141     -0.1974
    187  CA        84.7470   33.0830   56.5750 C.3   141  ASP141      0.1709
    188  C         85.1550   33.7870   55.2810 C.2   141  ASP141      0.2293
    189  O         85.9040   33.2210   54.4790 O.2   141  ASP141     -0.2864
    190  CB        84.6780   31.5710   56.3490 C.3   141  ASP141      0.1436
    191  CG        84.4790   30.8010   57.6360 C.2   141  ASP141      0.3671
    192  OD1       83.9900   29.6590   57.5790 O.co2 141  ASP141     -0.2456
    193  OD2       84.8160   31.3280   58.7150 O.co2 141  ASP141     -0.2456
@<TRIPOS>BOND
     1   172   170   am
     2   189   188    2
     3   169   170    1
     4   169   166    1
     5   170   171    2
     6   164   162   am
     7   188   187    1
     8   156   157    1
     9   184   183    2
    10   165   166    1
    11   165   158   am
    12   161   162    1
    13   161   160    1
    14   162   163    2
    15   166   167    1
    16   167   168    2
    17   190   187    1
    18   190   191    1
    19   187   186    1
    20   181   182    1
    21   183   186   am
    22   183   182    1
    23   157   160    1
    24   157   158    1
    25   158   159    2
    26   182   185    1
    27   192   191   ar
    28   191   193   ar
    29   173   174    1
    30   147   148    1
    31    74    75    1
    32   145   144   ar
    33   141   142    2
    34   141   140    1
    35   176   175    2
    36    43    42    2
    37    42    41    1
    38   174   175    1
    39   174   177    1
    40   149   148    1
    41   149   150    2
    42   148   151    1
    43   143   144    1
    44   143   140    1
    45    77    76    2
    46    80    78    1
    47   144   146   ar
    48   140   139    1
    49    75    78    1
    50    75    76    1
    51    78    79    1
    52   178   180    1
    53   178   177    1
    54   178   179    1
    55    34    33    2
    56    41    40    1
    57    91    89   ar
    58    91    90   ar
    59    89    87   ar
    60   151   152    1
    61    72    73    1
    62    72    71    1
    63   152   153    1
    64   139   132   am
    65    33    40   am
    66    33    32    1
    67   133   132    2
    68    90    88   ar
    69    71    70    1
    70    87    86   ar
    71   132   131    1
    72   135   136    1
    73   135   134    1
    74   119   117    1
    75   155   154    1
    76    35    32    1
    77    35    36    1
    78   136   137    2
    79   136   138   am
    80   153   154    1
    81    88    86   ar
    82    86    85    1
    83   100    98   ar
    84    38    37   ar
    85    32    31    1
    86   118   117    1
    87    70    69    1
    88   134   131    1
    89    31    29   am
    90   131   130    1
    91   117   116    1
    92    37    36    1
    93    37    39   ar
    94    50    48    1
    95    98    99   ar
    96    98    97    1
    97    69    66    1
    98   116   113    1
    99    85    82    1
   100   130   122   am
   101    29    28    1
   102    29    30    2
   103    28    27    1
   104    97    96    1
   105    96    93    1
   106    95    94    2
   107    82    81    1
   108    82    83    1
   109    48    49    1
   110    48    45    1
   111    22    21    2
   112    66    67    1
   113    66    65    1
   114    25    23    1
   115    92    83   am
   116    92    93    1
   117   113   114    1
   118   113   112    1
   119    67    68    2
   120   122   123    2
   121   122   121    1
   122   115   114    2
   123   114   120   am
   124   112   103   am
   125    44    45    1
   126    83    84    2
   127    27    21   am
   128    93    94    1
   129    94   101   am
   130    21    20    1
   131   120   121    1
   132    45    46    1
   133    64    61    1
   134   103   104    2
   135   103   102    1
   136   121   124    1
   137    23    20    1
   138    23    24    1
   139   101   102    1
   140   102   105    1
   141    63    62    2
   142    20    19    1
   143    26    24    1
   144    46    47    2
   145   124   125    1
   146    62    61    1
   147    61    60    1
   148    19    12   am
   149   108   110   ar
   150   108   106   ar
   151   105   106    1
   152   110   111   ar
   153   106   107   ar
   154   125   126   ar
   155   125   127   ar
   156    15    16    1
   157    15    14    1
   158    16    17    1
   159   126   128   ar
   160    12    13    2
   161    12    11    1
   162   111   109   ar
   163   107   109   ar
   164    18    17    1
   165   127   129   ar
   166    14    11    1
   167   128   129   ar
   168    11    10    1
   169    51    52    1
   170    52    55    1
   171    52    53    1
   172    55    56    1
   173    10     3   am
   174     4     3    2
   175    56    57    1
   176     3     2    1
   177    57    58    1
   178    53    54    2
   179     8     7   ar
   180    58    59    1
   181     5     2    1
   182     5     6    1
   183     2     1    1
   184     7     6    1
   185     7     9   ar
