@<TRIPOS>MOLECULE
tmp/3qx5B02.pdb
 194 195 0 0 0
SMALL
GASTEIGER

@<TRIPOS>ATOM
      1  N         22.4690   -5.7640   18.3560 N.3    43  HIS43      -0.1241
      2  CA        22.3250   -7.1310   17.8470 C.3    43  HIS43       0.1621
      3  C         21.5700   -7.1920   16.5190 C.2    43  HIS43       0.2264
      4  O         21.5850   -8.2260   15.8470 O.2    43  HIS43      -0.2867
      5  CB        21.7060   -8.0880   18.8810 C.3    43  HIS43       0.0745
      6  CG        20.2100   -8.0200   18.9750 C.ar   43  HIS43       0.0817
      7  ND1       19.5550   -7.2850   19.9400 N.ar   43  HIS43      -0.2268
      8  CD2       19.2400   -8.6010   18.2250 C.ar   43  HIS43       0.1154
      9  CE1       18.2500   -7.4150   19.7800 C.ar   43  HIS43       0.1986
     10  NE2       18.0320   -8.2140   18.7510 N.ar   43  HIS43      -0.2212
     11  N         25.7610   -9.8010   15.3660 N.3    47  TYR47      -0.1241
     12  CA        25.5120  -10.9100   16.2740 C.3    47  TYR47       0.1605
     13  C         26.1840  -12.1670   15.7280 C.2    47  TYR47       0.2264
     14  O         25.5760  -12.9790   15.0250 O.2    47  TYR47      -0.2867
     15  CB        24.0130  -11.1150   16.5300 C.3    47  TYR47       0.0534
     16  CG        23.7840  -12.0160   17.7120 C.ar   47  TYR47      -0.0201
     17  CD1       24.2180  -11.6400   18.9790 C.ar   47  TYR47      -0.0009
     18  CD2       23.1740  -13.2590   17.5640 C.ar   47  TYR47      -0.0009
     19  CE1       24.0460  -12.4720   20.0690 C.ar   47  TYR47       0.0417
     20  CE2       22.9820  -14.0890   18.6510 C.ar   47  TYR47       0.0417
     21  CZ        23.4260  -13.6950   19.8990 C.ar   47  TYR47       0.1957
     22  OH        23.2500  -14.5390   20.9760 O.3    47  TYR47      -0.2866
     23  N         24.9020  -15.8760   15.2450 N.3    50  TRP50      -0.1241
     24  CA        23.9570  -16.1230   14.1550 C.3    50  TRP50       0.1605
     25  C         24.5140  -15.6710   12.8040 C.2    50  TRP50       0.2264
     26  O         23.7630  -15.4970   11.8410 O.2    50  TRP50      -0.2867
     27  CB        22.6340  -15.4060   14.4180 C.3    50  TRP50       0.0550
     28  CG        21.8560  -15.9340   15.5800 C.ar   50  TRP50       0.0003
     29  CD1       22.1230  -17.0590   16.3070 C.ar   50  TRP50       0.0946
     30  CD2       20.6770  -15.3580   16.1500 C.ar   50  TRP50       0.0152
     31  NE1       21.1830  -17.2160   17.2960 N.ar   50  TRP50      -0.2442
     32  CE2       20.2850  -16.1830   17.2230 C.ar   50  TRP50       0.0810
     33  CE3       19.9180  -14.2220   15.8600 C.ar   50  TRP50       0.0012
     34  CZ2       19.1630  -15.9080   18.0060 C.ar   50  TRP50       0.0191
     35  CZ3       18.8030  -13.9490   16.6400 C.ar   50  TRP50       0.0001
     36  CH2       18.4360  -14.7920   17.6970 C.ar   50  TRP50       0.0015
     37  N         28.0720   -9.0590   22.8760 N.3    92  TRP92      -0.1241
     38  CA        27.3350  -10.0680   22.1220 C.3    92  TRP92       0.1605
     39  C         27.6890  -11.4820   22.5640 C.2    92  TRP92       0.2264
     40  O         26.9780  -12.4380   22.2440 O.2    92  TRP92      -0.2867
     41  CB        27.5680   -9.9190   20.6150 C.3    92  TRP92       0.0550
     42  CG        29.0200   -9.8770   20.1960 C.ar   92  TRP92       0.0003
     43  CD1       29.7680   -8.7580   19.9670 C.ar   92  TRP92       0.0946
     44  CD2       29.8780  -10.9960   19.9310 C.ar   92  TRP92       0.0152
     45  NE1       31.0390   -9.1090   19.5810 N.ar   92  TRP92      -0.2442
     46  CE2       31.1330  -10.4770   19.5480 C.ar   92  TRP92       0.0810
     47  CE3       29.7070  -12.3850   19.9740 C.ar   92  TRP92       0.0012
     48  CZ2       32.2120  -11.2940   19.2150 C.ar   92  TRP92       0.0191
     49  CZ3       30.7790  -13.1980   19.6350 C.ar   92  TRP92       0.0001
     50  CH2       32.0170  -12.6480   19.2680 C.ar   92  TRP92       0.0015
     51  N         27.8820  -12.7430   25.6990 N.3    94  GLU94      -0.1231
     52  CA        27.2160  -13.2510   26.8930 C.3    94  GLU94       0.1699
     53  C         25.7400  -12.8900   27.0170 C.2    94  GLU94       0.2592
     54  O         24.8730  -13.7570   26.9440 O.2    94  GLU94      -0.2718
     55  CB        27.9450  -12.7820   28.1560 C.3    94  GLU94       0.0402
     56  CG        27.3640  -13.3860   29.4240 C.3    94  GLU94       0.1161
     57  CD        27.8470  -12.7180   30.6980 C.2    94  GLU94       0.3649
     58  OE1       28.8290  -11.9420   30.6490 O.co2  94  GLU94      -0.2457
     59  OE2       27.2340  -12.9750   31.7580 O.co2  94  GLU94      -0.2457
     60  N         25.4520  -11.6080   27.2210 N.am   95  ASN95      -0.1960
     61  CA        24.1350  -11.2090   27.6990 C.3    95  ASN95       0.1819
     62  C         23.5650   -9.9750   27.0080 C.2    95  ASN95       0.2621
     63  O         22.5890   -9.4010   27.4880 O.2    95  ASN95      -0.2715
     64  CB        24.1790  -10.9690   29.2080 C.3    95  ASN95       0.1195
     65  CG        25.1400   -9.8610   29.5880 C.2    95  ASN95       0.2630
     66  OD1       25.8740   -9.3420   28.7410 O.2    95  ASN95      -0.2716
     67  ND2       25.1510   -9.4970   30.8680 N.am   95  ASN95      -0.0877
     68  N         24.1510   -9.5750   25.8780 N.am   96  LEU96      -0.1977
     69  CA        23.6960   -8.3840   25.1530 C.3    96  LEU96       0.1596
     70  C         23.8070   -7.0970   25.9900 C.2    96  LEU96       0.2287
     71  O         23.0660   -6.1450   25.7840 O.2    96  LEU96      -0.2864
     72  CB        22.2630   -8.5730   24.6340 C.3    96  LEU96       0.0297
     73  CG        22.0890   -8.9080   23.1520 C.3    96  LEU96       0.0022
     74  CD1       23.1300   -9.8690   22.6100 C.3    96  LEU96       0.0001
     75  CD2       20.6830   -9.4310   22.8790 C.3    96  LEU96       0.0001
     76  N         20.1640  -15.6540   32.8770 N.3   172  ILE172     -0.1245
     77  CA        21.0610  -14.7260   32.2070 C.3   172  ILE172      0.1561
     78  C         21.4370  -13.5950   33.1580 C.2   172  ILE172      0.2260
     79  O         20.6140  -13.1460   33.9580 O.2   172  ILE172     -0.2867
     80  CB        20.4100  -14.1850   30.9180 C.3   172  ILE172      0.0252
     81  CG1       20.1570  -15.3520   29.9540 C.3   172  ILE172      0.0019
     82  CG2       21.2690  -13.0900   30.2760 C.3   172  ILE172      0.0019
     83  CD1       19.2560  -15.0280   28.8060 C.3   172  ILE172      0.0001
     84  N          4.2670   -8.7780   24.7790 N.3   192  ASP192     -0.1225
     85  CA         5.7280   -8.8220   24.7450 C.3   192  ASP192      0.1805
     86  C          6.1670   -8.4450   23.3460 C.2   192  ASP192      0.2598
     87  O          5.3730   -8.4600   22.4060 O.2   192  ASP192     -0.2718
     88  CB         6.2210  -10.2450   25.0770 C.3   192  ASP192      0.1424
     89  CG         7.7050  -10.3200   25.4330 C.2   192  ASP192      0.3668
     90  OD1        8.3840   -9.2810   25.5600 O.co2 192  ASP192     -0.2456
     91  OD2        8.1800  -11.4620   25.6080 O.co2 192  ASP192     -0.2456
     92  N          7.4340   -8.0780   23.2240 N.am  193  ALA193     -0.1966
     93  CA         8.0890   -7.9970   21.9320 C.3   193  ALA193      0.1728
     94  C          8.4520   -9.4010   21.4640 C.2   193  ALA193      0.2616
     95  O          8.4160  -10.3620   22.2350 O.2   193  ALA193     -0.2715
     96  CB         9.3360   -7.1440   22.0360 C.3   193  ALA193      0.0334
     97  N          8.8070   -9.5290   20.1940 N.am  194  CYS194     -0.1954
     98  CA         9.2320  -10.8210   19.6890 C.3   194  CYS194      0.1843
     99  C         10.2430  -10.6350   18.5620 C.2   194  CYS194      0.2625
    100  O         10.6830   -9.5170   18.2910 O.2   194  CYS194     -0.2714
    101  CB         8.0140  -11.6220   19.2190 C.3   194  CYS194      0.0997
    102  SG         8.2360  -13.4210   19.1710 S.3   194  CYS194     -0.0797
    103  N         10.6210  -11.7380   17.9270 N.am  195  GLU195     -0.1977
    104  CA        11.5090  -11.7020   16.7730 C.3   195  GLU195      0.1602
    105  C         11.0270  -10.6770   15.7500 C.2   195  GLU195      0.2287
    106  O          9.8630  -10.6890   15.3570 O.2   195  GLU195     -0.2864
    107  CB        11.5800  -13.0900   16.1250 C.3   195  GLU195      0.0415
    108  CG        12.3750  -13.1360   14.8250 C.3   195  GLU195      0.1163
    109  CD        12.3790  -14.5050   14.1660 C.2   195  GLU195      0.3649
    110  OE1       12.7710  -14.5810   12.9840 O.co2 195  GLU195     -0.2457
    111  OE2       11.9970  -15.5010   14.8220 O.co2 195  GLU195     -0.2457
    112  N         13.0640   -6.4370   17.6750 N.3   198  SER198     -0.1217
    113  CA        14.4020   -6.0260   18.1060 C.3   198  SER198      0.1889
    114  C         14.7600   -4.6560   17.5840 C.2   198  SER198      0.2288
    115  O         14.5570   -4.3770   16.4050 O.2   198  SER198     -0.2866
    116  CB        15.4550   -6.9830   17.5460 C.3   198  SER198      0.2089
    117  OG        15.4030   -8.2410   18.1680 O.3   198  SER198     -0.2183
    118  N         14.1480   -2.4280   22.3920 N.3   218  VAL218     -0.1231
    119  CA        13.8350   -3.8530   22.4340 C.3   218  VAL218      0.1692
    120  C         15.1170   -4.6730   22.2680 C.2   218  VAL218      0.2593
    121  O         15.7890   -4.5770   21.2390 O.2   218  VAL218     -0.2718
    122  CB        12.8370   -4.2340   21.3200 C.3   218  VAL218      0.0266
    123  CG1       12.6060   -5.7470   21.3130 C.3   218  VAL218      0.0020
    124  CG2       11.5140   -3.4820   21.4860 C.3   218  VAL218      0.0020
    125  N         15.4550   -5.4690   23.2830 N.am  219  SER219     -0.1938
    126  CA        16.7320   -6.1740   23.3010 C.3   219  SER219      0.2055
    127  C         16.6030   -7.7030   23.3110 C.2   219  SER219      0.2643
    128  O         16.9700   -8.3540   22.3350 O.2   219  SER219     -0.2714
    129  CB        17.6230   -5.6560   24.4480 C.3   219  SER219      0.2130
    130  OG        18.8980   -6.2610   24.4250 O.3   219  SER219     -0.2179
    131  N         16.0690   -8.2880   24.3780 N.am  220  TRP220     -0.1959
    132  CA        16.0740   -9.7420   24.4660 C.3   220  TRP220      0.1771
    133  C         14.9820  -10.2970   25.3570 C.2   220  TRP220      0.2620
    134  O         14.4150   -9.5900   26.1910 O.2   220  TRP220     -0.2715
    135  CB        17.4560  -10.2700   24.8800 C.3   220  TRP220      0.0590
    136  CG        17.9710   -9.8620   26.2490 C.ar  220  TRP220      0.0006
    137  CD1       18.7460   -8.7760   26.5450 C.ar  220  TRP220      0.0946
    138  CD2       17.8010  -10.5780   27.4800 C.ar  220  TRP220      0.0152
    139  NE1       19.0510   -8.7590   27.8890 N.ar  220  TRP220     -0.2442
    140  CE2       18.4890   -9.8580   28.4830 C.ar  220  TRP220      0.0810
    141  CE3       17.1340  -11.7570   27.8330 C.ar  220  TRP220      0.0012
    142  CZ2       18.5240  -10.2770   29.8130 C.ar  220  TRP220      0.0191
    143  CZ3       17.1710  -12.1710   29.1560 C.ar  220  TRP220      0.0001
    144  CH2       17.8570  -11.4300   30.1290 C.ar  220  TRP220      0.0015
    145  N         14.6780  -11.5690   25.1500 N.am  221  GLY221     -0.1940
    146  CA        13.7360  -12.2680   25.9920 C.3   221  GLY221      0.2014
    147  C         13.8590  -13.7480   25.7060 C.2   221  GLY221      0.2639
    148  O         14.2700  -14.1540   24.6130 O.2   221  GLY221     -0.2714
    149  N         13.4990  -14.5620   26.6880 N.am  222  GLU222     -0.1963
    150  CA        13.5100  -16.0030   26.5090 C.3   222  GLU222      0.1733
    151  C         12.1450  -16.4200   25.9700 C.2   222  GLU222      0.2617
    152  O         11.1600  -16.5230   26.7090 O.2   222  GLU222     -0.2715
    153  CB        13.8550  -16.6960   27.8210 C.3   222  GLU222      0.0429
    154  CG        15.2530  -16.3570   28.3150 C.3   222  GLU222      0.1163
    155  CD        15.5950  -17.0780   29.5980 C.2   222  GLU222      0.3649
    156  OE1       15.2970  -16.5330   30.6760 O.co2 222  GLU222     -0.2457
    157  OE2       16.1450  -18.1990   29.5260 O.co2 222  GLU222     -0.2457
    158  N         12.0880  -16.6270   24.6620 N.am  223  GLY223     -0.1940
    159  CA        10.8230  -16.7850   23.9740 C.3   223  GLY223      0.2014
    160  C         10.1120  -15.4470   23.8490 C.2   223  GLY223      0.2639
    161  O         10.7340  -14.3870   23.9540 O.2   223  GLY223     -0.2714
    162  N          8.8070  -15.4960   23.6160 N.am  224  CYS224     -0.1967
    163  CA         8.0000  -14.2890   23.5100 C.3   224  CYS224      0.1712
    164  C          6.7110  -14.5010   24.2790 C.2   224  CYS224      0.2296
    165  O          6.0090  -15.4850   24.0530 O.2   224  CYS224     -0.2864
    166  CB         7.6700  -13.9830   22.0460 C.3   224  CYS224      0.0983
    167  SG         9.0940  -13.9580   20.9440 S.3   224  CYS224     -0.0798
    168  N         10.3440   -9.1850   28.9670 N.3   231  GLY231     -0.1210
    169  CA        11.1950   -8.6380   27.9330 C.3   231  GLY231      0.1956
    170  C         12.2350   -7.7220   28.5470 C.2   231  GLY231      0.2612
    171  O         11.9570   -7.0180   29.5300 O.2   231  GLY231     -0.2717
    172  N         13.4390   -7.7480   27.9800 N.am  232  PHE232     -0.1962
    173  CA        14.5400   -6.9020   28.4310 C.3   232  PHE232      0.1771
    174  C         14.8710   -5.8380   27.4010 C.2   232  PHE232      0.2619
    175  O         14.8780   -6.0910   26.1840 O.2   232  PHE232     -0.2715
    176  CB        15.7670   -7.7430   28.7800 C.3   232  PHE232      0.0574
    177  CG        15.6020   -8.4970   30.0610 C.ar  232  PHE232     -0.0200
    178  CD1       14.8360   -9.6550   30.1050 C.ar  232  PHE232     -0.0042
    179  CD2       16.1540   -8.0170   31.2440 C.ar  232  PHE232     -0.0042
    180  CE1       14.6500  -10.3390   31.2970 C.ar  232  PHE232     -0.0003
    181  CE2       15.9750   -8.6970   32.4380 C.ar  232  PHE232     -0.0003
    182  CZ        15.2270   -9.8560   32.4640 C.ar  232  PHE232     -0.0000
    183  N         15.1310   -4.6410   27.9140 N.am  233  TYR233     -0.1974
    184  CA        15.2680   -3.4360   27.1090 C.3   233  TYR233      0.1639
    185  C         16.5670   -2.7400   27.4620 C.2   233  TYR233      0.2290
    186  O         16.9300   -2.6370   28.6380 O.2   233  TYR233     -0.2864
    187  CB        14.0720   -2.4960   27.3700 C.3   233  TYR233      0.0560
    188  CG        12.7730   -3.1390   26.9580 C.ar  233  TYR233     -0.0198
    189  CD1       12.1000   -4.0070   27.8130 C.ar  233  TYR233     -0.0009
    190  CD2       12.2430   -2.9280   25.6880 C.ar  233  TYR233     -0.0009
    191  CE1       10.9300   -4.6470   27.4100 C.ar  233  TYR233      0.0417
    192  CE2       11.0740   -3.5410   25.2900 C.ar  233  TYR233      0.0417
    193  CZ        10.4290   -4.4100   26.1470 C.ar  233  TYR233      0.1957
    194  OH         9.2740   -5.0300   25.7290 O.3   233  TYR233     -0.2866
@<TRIPOS>BOND
     1    26    25    2
     2    25    24    1
     3   110   109   ar
     4    24    27    1
     5    24    23    1
     6   109   111   ar
     7   109   108    1
     8    27    28    1
     9   108   107    1
    10    14    13    2
    11   106   105    2
    12    11    12    1
    13    28    30   ar
    14    28    29   ar
    15    13    12    1
    16   105   104    1
    17     4     3    2
    18    33    30   ar
    19    33    35   ar
    20   107   104    1
    21    30    32   ar
    22    12    15    1
    23    29    31   ar
    24   115   114    2
    25     3     2    1
    26    15    16    1
    27    35    36   ar
    28   104   103    1
    29    32    31   ar
    30    32    34   ar
    31   116   113    1
    32   116   117    1
    33    18    16   ar
    34    18    20   ar
    35   114   113    1
    36   112   113    1
    37    36    34   ar
    38    16    17   ar
    39     2     1    1
    40     2     5    1
    41   103    99   am
    42     8    10   ar
    43     8     6   ar
    44   100    99    2
    45    99    98    1
    46    20    21   ar
    47    10     9   ar
    48     5     6    1
    49     6     7   ar
    50    17    19   ar
    51   102   101    1
    52   102   167    1
    53    48    50   ar
    54    48    46   ar
    55   101    98    1
    56    50    49   ar
    57    46    45   ar
    58    46    44   ar
    59    45    43   ar
    60    49    47   ar
    61    98    97    1
    62     9     7   ar
    63    21    19   ar
    64    21    22    1
    65    44    47   ar
    66    44    42   ar
    67    43    42   ar
    68    97    94   am
    69    42    41    1
    70    41    38    1
    71   167   166    1
    72   121   120    2
    73   123   122    1
    74   122   124    1
    75   122   119    1
    76    94    93    1
    77    94    95    2
    78    93    96    1
    79    93    92    1
    80   166   163    1
    81    38    39    1
    82    38    37    1
    83    40    39    2
    84   120   119    1
    85   120   125   am
    86   128   127    2
    87   118   119    1
    88    87    86    2
    89    74    73    1
    90    75    73    1
    91    73    72    1
    92    92    86   am
    93   125   126    1
    94   126   127    1
    95   126   129    1
    96   127   131   am
    97    86    85    1
    98   163   162    1
    99   163   164    1
   100   162   160   am
   101   160   161    2
   102   160   159    1
   103   159   158    1
   104   165   164    2
   105   131   132    1
   106   130   129    1
   107   132   135    1
   108   132   133    1
   109   148   147    2
   110    72    69    1
   111   158   151   am
   112    85    84    1
   113    85    88    1
   114   135   136    1
   115    88    89    1
   116   145   133   am
   117   145   146    1
   118    69    68    1
   119    69    70    1
   120   192   190   ar
   121   192   193   ar
   122   133   134    2
   123    89    90   ar
   124    89    91   ar
   125   190   188   ar
   126    51    52    1
   127   147   146    1
   128   147   149   am
   129   194   193    1
   130    71    70    2
   131    68    62   am
   132   151   150    1
   133   151   152    2
   134   193   191   ar
   135   175   174    2
   136   136   137   ar
   137   136   138   ar
   138   150   149    1
   139   150   153    1
   140   137   139   ar
   141    52    53    1
   142    52    55    1
   143    54    53    2
   144   188   187    1
   145   188   189   ar
   146    62    63    2
   147    62    61    1
   148    53    60   am
   149   184   187    1
   150   184   185    1
   151   184   183    1
   152    60    61    1
   153   174   183   am
   154   174   173    1
   155   191   189   ar
   156   185   186    2
   157   138   141   ar
   158   138   140   ar
   159    61    64    1
   160   153   154    1
   161   141   143   ar
   162   139   140   ar
   163   169   170    1
   164   169   168    1
   165   172   173    1
   166   172   170   am
   167    55    56    1
   168   154   155    1
   169   173   176    1
   170   140   142   ar
   171   170   171    2
   172    66    65    2
   173   176   177    1
   174    83    81    1
   175   143   144   ar
   176    64    65    1
   177    56    57    1
   178   157   155   ar
   179    65    67   am
   180   155   156   ar
   181   142   144   ar
   182    81    80    1
   183   177   178   ar
   184   177   179   ar
   185   178   180   ar
   186    82    80    1
   187    58    57   ar
   188    57    59   ar
   189    80    77    1
   190   179   181   ar
   191   180   182   ar
   192    77    76    1
   193    77    78    1
   194   181   182   ar
   195    78    79    2
