@<TRIPOS>MOLECULE
tmp/3qx8C00.pdb
 103 97 0 0 0
SMALL
GASTEIGER

@<TRIPOS>ATOM
      1  N          9.6220   18.0300   36.1380 N.3    83  LEU83      -0.1245
      2  CA         8.8450   18.7770   37.1200 C.3    83  LEU83       0.1561
      3  C          8.6070   18.0750   38.4570 C.2    83  LEU83       0.2260
      4  O          8.2940   16.8830   38.5060 O.2    83  LEU83      -0.2867
      5  CB         7.5060   19.1710   36.5010 C.3    83  LEU83       0.0270
      6  CG         7.6180   20.0000   35.2210 C.3    83  LEU83       0.0019
      7  CD1        6.2570   20.0850   34.5480 C.3    83  LEU83       0.0001
      8  CD2        8.1650   21.3750   35.5490 C.3    83  LEU83       0.0001
      9  N          6.3780   17.3040   40.7000 N.3    85  GLY85      -0.1210
     10  CA         4.9600   17.1830   40.9770 C.3    85  GLY85       0.1956
     11  C          4.1500   18.3150   40.3690 C.2    85  GLY85       0.2612
     12  O          4.2630   18.6080   39.1760 O.2    85  GLY85      -0.2717
     13  N          3.3210   18.9510   41.1860 N.am   86  LYS86      -0.1965
     14  CA         2.4970   20.0560   40.7160 C.3    86  LYS86       0.1728
     15  C          3.0060   21.3510   41.3480 C.2    86  LYS86       0.2616
     16  O          2.9070   21.5460   42.5620 O.2    86  LYS86      -0.2715
     17  CB         1.0270   19.8110   41.0850 C.3    86  LYS86       0.0311
     18  CG         0.5020   18.4460   40.6470 C.3    86  LYS86       0.0038
     19  CD         0.5500   18.2730   39.1330 C.3    86  LYS86       0.0206
     20  CE         1.0290   16.8710   38.7540 C.3    86  LYS86       0.1093
     21  NZ         1.0280   16.6520   37.2760 N.3    86  LYS86      -0.1314
     22  N          3.5670   22.2270   40.5200 N.am   87  THR87      -0.1951
     23  CA         4.1040   23.4900   41.0120 C.3    87  THR87       0.1897
     24  C          4.0560   24.6010   39.9750 C.2    87  THR87       0.2313
     25  O          3.8290   24.3650   38.7860 O.2    87  THR87      -0.2863
     26  CB         5.5850   23.3570   41.4520 C.3    87  THR87       0.1794
     27  OG1        6.4150   23.2260   40.2930 O.3    87  THR87      -0.2208
     28  CG2        5.7790   22.1400   42.3450 C.3    87  THR87       0.0378
     29  N          5.7670   24.6010   36.1250 N.3    90  TYR90      -0.1227
     30  CA         5.1820   24.3300   34.8200 C.3    90  TYR90       0.1736
     31  C          4.6970   25.5970   34.0920 C.2    90  TYR90       0.2595
     32  O          5.0860   25.8580   32.9530 O.2    90  TYR90      -0.2718
     33  CB         4.0110   23.3570   34.9500 C.3    90  TYR90       0.0548
     34  CG         3.2680   23.2180   33.6500 C.ar   90  TYR90      -0.0200
     35  CD1        3.7470   22.3960   32.6380 C.ar   90  TYR90      -0.0009
     36  CD2        2.1370   23.9880   33.3970 C.ar   90  TYR90      -0.0009
     37  CE1        3.1180   22.3500   31.3960 C.ar   90  TYR90       0.0417
     38  CE2        1.5020   23.9510   32.1720 C.ar   90  TYR90       0.0417
     39  CZ         1.9960   23.1350   31.1770 C.ar   90  TYR90       0.1957
     40  OH         1.3700   23.1370   29.9600 O.3    90  TYR90      -0.2866
     41  N          3.8380   26.3790   34.7390 N.am   91  ALA91      -0.1980
     42  CA         3.3350   27.5900   34.1050 C.3    91  ALA91       0.1597
     43  C          4.4650   28.5530   33.7040 C.2    91  ALA91       0.2287
     44  O          4.4060   29.1830   32.6450 O.2    91  ALA91      -0.2864
     45  CB         2.3490   28.2800   35.0200 C.3    91  ALA91       0.0319
     46  N          6.2400   27.3170   30.5880 N.3    94  LYS94      -0.1245
     47  CA         5.5310   27.5750   29.3510 C.3    94  LYS94       0.1561
     48  C          5.5360   29.0600   28.9950 C.2    94  LYS94       0.2260
     49  O          5.7000   29.4240   27.8250 O.2    94  LYS94      -0.2867
     50  CB         4.1070   27.0120   29.4370 C.3    94  LYS94       0.0271
     51  CG         4.0940   25.4940   29.5210 C.3    94  LYS94       0.0035
     52  CD         4.7780   24.9210   28.3030 C.3    94  LYS94       0.0206
     53  CE         4.9400   23.4200   28.3700 C.3    94  LYS94       0.1093
     54  NZ         5.6380   22.9470   27.1400 N.3    94  LYS94      -0.1314
     55  N          9.5200   20.4000   26.6910 N.3   106  GLN106     -0.1231
     56  CA         8.7030   19.2210   26.9070 C.3   106  GLN106      0.1698
     57  C          8.8260   18.8400   28.3630 C.2   106  GLN106      0.2592
     58  O          9.8980   18.4590   28.8300 O.2   106  GLN106     -0.2718
     59  CB         9.1790   18.0820   26.0120 C.3   106  GLN106      0.0381
     60  CG         8.4080   16.8140   26.1890 C.3   106  GLN106      0.0905
     61  CD         6.9240   16.9930   25.9870 C.2   106  GLN106      0.2608
     62  OE1        6.4640   17.4060   24.9190 O.2   106  GLN106     -0.2717
     63  NE2        6.1590   16.6610   27.0150 N.am  106  GLN106     -0.0878
     64  N          7.7220   18.9520   29.0850 N.am  107  CYS107     -0.1956
     65  CA         7.7140   18.6430   30.5060 C.3   107  CYS107      0.1843
     66  C          7.4380   17.1870   30.8120 C.2   107  CYS107      0.2625
     67  O          6.7180   16.5020   30.0810 O.2   107  CYS107     -0.2714
     68  CB         6.6860   19.5090   31.2220 C.3   107  CYS107      0.0997
     69  SG         7.0740   21.2640   31.2030 S.3   107  CYS107     -0.0797
     70  N          8.0270   16.7150   31.9030 N.am  108  VAL108     -0.1963
     71  CA         7.8330   15.3440   32.3270 C.3   108  VAL108      0.1727
     72  C          7.8870   15.2480   33.8500 C.2   108  VAL108      0.2616
     73  O          8.6870   15.9200   34.5020 O.2   108  VAL108     -0.2715
     74  CB         8.8810   14.4150   31.6580 C.3   108  VAL108      0.0290
     75  CG1       10.2760   14.9850   31.8480 C.3   108  VAL108      0.0023
     76  CG2        8.7670   12.9990   32.2170 C.3   108  VAL108      0.0023
     77  N          7.0020   14.4300   34.4110 N.am  109  GLN109     -0.1977
     78  CA         6.9310   14.2510   35.8560 C.3   109  GLN109      0.1601
     79  C          8.1300   13.4880   36.4100 C.2   109  GLN109      0.2287
     80  O          8.6480   12.5780   35.7690 O.2   109  GLN109     -0.2864
     81  CB         5.6340   13.5250   36.2440 C.3   109  GLN109      0.0394
     82  CG         4.4400   14.4420   36.4660 C.3   109  GLN109      0.0908
     83  CD         4.7430   15.5660   37.4620 C.2   109  GLN109      0.2608
     84  OE1        5.2920   15.3320   38.5480 O.2   109  GLN109     -0.2717
     85  NE2        4.3770   16.7920   37.0950 N.am  109  GLN109     -0.0878
     86  N          4.4840   13.2490   22.2700 N.3   127  LYS127     -0.1245
     87  CA         4.3610   14.6810   22.5240 C.3   127  LYS127      0.1561
     88  C          5.4770   15.4530   21.8270 C.2   127  LYS127      0.2260
     89  O          5.2510   16.5120   21.2450 O.2   127  LYS127     -0.2867
     90  CB         4.4120   14.9560   24.0290 C.3   127  LYS127      0.0271
     91  CG         3.1180   14.6270   24.7410 C.3   127  LYS127      0.0035
     92  CD         3.2190   14.8200   26.2290 C.3   127  LYS127      0.0206
     93  CE         1.9550   15.4720   26.7230 C.3   127  LYS127      0.1093
     94  NZ         1.6350   16.6760   25.8860 N.3   127  LYS127     -0.1314
     95  N          5.5840   18.3700   18.7980 N.3   131  LYS131     -0.1245
     96  CA         6.2460   19.6530   18.9980 C.3   131  LYS131      0.1561
     97  C          7.2830   19.9580   17.9330 C.2   131  LYS131      0.2260
     98  O          7.3580   21.0810   17.4420 O.2   131  LYS131     -0.2867
     99  CB         6.9100   19.7140   20.3770 C.3   131  LYS131      0.0271
    100  CG         5.9670   20.1130   21.4880 C.3   131  LYS131      0.0035
    101  CD         6.6860   20.2110   22.8200 C.3   131  LYS131      0.0206
    102  CE         5.7290   20.6040   23.9360 C.3   131  LYS131      0.1093
    103  NZ         4.6690   19.5880   24.2020 N.3   131  LYS131     -0.1314
@<TRIPOS>BOND
     1    98    97    2
     2    97    96    1
     3    95    96    1
     4    96    99    1
     5    99   100    1
     6    89    88    2
     7   100   101    1
     8    88    87    1
     9    86    87    1
    10    87    90    1
    11   101   102    1
    12   102   103    1
    13    90    91    1
    14    91    92    1
    15    62    61    2
    16    94    93    1
    17    61    60    1
    18    61    63   am
    19    59    60    1
    20    59    56    1
    21    92    93    1
    22    55    56    1
    23    56    57    1
    24    54    53    1
    25    49    48    2
    26    52    53    1
    27    52    51    1
    28    57    58    2
    29    57    64   am
    30    48    47    1
    31    64    65    1
    32    47    50    1
    33    47    46    1
    34    50    51    1
    35    40    39    1
    36    67    66    2
    37    65    66    1
    38    65    68    1
    39    66    70   am
    40    39    37   ar
    41    39    38   ar
    42    69    68    1
    43    37    35   ar
    44    74    75    1
    45    74    76    1
    46    74    71    1
    47    70    71    1
    48    38    36   ar
    49    71    72    1
    50    35    34   ar
    51    44    43    2
    52    32    31    2
    53    36    34   ar
    54    34    33    1
    55    43    42    1
    56    72    77   am
    57    72    73    2
    58    31    41   am
    59    31    30    1
    60    42    41    1
    61    42    45    1
    62    77    78    1
    63     7     6    1
    64    30    33    1
    65    30    29    1
    66     6     8    1
    67     6     5    1
    68    80    79    2
    69    78    81    1
    70    78    79    1
    71     1     2    1
    72    81    82    1
    73    82    83    1
    74     5     2    1
    75    85    83   am
    76     2     3    1
    77    21    20    1
    78    83    84    2
    79     3     4    2
    80    20    19    1
    81    25    24    2
    82    19    18    1
    83    12    11    2
    84    24    23    1
    85    27    26    1
    86    11    10    1
    87    11    13   am
    88    22    23    1
    89    22    15   am
    90    18    17    1
    91     9    10    1
    92    14    17    1
    93    14    13    1
    94    14    15    1
    95    23    26    1
    96    15    16    2
    97    26    28    1
