@<TRIPOS>MOLECULE
tmp/3qx8A00.pdb
 113 106 0 0 0
SMALL
GASTEIGER

@<TRIPOS>ATOM
      1  N         19.1570    1.4760  -11.5240 N.3    83  LEU83      -0.1245
      2  CA        20.3640    2.1260  -11.0240 C.3    83  LEU83       0.1561
      3  C         20.0400    3.0920   -9.8890 C.2    83  LEU83       0.2260
      4  O         18.9790    3.7130   -9.8770 O.2    83  LEU83      -0.2867
      5  CB        21.0430    2.8940  -12.1570 C.3    83  LEU83       0.0270
      6  CG        21.4170    2.0660  -13.3870 C.3    83  LEU83       0.0019
      7  CD1       21.8000    2.9710  -14.5350 C.3    83  LEU83       0.0001
      8  CD2       22.5540    1.1400  -13.0410 C.3    83  LEU83       0.0001
      9  N         20.7750    6.2700   -8.9250 N.3    85  GLY85      -0.1210
     10  CA        21.3410    7.5640   -9.2780 C.3    85  GLY85       0.1956
     11  C         22.5560    7.3450  -10.1730 C.2    85  GLY85       0.2612
     12  O         22.7460    6.2340  -10.6690 O.2    85  GLY85      -0.2717
     13  N         23.3780    8.3770  -10.3800 N.am   86  LYS86      -0.1965
     14  CA        24.5730    8.2400  -11.2230 C.3    86  LYS86       0.1728
     15  C         25.5940    7.2870  -10.6220 C.2    86  LYS86       0.2616
     16  O         25.9850    7.4260   -9.4620 O.2    86  LYS86      -0.2715
     17  CB        25.2220    9.5970  -11.5000 C.3    86  LYS86       0.0311
     18  CG        25.4570   10.4590  -10.2870 C.3    86  LYS86       0.0038
     19  CD        25.6680   11.9020  -10.7300 C.3    86  LYS86       0.0206
     20  CE        24.4690   12.4050  -11.5460 C.3    86  LYS86       0.1093
     21  NZ        24.7020   13.7520  -12.1400 N.3    86  LYS86      -0.1314
     22  N         26.0140    6.3200  -11.4350 N.am   87  THR87      -0.1951
     23  CA        26.9510    5.2810  -11.0300 C.3    87  THR87       0.1897
     24  C         27.6880    4.6960  -12.2350 C.2    87  THR87       0.2313
     25  O         27.1870    4.7160  -13.3580 O.2    87  THR87      -0.2863
     26  CB        26.1920    4.1400  -10.3230 C.3    87  THR87       0.1794
     27  OG1       27.0480    3.0010  -10.1910 O.3    87  THR87      -0.2208
     28  CG2       24.9390    3.7490  -11.1310 C.3    87  THR87       0.0378
     29  N         26.1760    1.9160  -14.8660 N.3    90  TYR90      -0.1241
     30  CA        25.5880    2.1980  -16.1660 C.3    90  TYR90       0.1605
     31  C         26.5680    1.9180  -17.3120 C.2    90  TYR90       0.2264
     32  O         26.2580    1.1650  -18.2410 O.2    90  TYR90      -0.2867
     33  CB        25.1430    3.6580  -16.2260 C.3    90  TYR90       0.0534
     34  CG        24.6430    4.0650  -17.5890 C.ar   90  TYR90      -0.0201
     35  CD1       23.3220    3.8280  -17.9730 C.ar   90  TYR90      -0.0009
     36  CD2       25.5040    4.6580  -18.5110 C.ar   90  TYR90      -0.0009
     37  CE1       22.8750    4.1780  -19.2490 C.ar   90  TYR90       0.0417
     38  CE2       25.0750    5.0030  -19.7710 C.ar   90  TYR90       0.0417
     39  CZ        23.7680    4.7670  -20.1360 C.ar   90  TYR90       0.1957
     40  OH        23.3930    5.1590  -21.3910 O.3    90  TYR90      -0.2866
     41  N         26.2380   -1.1110  -20.0150 N.3    94  LYS94      -0.1245
     42  CA        26.2630   -0.8990  -21.4580 C.3    94  LYS94       0.1561
     43  C         27.4560   -1.5740  -22.1090 C.2    94  LYS94       0.2260
     44  O         27.3190   -2.1740  -23.1800 O.2    94  LYS94      -0.2867
     45  CB        26.2510    0.5970  -21.7930 C.3    94  LYS94       0.0271
     46  CG        24.9490    1.2550  -21.3930 C.3    94  LYS94       0.0035
     47  CD        23.7740    0.4940  -22.0030 C.3    94  LYS94       0.0206
     48  CE        22.5040    0.6020  -21.1550 C.3    94  LYS94       0.1093
     49  NZ        21.2650    0.2350  -21.9410 N.3    94  LYS94      -0.1314
     50  N         25.9800   -4.2140  -24.6690 N.3    98  ASP98      -0.1239
     51  CA        26.1870   -3.7790  -26.0370 C.3    98  ASP98       0.1674
     52  C         27.4180   -4.3320  -26.7620 C.2    98  ASP98       0.2266
     53  O         27.2780   -4.9780  -27.8050 O.2    98  ASP98      -0.2867
     54  CB        26.1970   -2.2450  -26.1020 C.3    98  ASP98       0.1410
     55  CG        24.8310   -1.6470  -25.8390 C.2    98  ASP98       0.3668
     56  OD1       23.8350   -2.3840  -25.9830 O.co2  98  ASP98      -0.2456
     57  OD2       24.7450   -0.4430  -25.5030 O.co2  98  ASP98      -0.2456
     58  N         17.8520   -2.1160  -20.6470 N.3   106  GLN106     -0.1231
     59  CA        17.1170   -0.8810  -20.4630 C.3   106  GLN106      0.1698
     60  C         17.3080   -0.4540  -19.0220 C.2   106  GLN106      0.2592
     61  O         16.9390   -1.1710  -18.0870 O.2   106  GLN106     -0.2718
     62  CB        15.6360   -1.0790  -20.7430 C.3   106  GLN106      0.0381
     63  CG        14.8020    0.1690  -20.5180 C.3   106  GLN106      0.0905
     64  CD        15.2850    1.3490  -21.3370 C.2   106  GLN106      0.2608
     65  OE1       15.4120    1.2640  -22.5590 O.2   106  GLN106     -0.2717
     66  NE2       15.5520    2.4610  -20.6650 N.am  106  GLN106     -0.0878
     67  N         17.9070    0.7120  -18.8440 N.am  107  CYS107     -0.1956
     68  CA        18.1410    1.2210  -17.5120 C.3   107  CYS107      0.1843
     69  C         17.0130    2.1430  -17.1050 C.2   107  CYS107      0.2625
     70  O         16.3360    2.7370  -17.9460 O.2   107  CYS107     -0.2714
     71  CB        19.4680    1.9690  -17.4680 C.3   107  CYS107      0.0997
     72  SG        20.8410    0.9200  -17.8390 S.3   107  CYS107     -0.0797
     73  N         16.8120    2.2410  -15.8010 N.am  108  VAL108     -0.1963
     74  CA        15.7850    3.0960  -15.2400 C.3   108  VAL108      0.1727
     75  C         16.2510    3.5210  -13.8590 C.2   108  VAL108      0.2616
     76  O         16.8820    2.7450  -13.1420 O.2   108  VAL108     -0.2715
     77  CB        14.4300    2.3540  -15.1160 C.3   108  VAL108      0.0290
     78  CG1       14.5930    1.0950  -14.2850 C.3   108  VAL108      0.0023
     79  CG2       13.4000    3.2660  -14.4800 C.3   108  VAL108      0.0023
     80  N         15.9480    4.7590  -13.4990 N.am  109  GLN109     -0.1977
     81  CA        16.3170    5.2870  -12.2010 C.3   109  GLN109      0.1601
     82  C         15.4930    4.6650  -11.0860 C.2   109  GLN109      0.2287
     83  O         14.3090    4.3740  -11.2570 O.2   109  GLN109     -0.2864
     84  CB        16.1290    6.8040  -12.1850 C.3   109  GLN109      0.0394
     85  CG        17.3420    7.5700  -12.6500 C.3   109  GLN109      0.0908
     86  CD        18.5740    7.1600  -11.8730 C.2   109  GLN109      0.2608
     87  OE1       18.5910    7.2210  -10.6390 O.2   109  GLN109     -0.2717
     88  NE2       19.6110    6.7210  -12.5900 N.am  109  GLN109     -0.0878
     89  N         11.4580    3.8670  -24.9210 N.3   127  LYS127     -0.1245
     90  CA        12.8630    3.5000  -25.0670 C.3   127  LYS127      0.1561
     91  C         12.9670    2.0090  -25.3570 C.2   127  LYS127      0.2260
     92  O         13.7790    1.5760  -26.1740 O.2   127  LYS127     -0.2867
     93  CB        13.6470    3.8330  -23.8000 C.3   127  LYS127      0.0271
     94  CG        13.7510    5.3220  -23.4970 C.3   127  LYS127      0.0035
     95  CD        14.3430    5.5290  -22.1090 C.3   127  LYS127      0.0206
     96  CE        14.4750    7.0080  -21.7390 C.3   127  LYS127      0.1093
     97  NZ        15.4830    7.7270  -22.5630 N.3   127  LYS127     -0.1314
     98  N         11.9370    1.2300  -29.0220 N.3   130  VAL130     -0.1231
     99  CA        12.9500    1.5450  -30.0100 C.3   130  VAL130      0.1692
    100  C         14.0030    0.4400  -30.0250 C.2   130  VAL130      0.2591
    101  O         14.4230   -0.0190  -31.0920 O.2   130  VAL130     -0.2718
    102  CB        13.6290    2.8990  -29.6990 C.3   130  VAL130      0.0266
    103  CG1       14.9660    2.9940  -30.4150 C.3   130  VAL130      0.0020
    104  CG2       12.7270    4.0430  -30.1480 C.3   130  VAL130      0.0020
    105  N         14.4040    0.0030  -28.8330 N.am  131  LYS131     -0.1980
    106  CA        15.4240   -1.0340  -28.6840 C.3   131  LYS131      0.1596
    107  C         15.1090   -2.4110  -29.2660 C.2   131  LYS131      0.2287
    108  O         15.9880   -3.0540  -29.8360 O.2   131  LYS131     -0.2864
    109  CB        15.7980   -1.1950  -27.2120 C.3   131  LYS131      0.0298
    110  CG        16.5670   -0.0250  -26.6320 C.3   131  LYS131      0.0038
    111  CD        17.0120   -0.3430  -25.2200 C.3   131  LYS131      0.0206
    112  CE        17.9180    0.7200  -24.6390 C.3   131  LYS131      0.1093
    113  NZ        17.2200    2.0020  -24.3690 N.3   131  LYS131     -0.1314
@<TRIPOS>BOND
     1   101   100    2
     2   103   102    1
     3   104   102    1
     4   100    99    1
     5   100   105   am
     6    99   102    1
     7    99    98    1
     8   108   107    2
     9   107   106    1
    10   105   106    1
    11   106   109    1
    12    53    52    2
    13   109   110    1
    14    52    51    1
    15   110   111    1
    16    92    91    2
    17    54    51    1
    18    54    55    1
    19    51    50    1
    20    56    55   ar
    21    55    57   ar
    22    91    90    1
    23   111   112    1
    24    90    89    1
    25    90    93    1
    26   112   113    1
    27    93    94    1
    28    94    95    1
    29    44    43    2
    30    97    96    1
    31    65    64    2
    32    95    96    1
    33    43    42    1
    34    47    46    1
    35    47    48    1
    36    49    48    1
    37    45    42    1
    38    45    46    1
    39    42    41    1
    40    40    39    1
    41    64    66   am
    42    64    63    1
    43    62    63    1
    44    62    59    1
    45    58    59    1
    46    59    60    1
    47    39    38   ar
    48    39    37   ar
    49    38    36   ar
    50    37    35   ar
    51    60    67   am
    52    60    61    2
    53    67    68    1
    54    36    34   ar
    55    32    31    2
    56    35    34   ar
    57    70    69    2
    58    72    71    1
    59    34    33    1
    60    68    71    1
    61    68    69    1
    62    31    30    1
    63    69    73   am
    64    33    30    1
    65    30    29    1
    66    73    74    1
    67    74    77    1
    68    74    75    1
    69    77    79    1
    70    77    78    1
    71     7     6    1
    72    75    80   am
    73    75    76    2
    74    80    81    1
    75     6     8    1
    76     6     5    1
    77    25    24    2
    78    85    84    1
    79    85    86    1
    80    88    86   am
    81    24    23    1
    82    81    84    1
    83    81    82    1
    84     5     2    1
    85    21    20    1
    86    86    87    2
    87    20    19    1
    88     1     2    1
    89    17    14    1
    90    17    18    1
    91    22    23    1
    92    22    15   am
    93    83    82    2
    94    14    15    1
    95    14    13    1
    96    28    26    1
    97    23    26    1
    98     2     3    1
    99    19    18    1
   100    12    11    2
   101    15    16    2
   102    13    11   am
   103    26    27    1
   104    11    10    1
   105     3     4    2
   106    10     9    1
