@<TRIPOS>MOLECULE
tmp/3qx9B00.pdb
 105 99 0 0 0
SMALL
GASTEIGER

@<TRIPOS>ATOM
      1  N          0.8950   -6.9160   17.4920 N.3    82  LEU82      -0.1245
      2  CA         1.1900   -8.0310   18.3820 C.3    82  LEU82       0.1561
      3  C          2.6020   -7.8580   19.0130 C.2    82  LEU82       0.2260
      4  O          3.5040   -7.2970   18.3820 O.2    82  LEU82      -0.2867
      5  CB         1.0610   -9.3560   17.6040 C.3    82  LEU82       0.0270
      6  CG        -0.2370   -9.5710   16.8200 C.3    82  LEU82       0.0019
      7  CD1       -0.2570  -10.9070   16.1670 C.3    82  LEU82       0.0001
      8  CD2       -1.4090   -9.4400   17.7440 C.3    82  LEU82       0.0001
      9  N          4.5310  -10.3890   19.7270 N.3    84  GLY84      -0.1210
     10  CA         5.3980  -11.3850   19.1190 C.3    84  GLY84       0.1956
     11  C          4.5680  -12.5970   18.8410 C.2    84  GLY84       0.2612
     12  O          3.4810  -12.4680   18.3100 O.2    84  GLY84      -0.2717
     13  N          5.0440  -13.7620   19.2430 N.am   85  LYS85      -0.1965
     14  CA         4.1780  -14.9220   19.2510 C.3    85  LYS85       0.1728
     15  C          3.0820  -14.8970   20.3040 C.2    85  LYS85       0.2616
     16  O          3.3270  -14.6810   21.5090 O.2    85  LYS85      -0.2715
     17  CB         4.9950  -16.1770   19.4130 C.3    85  LYS85       0.0311
     18  CG         5.9590  -16.3360   18.2490 C.3    85  LYS85       0.0038
     19  CD         5.2900  -17.0720   17.1010 C.3    85  LYS85       0.0206
     20  CE         6.2990  -17.3640   15.9540 C.3    85  LYS85       0.1093
     21  NZ         5.6840  -17.1350   14.5980 N.3    85  LYS85      -0.1314
     22  N          1.8640  -15.1450   19.8420 N.am   86  THR86      -0.1951
     23  CA         0.7180  -14.9960   20.7010 C.3    86  THR86       0.1897
     24  C         -0.5400  -15.6910   20.1330 C.2    86  THR86       0.2313
     25  O         -0.7730  -15.7110   18.9260 O.2    86  THR86      -0.2863
     26  CB         0.4610  -13.5250   21.0720 C.3    86  THR86       0.1794
     27  OG1       -0.7060  -13.4600   21.8900 O.3    86  THR86      -0.2208
     28  CG2        0.2700  -12.6530   19.8610 C.3    86  THR86       0.0378
     29  N         -3.0570  -14.0800   17.7800 N.3    89  TYR89      -0.1241
     30  CA        -2.9580  -14.1460   16.3290 C.3    89  TYR89       0.1605
     31  C         -3.9400  -15.1170   15.6400 C.2    89  TYR89       0.2264
     32  O         -4.7540  -14.7000   14.8120 O.2    89  TYR89      -0.2867
     33  CB        -1.5470  -14.4820   15.9240 C.3    89  TYR89       0.0534
     34  CG        -1.4160  -14.5620   14.4440 C.ar   89  TYR89      -0.0201
     35  CD1       -1.5470  -15.7840   13.7760 C.ar   89  TYR89      -0.0009
     36  CD2       -1.1780  -13.4090   13.6890 C.ar   89  TYR89      -0.0009
     37  CE1       -1.4240  -15.8530   12.3890 C.ar   89  TYR89       0.0417
     38  CE2       -1.0580  -13.4740   12.3140 C.ar   89  TYR89       0.0417
     39  CZ        -1.1840  -14.6890   11.6640 C.ar   89  TYR89       0.1957
     40  OH        -1.0350  -14.7610   10.3010 O.3    89  TYR89      -0.2866
     41  N         -7.4960  -13.9490   13.3400 N.3    93  LYS93      -0.1245
     42  CA        -7.6950  -14.4400   12.0170 C.3    93  LYS93       0.1561
     43  C         -9.0420  -15.1550   11.9920 C.2    93  LYS93       0.2260
     44  O         -9.9120  -14.8130   11.2000 O.2    93  LYS93      -0.2867
     45  CB        -6.5580  -15.4090   11.6600 C.3    93  LYS93       0.0271
     46  CG        -5.2660  -14.7490   11.2440 C.3    93  LYS93       0.0035
     47  CD        -4.3180  -15.8070   10.7010 C.3    93  LYS93       0.0206
     48  CE        -3.8230  -15.5240    9.2590 C.3    93  LYS93       0.1093
     49  NZ        -4.8780  -15.6270    8.1530 N.3    93  LYS93      -0.1314
     50  N         -7.6260   -7.8270    8.1380 N.3   104  THR104     -0.1203
     51  CA        -6.6860   -7.5520    9.2400 C.3   104  THR104      0.1994
     52  C         -5.2310   -7.6860    8.7570 C.2   104  THR104      0.2618
     53  O         -4.9080   -8.4930    7.9000 O.2   104  THR104     -0.2717
     54  CB        -6.8910   -8.4970   10.4600 C.3   104  THR104      0.1784
     55  OG1       -6.6480   -9.8350   10.0600 O.3   104  THR104     -0.2211
     56  CG2       -8.2700   -8.3750   11.0610 C.3   104  THR104      0.0376
     57  N         -4.4030   -6.8540    9.2770 N.am  105  GLN105     -0.1965
     58  CA        -2.9770   -6.9750    9.0070 C.3   105  GLN105      0.1733
     59  C         -2.2080   -6.8210   10.3110 C.2   105  GLN105      0.2616
     60  O         -2.1870   -5.7370   10.9100 O.2   105  GLN105     -0.2715
     61  CB        -2.5420   -5.8930    8.0230 C.3   105  GLN105      0.0408
     62  CG        -1.0340   -5.9240    7.6190 C.3   105  GLN105      0.0908
     63  CD        -0.6360   -7.2850    7.1440 C.2   105  GLN105      0.2608
     64  OE1       -1.1750   -7.7710    6.1660 O.2   105  GLN105     -0.2717
     65  NE2        0.2430   -7.9530    7.8790 N.am  105  GLN105     -0.0878
     66  N         -1.5390   -7.8980   10.7640 N.am  106  CYS106     -0.1954
     67  CA        -0.6600   -7.9020   11.9380 C.3   106  CYS106      0.1843
     68  C          0.7440   -7.3190   11.6810 C.2   106  CYS106      0.2625
     69  O          1.3340   -7.5000   10.6120 O.2   106  CYS106     -0.2714
     70  CB        -0.5710   -9.3140   12.5440 C.3   106  CYS106      0.0997
     71  SG        -2.1520   -9.9580   13.0690 S.3   106  CYS106     -0.0797
     72  N          1.2410   -6.6040   12.6850 N.am  107  VAL107     -0.1963
     73  CA         2.5650   -5.9880   12.6600 C.3   107  VAL107      0.1727
     74  C          3.1540   -6.2070   14.0440 C.2   107  VAL107      0.2616
     75  O          2.4530   -6.1710   15.0390 O.2   107  VAL107     -0.2715
     76  CB         2.5030   -4.4810   12.2080 C.3   107  VAL107      0.0290
     77  CG1        1.5770   -3.7000   13.1020 C.3   107  VAL107      0.0023
     78  CG2        3.8910   -3.8390   12.1620 C.3   107  VAL107      0.0023
     79  N          4.4440   -6.4820   14.0930 N.am  108  GLN108     -0.1977
     80  CA         5.1160   -6.7330   15.3610 C.3   108  GLN108      0.1601
     81  C          5.3860   -5.4260   16.0410 C.2   108  GLN108      0.2287
     82  O          5.6800   -4.4500   15.3770 O.2   108  GLN108     -0.2864
     83  CB         6.4430   -7.4140   15.1230 C.3   108  GLN108      0.0394
     84  CG         6.2440   -8.7320   14.4030 C.3   108  GLN108      0.0908
     85  CD         5.6660   -9.7200   15.3130 C.2   108  GLN108      0.2608
     86  OE1        6.3300  -10.1820   16.2260 O.2   108  GLN108     -0.2717
     87  NE2        4.3820  -10.0380   15.1110 N.am  108  GLN108     -0.0878
     88  N          2.3150   -6.3790    2.0420 N.3   126  LYS126     -0.1245
     89  CA         1.3150   -7.2980    2.6050 C.3   126  LYS126      0.1561
     90  C         -0.0870   -6.7190    2.5630 C.2   126  LYS126      0.2260
     91  O         -1.0240   -7.3890    2.2080 O.2   126  LYS126     -0.2867
     92  CB         1.6370   -7.5990    4.0510 C.3   126  LYS126      0.0271
     93  CG         2.9290   -8.3230    4.3180 C.3   126  LYS126      0.0035
     94  CD         3.0570   -8.5020    5.8240 C.3   126  LYS126      0.0206
     95  CE         4.1940   -9.3890    6.2070 C.3   126  LYS126      0.1093
     96  NZ         4.1650  -10.6480    5.4110 N.3   126  LYS126     -0.1314
     97  N         -3.4430   -7.8320    0.2590 N.3   130  LYS130     -0.1245
     98  CA        -4.7210   -8.0240    0.9230 C.3   130  LYS130      0.1561
     99  C         -5.8120   -7.2240    0.2370 C.2   130  LYS130      0.2260
    100  O         -6.8260   -7.7830   -0.1820 O.2   130  LYS130     -0.2867
    101  CB        -4.6100   -7.7180    2.4440 C.3   130  LYS130      0.0271
    102  CG        -3.8950   -8.8820    3.2260 C.3   130  LYS130      0.0035
    103  CD        -3.9980   -8.8300    4.7850 C.3   130  LYS130      0.0206
    104  CE        -3.4880  -10.1600    5.4210 C.3   130  LYS130      0.1093
    105  NZ        -1.9870  -10.1820    5.5140 N.3   130  LYS130     -0.1314
@<TRIPOS>BOND
     1   100    99    2
     2    99    98    1
     3    97    98    1
     4    98   101    1
     5    88    89    1
     6    91    90    2
     7   101   102    1
     8    90    89    1
     9    89    92    1
    10   102   103    1
    11    92    93    1
    12    93    94    1
    13   103   104    1
    14    96    95    1
    15   104   105    1
    16    94    95    1
    17    64    63    2
    18    63    62    1
    19    63    65   am
    20    62    61    1
    21    53    52    2
    22    61    58    1
    23    50    51    1
    24    49    48    1
    25    52    51    1
    26    52    57   am
    27    58    57    1
    28    58    59    1
    29    51    54    1
    30    48    47    1
    31    55    54    1
    32    40    39    1
    33    59    66   am
    34    59    60    2
    35    54    56    1
    36    69    68    2
    37    47    46    1
    38    66    67    1
    39    44    43    2
    40    46    45    1
    41    45    42    1
    42    39    38   ar
    43    39    37   ar
    44    68    67    1
    45    68    72   am
    46    67    70    1
    47    43    42    1
    48    42    41    1
    49    78    76    1
    50    76    73    1
    51    76    77    1
    52    38    36   ar
    53    37    35   ar
    54    70    71    1
    55    73    72    1
    56    73    74    1
    57    36    34   ar
    58    35    34   ar
    59    74    79   am
    60    74    75    2
    61    79    80    1
    62    84    83    1
    63    84    85    1
    64    34    33    1
    65    21    20    1
    66    32    31    2
    67    87    85   am
    68    83    80    1
    69    85    86    2
    70    80    81    1
    71    82    81    2
    72    31    30    1
    73    33    30    1
    74    20    19    1
    75     7     6    1
    76    30    29    1
    77     6     5    1
    78     6     8    1
    79    19    18    1
    80     1     2    1
    81     5     2    1
    82    18    17    1
    83    12    11    2
    84     2     3    1
    85     4     3    2
    86    11    10    1
    87    11    13   am
    88    25    24    2
    89    10     9    1
    90    13    14    1
    91    14    17    1
    92    14    15    1
    93    22    15   am
    94    22    23    1
    95    28    26    1
    96    24    23    1
    97    15    16    2
    98    23    26    1
    99    26    27    1
