@<TRIPOS>MOLECULE
tmp/3qxaC00.pdb
 195 188 0 0 0
SMALL
GASTEIGER

@<TRIPOS>ATOM
      1  N        -10.4170   18.1220   31.1850 N.3     4  ILE4       -0.1245
      2  CA       -11.0430   17.7800   32.4560 C.3     4  ILE4        0.1561
      3  C        -12.5560   17.8680   32.3120 C.2     4  ILE4        0.2260
      4  O        -13.0910   18.9130   31.9420 O.2     4  ILE4       -0.2867
      5  CB       -10.5950   18.7180   33.5890 C.3     4  ILE4        0.0252
      6  CG1       -9.0730   18.6880   33.7410 C.3     4  ILE4        0.0019
      7  CG2      -11.2710   18.3300   34.8950 C.3     4  ILE4        0.0019
      8  CD1       -8.5570   19.5790   34.8490 C.3     4  ILE4        0.0001
      9  N        -16.3670   17.3620   34.0630 N.3     6  GLN6       -0.1245
     10  CA       -17.3040   17.1190   35.1480 C.3     6  GLN6        0.1566
     11  C        -18.5340   16.4440   34.5560 C.2     6  GLN6        0.2260
     12  O        -19.3270   17.0810   33.8640 O.2     6  GLN6       -0.2867
     13  CB       -17.6960   18.4270   35.8330 C.3     6  GLN6        0.0367
     14  CG       -18.8080   18.2770   36.8580 C.3     6  GLN6        0.0905
     15  CD       -19.1900   19.5950   37.5010 C.2     6  GLN6        0.2608
     16  OE1      -18.3410   20.4560   37.7310 O.2     6  GLN6       -0.2717
     17  NE2      -20.4740   19.7610   37.7900 N.am    6  GLN6       -0.0878
     18  N        -22.0590   14.3000   34.9440 N.3     8  GLU8       -0.1245
     19  CA       -23.1790   13.9160   35.7900 C.3     8  GLU8        0.1567
     20  C        -24.2380   13.2150   34.9530 C.2     8  GLU8        0.2260
     21  O        -24.4360   13.5500   33.7860 O.2     8  GLU8       -0.2867
     22  CB       -23.7990   15.1500   36.4450 C.3     8  GLU8        0.0388
     23  CG       -22.8020   16.0820   37.1070 C.3     8  GLU8        0.1160
     24  CD       -23.4390   17.3830   37.5520 C.2     8  GLU8        0.3649
     25  OE1      -24.6670   17.3990   37.7740 O.co2   8  GLU8       -0.2457
     26  OE2      -22.7150   18.3920   37.6700 O.co2   8  GLU8       -0.2457
     27  N        -21.9560   11.4050   39.8940 N.3    19  PHE19      -0.1241
     28  CA       -21.1790   12.6250   39.7650 C.3    19  PHE19       0.1605
     29  C        -19.7060   12.2520   39.8190 C.2    19  PHE19       0.2264
     30  O        -19.2690   11.5650   40.7420 O.2    19  PHE19      -0.2867
     31  CB       -21.5140   13.5970   40.8960 C.3    19  PHE19       0.0534
     32  CG       -20.8630   14.9420   40.7520 C.ar   19  PHE19      -0.0203
     33  CD1      -19.5220   15.1140   41.0560 C.ar   19  PHE19      -0.0042
     34  CD2      -21.5920   16.0350   40.3170 C.ar   19  PHE19      -0.0042
     35  CE1      -18.9190   16.3520   40.9240 C.ar   19  PHE19      -0.0003
     36  CE2      -20.9960   17.2760   40.1830 C.ar   19  PHE19      -0.0003
     37  CZ       -19.6580   17.4340   40.4870 C.ar   19  PHE19      -0.0000
     38  N        -15.4160   13.3480   38.1430 N.3    21  PHE21      -0.1241
     39  CA       -14.5050   14.1350   37.3260 C.3    21  PHE21       0.1605
     40  C        -13.6290   13.2120   36.4920 C.2    21  PHE21       0.2264
     41  O        -13.1790   12.1690   36.9690 O.2    21  PHE21      -0.2867
     42  CB       -13.6410   15.0460   38.1990 C.3    21  PHE21       0.0534
     43  CG       -14.2100   16.4250   38.3850 C.ar   21  PHE21      -0.0203
     44  CD1      -15.3670   16.6210   39.1200 C.ar   21  PHE21      -0.0042
     45  CD2      -13.5830   17.5260   37.8270 C.ar   21  PHE21      -0.0042
     46  CE1      -15.8910   17.8900   39.2910 C.ar   21  PHE21      -0.0003
     47  CE2      -14.1000   18.7960   37.9960 C.ar   21  PHE21      -0.0003
     48  CZ       -15.2560   18.9790   38.7280 C.ar   21  PHE21      -0.0000
     49  N        -10.8300   10.9520   38.1400 N.3    28  ILE28      -0.1231
     50  CA       -10.1630   11.6480   39.2300 C.3    28  ILE28       0.1692
     51  C        -10.8390   11.2660   40.5390 C.2    28  ILE28       0.2592
     52  O        -10.1810   10.8680   41.5010 O.2    28  ILE28      -0.2718
     53  CB       -10.2190   13.1730   39.0490 C.3    28  ILE28       0.0266
     54  CG1       -9.5690   13.5740   37.7230 C.3    28  ILE28       0.0019
     55  CG2       -9.5370   13.8740   40.2140 C.3    28  ILE28       0.0020
     56  CD1       -9.5420   15.0680   37.4830 C.3    28  ILE28       0.0001
     57  N        -12.1620   11.3860   40.5610 N.am   29  PHE29      -0.1976
     58  CA       -12.9560   10.9750   41.7090 C.3    29  PHE29       0.1639
     59  C        -14.4340   10.9320   41.3510 C.2    29  PHE29       0.2290
     60  O        -14.8470   11.4220   40.3010 O.2    29  PHE29      -0.2864
     61  CB       -12.7400   11.9250   42.8890 C.3    29  PHE29       0.0560
     62  CG       -13.3680   13.2800   42.7020 C.ar   29  PHE29      -0.0200
     63  CD1      -14.6950   13.4970   43.0380 C.ar   29  PHE29      -0.0042
     64  CD2      -12.6300   14.3360   42.1970 C.ar   29  PHE29      -0.0042
     65  CE1      -15.2740   14.7400   42.8680 C.ar   29  PHE29      -0.0003
     66  CE2      -13.2030   15.5820   42.0260 C.ar   29  PHE29      -0.0003
     67  CZ       -14.5270   15.7840   42.3620 C.ar   29  PHE29      -0.0000
     68  N        -12.0390    9.3620   46.0130 N.3    40  TRP40      -0.1241
     69  CA       -10.9580    9.5500   45.0530 C.3    40  TRP40       0.1605
     70  C        -10.5490    8.2250   44.4130 C.2    40  TRP40       0.2264
     71  O        -10.5770    7.1780   45.0600 O.2    40  TRP40      -0.2867
     72  CB        -9.7550   10.2110   45.7280 C.3    40  TRP40       0.0550
     73  CG       -10.0740   11.5360   46.3540 C.ar   40  TRP40       0.0003
     74  CD1      -10.4750   11.7610   47.6390 C.ar   40  TRP40       0.0946
     75  CD2      -10.0230   12.8200   45.7200 C.ar   40  TRP40       0.0152
     76  NE1      -10.6750   13.1040   47.8450 N.ar   40  TRP40      -0.2442
     77  CE2      -10.4040   13.7760   46.6820 C.ar   40  TRP40       0.0810
     78  CE3       -9.6920   13.2540   44.4330 C.ar   40  TRP40       0.0012
     79  CZ2      -10.4630   15.1390   46.3980 C.ar   40  TRP40       0.0191
     80  CZ3       -9.7500   14.6070   44.1530 C.ar   40  TRP40       0.0001
     81  CH2      -10.1330   15.5330   45.1310 C.ar   40  TRP40       0.0015
     82  N         -3.8970   16.1500   47.9230 N.3    48  PHE48      -0.1227
     83  CA        -3.5120   17.3280   47.1500 C.3    48  PHE48       0.1736
     84  C         -4.6760   18.2860   47.0020 C.2    48  PHE48       0.2595
     85  O         -4.4920   19.4980   46.8990 O.2    48  PHE48      -0.2718
     86  CB        -3.0310   16.9300   45.7580 C.3    48  PHE48       0.0547
     87  CG        -1.7540   16.1590   45.7590 C.ar   48  PHE48      -0.0202
     88  CD1       -0.5390   16.8130   45.8460 C.ar   48  PHE48      -0.0042
     89  CD2       -1.7650   14.7800   45.6620 C.ar   48  PHE48      -0.0042
     90  CE1        0.6410   16.1080   45.8460 C.ar   48  PHE48      -0.0003
     91  CE2       -0.5870   14.0690   45.6610 C.ar   48  PHE48      -0.0003
     92  CZ         0.6180   14.7330   45.7520 C.ar   48  PHE48      -0.0000
     93  N         -5.8770   17.7270   46.9800 N.am   49  ALA49      -0.1966
     94  CA        -7.0790   18.5100   46.7710 C.3    49  ALA49       0.1728
     95  C         -8.2330   17.9150   47.5840 C.2    49  ALA49       0.2617
     96  O         -8.0440   16.9470   48.3330 O.2    49  ALA49      -0.2715
     97  CB        -7.4150   18.5760   45.2740 C.3    49  ALA49       0.0334
     98  N         -9.4140   18.5140   47.4460 N.am   50  SER50      -0.1936
     99  CA       -10.6120   18.0960   48.1710 C.3    50  SER50       0.2055
    100  C        -11.8620   18.6550   47.4920 C.2    50  SER50       0.2643
    101  O        -11.7940   19.6390   46.7490 O.2    50  SER50      -0.2714
    102  CB       -10.5540   18.5710   49.6130 C.3    50  SER50       0.2130
    103  OG        -9.6020   19.6210   49.7260 O.3    50  SER50      -0.2179
    104  N        -13.0030   18.0280   47.7600 N.am   51  PHE51      -0.1959
    105  CA       -14.2490   18.3860   47.1080 C.3    51  PHE51       0.1771
    106  C        -15.4380   18.1900   48.0420 C.2    51  PHE51       0.2619
    107  O        -15.6370   17.1080   48.6050 O.2    51  PHE51      -0.2715
    108  CB       -14.4080   17.5370   45.8540 C.3    51  PHE51       0.0574
    109  CG       -15.6210   17.8630   45.0470 C.ar   51  PHE51      -0.0200
    110  CD1      -15.5810   18.8520   44.0800 C.ar   51  PHE51      -0.0042
    111  CD2      -16.7970   17.1620   45.2370 C.ar   51  PHE51      -0.0042
    112  CE1      -16.6990   19.1450   43.3230 C.ar   51  PHE51      -0.0003
    113  CE2      -17.9180   17.4470   44.4870 C.ar   51  PHE51      -0.0003
    114  CZ       -17.8710   18.4410   43.5260 C.ar   51  PHE51      -0.0000
    115  N        -16.2230   19.2490   48.2090 N.am   52  GLU52      -0.1977
    116  CA       -17.4360   19.1840   49.0160 C.3    52  GLU52       0.1602
    117  C        -18.4910   18.3110   48.3390 C.2    52  GLU52       0.2287
    118  O        -19.1270   18.7280   47.3740 O.2    52  GLU52      -0.2864
    119  CB       -17.9990   20.5820   49.2680 C.3    52  GLU52       0.0415
    120  CG       -19.2340   20.5810   50.1460 C.3    52  GLU52       0.1163
    121  CD       -18.9350   20.1440   51.5690 C.2    52  GLU52       0.3649
    122  OE1      -18.1460   20.8270   52.2610 O.co2  52  GLU52      -0.2457
    123  OE2      -19.4940   19.1140   51.9970 O.co2  52  GLU52      -0.2457
    124  N        -22.2220   19.4760   47.3970 N.3    55  GLY55      -0.1210
    125  CA       -22.5070   20.1470   46.1430 C.3    55  GLY55       0.1956
    126  C        -22.9780   19.1850   45.0700 C.2    55  GLY55       0.2611
    127  O        -23.9100   19.4820   44.3230 O.2    55  GLY55      -0.2717
    128  N        -22.3300   18.0270   44.9940 N.am   56  ALA56      -0.1979
    129  CA       -22.6690   17.0190   43.9950 C.3    56  ALA56       0.1597
    130  C        -24.1250   16.5800   44.1080 C.2    56  ALA56       0.2287
    131  O        -24.8000   16.3720   43.1000 O.2    56  ALA56      -0.2864
    132  CB       -21.7410   15.8190   44.1120 C.3    56  ALA56       0.0319
    133  N        -26.5710   19.1830   42.6980 N.3    59  ASN59      -0.1240
    134  CA       -26.6150   19.0140   41.2500 C.3    59  ASN59       0.1653
    135  C        -27.5110   17.8540   40.8350 C.2    59  ASN59       0.2266
    136  O        -28.4120   18.0190   40.0120 O.2    59  ASN59      -0.2867
    137  CB       -25.2080   18.8080   40.6860 C.3    59  ASN59       0.1155
    138  CG       -24.4230   20.0990   40.5900 C.2    59  ASN59       0.2627
    139  OD1      -24.6890   21.0580   41.3160 O.2    59  ASN59      -0.2716
    140  ND2      -23.4540   20.1350   39.6830 N.am   59  ASN59      -0.0877
    141  N        -31.1310   18.6510   40.8310 N.3    62  VAL62      -0.1231
    142  CA       -31.5020   19.4470   39.6670 C.3    62  VAL62       0.1692
    143  C        -31.5160   18.5910   38.4050 C.2    62  VAL62       0.2592
    144  O        -32.3860   18.7460   37.5470 O.2    62  VAL62      -0.2718
    145  CB       -30.5410   20.6360   39.4690 C.3    62  VAL62       0.0266
    146  CG1      -30.8300   21.3450   38.1540 C.3    62  VAL62       0.0020
    147  CG2      -30.6460   21.6030   40.6370 C.3    62  VAL62       0.0020
    148  N        -30.5470   17.6860   38.3000 N.am   63  ASP63      -0.1974
    149  CA       -30.4570   16.7870   37.1560 C.3    63  ASP63       0.1709
    150  C        -31.7070   15.9230   37.0360 C.2    63  ASP63       0.2293
    151  O        -32.2890   15.8090   35.9580 O.2    63  ASP63      -0.2864
    152  CB       -29.2160   15.9010   37.2660 C.3    63  ASP63       0.1436
    153  CG       -27.9270   16.6910   37.1770 C.2    63  ASP63       0.3671
    154  OD1      -27.8170   17.5560   36.2810 O.co2  63  ASP63      -0.2456
    155  OD2      -27.0280   16.4510   38.0080 O.co2  63  ASP63      -0.2456
    156  N        -34.6400   16.5380   38.2710 N.3    65  ALA65      -0.1231
    157  CA       -35.7210   17.4440   37.9060 C.3    65  ALA65       0.1694
    158  C        -35.7140   17.7150   36.4060 C.2    65  ALA65       0.2592
    159  O        -36.7450   17.6090   35.7420 O.2    65  ALA65      -0.2718
    160  CB       -35.6100   18.7450   38.6850 C.3    65  ALA65       0.0304
    161  N        -34.5440   18.0620   35.8770 N.am   66  ASN66      -0.1974
    162  CA       -34.3990   18.3290   34.4500 C.3    66  ASN66       0.1688
    163  C        -34.7130   17.1070   33.5930 C.2    66  ASN66       0.2292
    164  O        -35.2740   17.2320   32.5040 O.2    66  ASN66      -0.2864
    165  CB       -32.9960   18.8520   34.1340 C.3    66  ASN66       0.1181
    166  CG       -32.7970   20.2880   34.5760 C.2    66  ASN66       0.2629
    167  OD1      -33.7540   21.0560   34.6750 O.2    66  ASN66      -0.2716
    168  ND2      -31.5500   20.6600   34.8380 N.am   66  ASN66      -0.0877
    169  N        -38.4630   16.7050   33.3120 N.3    69  ILE69      -0.1231
    170  CA       -38.9400   17.6990   32.3580 C.3    69  ILE69       0.1692
    171  C        -38.6760   17.2490   30.9260 C.2    69  ILE69       0.2591
    172  O        -39.5810   17.2360   30.0930 O.2    69  ILE69      -0.2718
    173  CB       -38.2670   19.0660   32.5790 C.3    69  ILE69       0.0266
    174  CG1      -38.7360   19.6850   33.8960 C.3    69  ILE69       0.0019
    175  CG2      -38.5680   20.0040   31.4190 C.3    69  ILE69       0.0020
    176  CD1      -38.1330   21.0450   34.1780 C.3    69  ILE69       0.0001
    177  N        -37.4290   16.8770   30.6500 N.am   70  MET70      -0.1979
    178  CA       -37.0260   16.4580   29.3110 C.3    70  MET70       0.1605
    179  C        -37.7790   15.2160   28.8500 C.2    70  MET70       0.2287
    180  O        -38.2150   15.1380   27.7020 O.2    70  MET70      -0.2864
    181  CB       -35.5190   16.2090   29.2570 C.3    70  MET70       0.0413
    182  CG       -34.6860   17.4640   29.4280 C.3    70  MET70       0.0598
    183  SD       -35.0690   18.7120   28.1840 S.3    70  MET70      -0.1393
    184  CE       -34.8160   17.7760   26.6780 C.3    70  MET70       0.0692
    185  N        -40.9890   16.5680   27.7170 N.3    73  ARG73      -0.1245
    186  CA       -40.7890   17.4050   26.5420 C.3    73  ARG73       0.1563
    187  C        -40.5760   16.5650   25.2850 C.2    73  ARG73       0.2260
    188  O        -41.0310   16.9300   24.2000 O.2    73  ARG73      -0.2867
    189  CB       -39.5980   18.3430   26.7590 C.3    73  ARG73       0.0307
    190  CG       -39.4890   19.4700   25.7480 C.3    73  ARG73       0.0489
    191  CD       -38.2520   20.3310   25.9990 C.3    73  ARG73       0.2205
    192  NE       -38.3550   21.1370   27.2150 N.pl3  73  ARG73      -0.0865
    193  CZ       -37.3770   21.9040   27.6920 C.cat  73  ARG73       0.5346
    194  NH1      -36.2110   21.9700   27.0640 N.pl3  73  ARG73       0.1354
    195  NH2      -37.5600   22.6060   28.8030 N.pl3  73  ARG73       0.1354
@<TRIPOS>BOND
     1   188   187    2
     2   187   186    1
     3   190   191    1
     4   190   189    1
     5   191   192    1
     6   186   189    1
     7   186   185    1
     8   184   183    1
     9   194   193    1
    10   192   193    2
    11   193   195    1
    12   180   179    2
    13   183   182    1
    14   179   178    1
    15   181   178    1
    16   181   182    1
    17   178   177    1
    18   172   171    2
    19   177   171   am
    20   171   170    1
    21     1     2    1
    22   175   173    1
    23     4     3    2
    24     3     2    1
    25   170   173    1
    26   170   169    1
    27     2     5    1
    28   164   163    2
    29   173   174    1
    30     5     6    1
    31     5     7    1
    32   163   162    1
    33     6     8    1
    34    21    20    2
    35    12    11    2
    36   174   176    1
    37     9    10    1
    38   165   162    1
    39   165   166    1
    40   162   161    1
    41    11    10    1
    42   166   167    2
    43   166   168   am
    44    18    19    1
    45    20    19    1
    46    10    13    1
    47   159   158    2
    48    19    22    1
    49    13    14    1
    50   161   158   am
    51   151   150    2
    52   154   153   ar
    53   158   157    1
    54    22    23    1
    55    40    41    2
    56    40    39    1
    57    14    15    1
    58   150   149    1
    59    23    24    1
    60   149   152    1
    61   149   148    1
    62   153   152    1
    63   153   155   ar
    64    39    38    1
    65    39    42    1
    66    56    54    1
    67    15    16    2
    68    15    17   am
    69   144   143    2
    70    24    26   ar
    71    24    25   ar
    72    54    53    1
    73    45    47   ar
    74    45    43   ar
    75   157   156    1
    76   157   160    1
    77    47    48   ar
    78    49    50    1
    79   146   145    1
    80    42    43    1
    81   148   143   am
    82    43    44   ar
    83   143   142    1
    84    48    46   ar
    85    53    50    1
    86    53    55    1
    87    44    46   ar
    88    50    51    1
    89   145   142    1
    90   145   147    1
    91   142   141    1
    92   140   138   am
    93    28    29    1
    94    28    27    1
    95    28    31    1
    96    29    30    2
    97   136   135    2
    98    36    34   ar
    99    36    37   ar
   100    60    59    2
   101    34    32   ar
   102    37    35   ar
   103    51    57   am
   104    51    52    2
   105    57    58    1
   106   138   137    1
   107   138   139    2
   108   137   134    1
   109    32    31    1
   110    32    33   ar
   111   135   134    1
   112    35    33   ar
   113   134   133    1
   114    59    58    1
   115    58    61    1
   116    66    64   ar
   117    66    67   ar
   118    64    62   ar
   119    67    65   ar
   120    62    61    1
   121    62    63   ar
   122    65    63   ar
   123   131   130    2
   124   112   114   ar
   125   112   110   ar
   126   114   113   ar
   127   129   130    1
   128   129   132    1
   129   129   128    1
   130   110   109   ar
   131    80    78   ar
   132    80    81   ar
   133   127   126    2
   134    70    69    1
   135    70    71    2
   136    78    75   ar
   137   113   111   ar
   138   128   126   am
   139   109   111   ar
   140   109   108    1
   141    69    72    1
   142    69    68    1
   143   126   125    1
   144    81    79   ar
   145    97    94    1
   146    91    89   ar
   147    91    92   ar
   148    89    87   ar
   149    75    73   ar
   150    75    77   ar
   151    72    73    1
   152    92    90   ar
   153    86    87    1
   154    86    83    1
   155    87    88   ar
   156    90    88   ar
   157   108   105    1
   158   125   124    1
   159    73    74   ar
   160    79    77   ar
   161    77    76   ar
   162   101   100    2
   163    94    93    1
   164    94    95    1
   165    85    84    2
   166    93    84   am
   167    84    83    1
   168   105   104    1
   169   105   106    1
   170    83    82    1
   171   118   117    2
   172    98    95   am
   173    98    99    1
   174   100   104   am
   175   100    99    1
   176    95    96    2
   177    74    76   ar
   178   106   115   am
   179   106   107    2
   180    99   102    1
   181   115   116    1
   182   117   116    1
   183   116   119    1
   184   119   120    1
   185   102   103    1
   186   120   121    1
   187   121   123   ar
   188   121   122   ar
