@<TRIPOS>MOLECULE
tmp/3qxcA00.pdb
 120 113 0 0 0
SMALL
GASTEIGER

@<TRIPOS>ATOM
      1  N          6.7190  -24.6770  -26.3750 N.3    13  THR13      -0.1203
      2  CA         6.7220  -25.6300  -25.2930 C.3    13  THR13       0.1994
      3  C          7.5870  -26.7990  -25.7030 C.2    13  THR13       0.2618
      4  O          7.6490  -27.2200  -26.8420 O.2    13  THR13      -0.2717
      5  CB         5.2870  -25.9730  -24.9030 C.3    13  THR13       0.1784
      6  OG1        5.3440  -26.9150  -23.8330 O.3    13  THR13      -0.2211
      7  CG2        4.5720  -26.4630  -26.0510 C.3    13  THR13       0.0376
      8  N          8.3510  -27.2590  -24.7290 N.am   14  ASN14      -0.1960
      9  CA         9.2300  -28.4120  -24.8430 C.3    14  ASN14       0.1819
     10  C         10.5720  -28.0550  -25.5200 C.2    14  ASN14       0.2621
     11  O         11.3860  -28.9860  -25.7420 O.2    14  ASN14      -0.2715
     12  CB         8.5590  -29.5870  -25.5820 C.3    14  ASN14       0.1195
     13  CG         8.9600  -30.9380  -25.0730 C.2    14  ASN14       0.2630
     14  OD1        8.8250  -31.2250  -23.8650 O.2    14  ASN14      -0.2716
     15  ND2        9.4530  -31.8170  -26.0160 N.am   14  ASN14      -0.0877
     16  N         10.8920  -26.7680  -25.7800 N.am   15  ALA15      -0.1963
     17  CA        12.1290  -26.3470  -26.4740 C.3    15  ALA15       0.1728
     18  C         13.3360  -26.5940  -25.6010 C.2    15  ALA15       0.2617
     19  O         14.4230  -26.7890  -26.1150 O.2    15  ALA15      -0.2715
     20  CB        12.1070  -24.9230  -26.9060 C.3    15  ALA15       0.0334
     21  N         13.1850  -26.5390  -24.2760 N.am   16  GLY16      -0.1940
     22  CA        14.2930  -26.7780  -23.3580 C.3    16  GLY16       0.2014
     23  C         14.4950  -25.7340  -22.2480 C.2    16  GLY16       0.2639
     24  O         15.5770  -25.6390  -21.6790 O.2    16  GLY16      -0.2714
     25  N         13.4490  -24.9910  -21.8730 N.am   17  LYS17      -0.1963
     26  CA        13.5730  -24.0370  -20.7810 C.3    17  LYS17       0.1728
     27  C         14.0860  -24.6720  -19.4910 C.2    17  LYS17       0.2617
     28  O         15.0320  -24.1030  -18.8970 O.2    17  LYS17      -0.2715
     29  CB        12.2520  -23.3230  -20.4630 C.3    17  LYS17       0.0311
     30  CG        11.6700  -22.5240  -21.6560 C.3    17  LYS17       0.0038
     31  CD        10.3480  -21.8980  -21.2960 C.3    17  LYS17       0.0206
     32  CE         9.2370  -22.8800  -21.0260 C.3    17  LYS17       0.1093
     33  NZ         8.9010  -23.7100  -22.2390 N.3    17  LYS17      -0.1314
     34  N         13.4490  -25.7290  -19.0430 N.am   18  THR18      -0.1937
     35  CA        13.8110  -26.2960  -17.7840 C.3    18  THR18       0.2028
     36  C         15.2010  -26.9210  -17.8340 C.2    18  THR18       0.2642
     37  O         16.0140  -26.7370  -16.8990 O.2    18  THR18      -0.2714
     38  CB        12.7600  -27.3360  -17.3820 C.3    18  THR18       0.1808
     39  OG1       11.5090  -26.7040  -17.2540 O.3    18  THR18      -0.2208
     40  CG2       13.1170  -28.0660  -16.0790 C.3    18  THR18       0.0379
     41  N         15.5380  -27.6250  -18.8990 N.am   19  THR19      -0.1950
     42  CA        16.8760  -28.2110  -19.0460 C.3    19  THR19       0.1897
     43  C         17.9540  -27.1230  -18.9570 C.2    19  THR19       0.2313
     44  O         18.9650  -27.2410  -18.2560 O.2    19  THR19      -0.2863
     45  CB        16.9900  -28.9480  -20.4000 C.3    19  THR19       0.1794
     46  OG1       16.0110  -30.0210  -20.4130 O.3    19  THR19      -0.2208
     47  CG2       18.3280  -29.5990  -20.6330 C.3    19  THR19       0.0378
     48  N          9.3760  -21.3810  -10.8260 N.3    39  LYS39      -0.1245
     49  CA         8.4050  -21.7130  -11.8820 C.3    39  LYS39       0.1561
     50  C          7.0700  -21.1710  -11.4330 C.2    39  LYS39       0.2260
     51  O          6.2290  -21.9270  -10.9010 O.2    39  LYS39      -0.2867
     52  CB         8.3920  -23.2510  -12.0990 C.3    39  LYS39       0.0271
     53  CG         7.4110  -23.7140  -13.2110 C.3    39  LYS39       0.0035
     54  CD         7.8790  -23.5480  -14.6720 C.3    39  LYS39       0.0206
     55  CE         6.8510  -24.0710  -15.6480 C.3    39  LYS39       0.1093
     56  NZ         7.2330  -23.9460  -17.0770 N.3    39  LYS39      -0.1314
     57  N          8.1360  -29.2770  -13.4290 N.3    54  ASP54      -0.1239
     58  CA         9.2580  -28.3300  -13.4480 C.3    54  ASP54       0.1674
     59  C          9.5410  -27.7850  -12.1060 C.2    54  ASP54       0.2266
     60  O         10.7110  -27.7150  -11.6690 O.2    54  ASP54      -0.2867
     61  CB         9.0140  -27.2180  -14.4400 C.3    54  ASP54       0.1410
     62  CG         8.9550  -27.6550  -15.8880 C.2    54  ASP54       0.3668
     63  OD1        9.2130  -28.8510  -16.1450 O.co2  54  ASP54      -0.2456
     64  OD2        8.6730  -26.7540  -16.7280 O.co2  54  ASP54      -0.2456
     65  N         11.3690  -19.4070  -14.8300 N.3   120  GLU120     -0.1245
     66  CA        10.9030  -20.0950  -16.0830 C.3   120  GLU120      0.1567
     67  C          9.4570  -19.6620  -16.2930 C.2   120  GLU120      0.2260
     68  O          8.6330  -19.7850  -15.3830 O.2   120  GLU120     -0.2867
     69  CB        11.0110  -21.5740  -16.0050 C.3   120  GLU120      0.0388
     70  CG        10.4860  -22.2410  -17.2630 C.3   120  GLU120      0.1160
     71  CD        10.6970  -23.7670  -17.2730 C.2   120  GLU120      0.3649
     72  OE1       11.5630  -24.2490  -16.5720 O.co2 120  GLU120     -0.2457
     73  OE2        9.9510  -24.4270  -18.0250 O.co2 120  GLU120     -0.2457
     74  N          5.9700  -20.0510  -19.1410 N.3   122  ALA122     -0.1231
     75  CA         5.2590  -21.2160  -19.6440 C.3   122  ALA122      0.1694
     76  C          4.6890  -20.8320  -20.9820 C.2   122  ALA122      0.2592
     77  O          4.2710  -19.6740  -21.1940 O.2   122  ALA122     -0.2718
     78  CB         4.1360  -21.5870  -18.6830 C.3   122  ALA122      0.0304
     79  N          4.7350  -21.7270  -21.9550 N.am  123  GLY123     -0.1957
     80  CA         3.9210  -21.5350  -23.1610 C.3   123  GLY123      0.1869
     81  C          4.5790  -20.7590  -24.2850 C.2   123  GLY123      0.2309
     82  O          4.6990  -21.2410  -25.3910 O.2   123  GLY123     -0.2863
     83  N         18.9620  -24.3880  -27.9880 N.3   179  ASN179     -0.1225
     84  CA        19.2540  -25.5880  -27.2030 C.3   179  ASN179      0.1785
     85  C         19.5690  -26.7480  -28.1510 C.2   179  ASN179      0.2597
     86  O         18.6680  -27.3870  -28.7170 O.2   179  ASN179     -0.2718
     87  CB        18.0470  -25.9080  -26.3130 C.3   179  ASN179      0.1169
     88  CG        18.1410  -27.2070  -25.6140 C.2   179  ASN179      0.2627
     89  OD1       19.2490  -27.6860  -25.2950 O.2   179  ASN179     -0.2716
     90  ND2       17.0220  -27.8170  -25.3310 N.am  179  ASN179     -0.0877
     91  N         20.8360  -26.8890  -28.4270 N.am  180  LEU180     -0.1966
     92  CA        21.3550  -27.8540  -29.3940 C.3   180  LEU180      0.1728
     93  C         21.5840  -29.1960  -28.7280 C.2   180  LEU180      0.2616
     94  O         22.4260  -29.3390  -27.8470 O.2   180  LEU180     -0.2715
     95  CB        22.6430  -27.3220  -30.0130 C.3   180  LEU180      0.0311
     96  CG        23.3430  -28.2390  -31.0050 C.3   180  LEU180      0.0022
     97  CD1       22.3740  -28.5860  -32.1760 C.3   180  LEU180      0.0001
     98  CD2       24.5610  -27.5230  -31.5400 C.3   180  LEU180      0.0001
     99  N         20.7480  -30.1200  -29.1270 N.am  181  LYS181     -0.1963
    100  CA        20.6890  -31.4420  -28.4710 C.3   181  LYS181      0.1728
    101  C         21.7800  -32.3110  -29.0690 C.2   181  LYS181      0.2616
    102  O         22.2930  -32.1830  -30.1850 O.2   181  LYS181     -0.2715
    103  CB        19.2770  -32.0850  -28.6060 C.3   181  LYS181      0.0311
    104  CG        18.1490  -31.2950  -27.9680 C.3   181  LYS181      0.0038
    105  CD        16.8890  -32.1850  -28.0100 C.3   181  LYS181      0.0206
    106  CE        15.6550  -31.4370  -27.7350 C.3   181  LYS181      0.1093
    107  NZ        15.2860  -30.5470  -28.8940 N.3   181  LYS181     -0.1314
    108  N         22.1550  -33.2800  -28.2420 N.am  182  GLY182     -0.1955
    109  CA        22.9990  -34.3450  -28.6350 C.3   182  GLY182      0.1869
    110  C         22.4190  -35.1370  -29.8240 C.2   182  GLY182      0.2309
    111  O         21.2040  -35.3940  -29.9170 O.2   182  GLY182     -0.2863
    112  N         24.6680  -24.3500  -25.3210 N.3   210  GLN210     -0.1245
    113  CA        25.6990  -25.2290  -24.8120 C.3   210  GLN210      0.1566
    114  C         27.0740  -24.5750  -24.9090 C.2   210  GLN210      0.2260
    115  O         27.9680  -24.9970  -24.1980 O.2   210  GLN210     -0.2867
    116  CB        25.6220  -26.5570  -25.5740 C.3   210  GLN210      0.0367
    117  CG        24.4790  -27.4290  -25.1260 C.3   210  GLN210      0.0905
    118  CD        23.0880  -27.0040  -25.5400 C.2   210  GLN210      0.2608
    119  OE1       22.9140  -26.1710  -26.4560 O.2   210  GLN210     -0.2717
    120  NE2       22.0770  -27.5400  -24.8600 N.am  210  GLN210     -0.0878
@<TRIPOS>BOND
     1    97    96    1
     2    98    96    1
     3    96    95    1
     4   102   101    2
     5    95    92    1
     6   111   110    2
     7   110   109    1
     8    92    93    1
     9    92    91    1
    10    99    93   am
    11    99   100    1
    12   101   100    1
    13   101   108   am
    14   107   106    1
    15    93    94    2
    16    86    85    2
    17   109   108    1
    18   103   100    1
    19   103   104    1
    20    91    85   am
    21    85    84    1
    22   105   104    1
    23   105   106    1
    24    83    84    1
    25    84    87    1
    26    20    17    1
    27     4     3    2
    28    17    16    1
    29    17    18    1
    30   119   118    2
    31     1     2    1
    32    87    88    1
    33    19    18    2
    34     7     5    1
    35    15    13   am
    36    16    10   am
    37    11    10    2
    38     3     2    1
    39     3     8   am
    40    88    90   am
    41    88    89    2
    42    18    21   am
    43    12    13    1
    44    12     9    1
    45   116   117    1
    46   116   113    1
    47   118   117    1
    48   118   120   am
    49    10     9    1
    50    82    81    2
    51   112   113    1
    52     2     5    1
    53    13    14    2
    54   114   113    1
    55   114   115    2
    56     5     6    1
    57     9     8    1
    58    81    80    1
    59    21    22    1
    60    22    23    1
    61    80    79    1
    62    23    25   am
    63    23    24    2
    64    33    32    1
    65    79    76   am
    66    25    26    1
    67    30    31    1
    68    30    29    1
    69    31    32    1
    70    77    76    2
    71    76    75    1
    72    26    29    1
    73    26    27    1
    74    47    45    1
    75    46    45    1
    76    45    42    1
    77    75    74    1
    78    75    78    1
    79    27    34   am
    80    27    28    2
    81    42    43    1
    82    42    41    1
    83    34    35    1
    84    43    44    2
    85    41    36   am
    86    73    71   ar
    87    36    35    1
    88    36    37    2
    89    35    38    1
    90    38    39    1
    91    38    40    1
    92    71    70    1
    93    71    72   ar
    94    70    69    1
    95    56    55    1
    96    64    62   ar
    97    67    66    1
    98    67    68    2
    99    63    62   ar
   100    66    69    1
   101    66    65    1
   102    62    61    1
   103    55    54    1
   104    54    53    1
   105    61    58    1
   106    58    57    1
   107    58    59    1
   108    53    52    1
   109    59    60    2
   110    52    49    1
   111    49    50    1
   112    49    48    1
   113    50    51    2
