@<TRIPOS>MOLECULE
tmp/3qxjA00.pdb
 99 92 0 0 0
SMALL
GASTEIGER

@<TRIPOS>ATOM
      1  N          6.7810  -24.4500  -26.3860 N.3    13  THR13      -0.1203
      2  CA         6.8240  -25.3420  -25.2460 C.3    13  THR13       0.1994
      3  C          7.7100  -26.5550  -25.6250 C.2    13  THR13       0.2618
      4  O          7.8360  -26.9320  -26.7870 O.2    13  THR13      -0.2717
      5  CB         5.4300  -25.7240  -24.7940 C.3    13  THR13       0.1784
      6  OG1        5.5000  -26.4330  -23.5510 O.3    13  THR13      -0.2211
      7  CG2        4.7930  -26.5370  -25.9370 C.3    13  THR13       0.0376
      8  N          8.4250  -27.1050  -24.6350 N.am   14  ASN14      -0.1960
      9  CA         9.3810  -28.1680  -24.8100 C.3    14  ASN14       0.1819
     10  C         10.6830  -27.7830  -25.5160 C.2    14  ASN14       0.2621
     11  O         11.5050  -28.7090  -25.8070 O.2    14  ASN14      -0.2715
     12  CB         8.7650  -29.3980  -25.5350 C.3    14  ASN14       0.1195
     13  CG         8.0730  -30.2520  -24.5970 C.2    14  ASN14       0.2630
     14  OD1        8.6840  -30.7260  -23.6050 O.2    14  ASN14      -0.2716
     15  ND2        6.7560  -30.4240  -24.8180 N.am   14  ASN14      -0.0877
     16  N         10.9590  -26.5100  -25.7810 N.am   15  ALA15      -0.1963
     17  CA        12.1920  -26.1340  -26.4440 C.3    15  ALA15       0.1728
     18  C         13.3960  -26.3620  -25.5740 C.2    15  ALA15       0.2617
     19  O         14.4950  -26.5460  -26.0680 O.2    15  ALA15      -0.2715
     20  CB        12.1550  -24.7000  -26.8730 C.3    15  ALA15       0.0334
     21  N         13.2170  -26.2770  -24.2540 N.am   16  GLY16      -0.1940
     22  CA        14.3390  -26.5170  -23.3000 C.3    16  GLY16       0.2014
     23  C         14.5290  -25.4770  -22.2240 C.2    16  GLY16       0.2639
     24  O         15.6310  -25.3820  -21.6600 O.2    16  GLY16      -0.2714
     25  N         13.4840  -24.7210  -21.8650 N.am   17  LYS17      -0.1963
     26  CA        13.5890  -23.7580  -20.7950 C.3    17  LYS17       0.1728
     27  C         14.1320  -24.4000  -19.5230 C.2    17  LYS17       0.2617
     28  O         15.0290  -23.8530  -18.9120 O.2    17  LYS17      -0.2715
     29  CB        12.2940  -23.0240  -20.5020 C.3    17  LYS17       0.0311
     30  CG        11.6970  -22.2540  -21.6820 C.3    17  LYS17       0.0038
     31  CD        10.4040  -21.6080  -21.3260 C.3    17  LYS17       0.0206
     32  CE         9.3230  -22.5700  -20.9780 C.3    17  LYS17       0.1093
     33  NZ         8.9280  -23.3580  -22.1890 N.3    17  LYS17      -0.1314
     34  N         13.4550  -25.4570  -19.0880 N.am   18  THR18      -0.1937
     35  CA        13.8040  -26.0450  -17.8010 C.3    18  THR18       0.2028
     36  C         15.1940  -26.6490  -17.8170 C.2    18  THR18       0.2642
     37  O         15.9590  -26.3790  -16.8930 O.2    18  THR18      -0.2714
     38  CB        12.7530  -27.0580  -17.3840 C.3    18  THR18       0.1808
     39  OG1       11.5180  -26.3550  -17.2630 O.3    18  THR18      -0.2208
     40  CG2       13.0650  -27.6940  -16.0700 C.3    18  THR18       0.0379
     41  N         15.5720  -27.4200  -18.8240 N.am   19  THR19      -0.1950
     42  CA        16.8810  -27.9980  -18.9290 C.3    19  THR19       0.1897
     43  C         17.9330  -26.8940  -18.9190 C.2    19  THR19       0.2313
     44  O         18.9450  -26.9670  -18.1910 O.2    19  THR19      -0.2863
     45  CB        16.9940  -28.8060  -20.2340 C.3    19  THR19       0.1794
     46  OG1       15.9920  -29.8590  -20.2620 O.3    19  THR19      -0.2208
     47  CG2       18.3260  -29.4700  -20.3700 C.3    19  THR19       0.0378
     48  N          9.3940  -21.0610  -10.8060 N.3    39  LYS39      -0.1245
     49  CA         8.4110  -21.3760  -11.8700 C.3    39  LYS39       0.1561
     50  C          7.1050  -20.8170  -11.3790 C.2    39  LYS39       0.2260
     51  O          6.2580  -21.5780  -10.8500 O.2    39  LYS39      -0.2867
     52  CB         8.3850  -22.8880  -12.0680 C.3    39  LYS39       0.0271
     53  CG         7.4130  -23.3660  -13.1890 C.3    39  LYS39       0.0035
     54  CD         7.8540  -23.1810  -14.6460 C.3    39  LYS39       0.0206
     55  CE         6.8730  -23.7840  -15.5940 C.3    39  LYS39       0.1093
     56  NZ         7.2570  -23.6440  -17.0440 N.3    39  LYS39      -0.1314
     57  N          8.1520  -28.9050  -13.4380 N.3    54  ASP54      -0.1239
     58  CA         9.2830  -27.9910  -13.4760 C.3    54  ASP54       0.1674
     59  C          9.5410  -27.4670  -12.1020 C.2    54  ASP54       0.2266
     60  O         10.7220  -27.3690  -11.6630 O.2    54  ASP54      -0.2867
     61  CB         9.0760  -26.8480  -14.4560 C.3    54  ASP54       0.1410
     62  CG         8.9400  -27.3030  -15.8780 C.2    54  ASP54       0.3668
     63  OD1        9.2060  -28.5200  -16.1810 O.co2  54  ASP54      -0.2456
     64  OD2        8.6720  -26.3810  -16.6990 O.co2  54  ASP54      -0.2456
     65  N         11.3780  -19.0460  -14.8130 N.3   120  GLU120     -0.1245
     66  CA        10.8940  -19.6940  -16.0650 C.3   120  GLU120      0.1567
     67  C          9.4640  -19.3000  -16.2500 C.2   120  GLU120      0.2260
     68  O          8.6430  -19.4620  -15.3650 O.2   120  GLU120     -0.2867
     69  CB        11.0590  -21.1950  -16.0130 C.3   120  GLU120      0.0388
     70  CG        10.5860  -21.9100  -17.2430 C.3   120  GLU120      0.1160
     71  CD        10.7470  -23.4390  -17.2600 C.2   120  GLU120      0.3649
     72  OE1       11.6290  -23.9500  -16.5730 O.co2 120  GLU120     -0.2457
     73  OE2        9.9990  -24.0870  -17.9950 O.co2 120  GLU120     -0.2457
     74  N          5.9900  -19.8320  -19.0870 N.3   122  ALA122     -0.1231
     75  CA         5.2560  -20.9710  -19.5890 C.3   122  ALA122      0.1694
     76  C          4.7450  -20.6340  -20.9370 C.2   122  ALA122      0.2592
     77  O          4.3070  -19.5040  -21.1910 O.2   122  ALA122     -0.2718
     78  CB         4.1380  -21.3810  -18.6700 C.3   122  ALA122      0.0304
     79  N          4.8160  -21.5770  -21.8550 N.am  123  GLY123     -0.1957
     80  CA         3.9680  -21.3770  -23.0630 C.3   123  GLY123      0.1869
     81  C          4.5540  -20.5640  -24.2060 C.2   123  GLY123      0.2309
     82  O          4.6450  -21.0540  -25.3160 O.2   123  GLY123     -0.2863
     83  N         18.9970  -24.1800  -27.9880 N.3   179  ASN179     -0.1240
     84  CA        19.2630  -25.3820  -27.2230 C.3   179  ASN179      0.1653
     85  C         19.6010  -26.4950  -28.1900 C.2   179  ASN179      0.2266
     86  O         18.7310  -27.1770  -28.7600 O.2   179  ASN179     -0.2867
     87  CB        18.0390  -25.7320  -26.3880 C.3   179  ASN179      0.1155
     88  CG        18.1920  -26.9980  -25.6460 C.2   179  ASN179      0.2627
     89  OD1       19.2970  -27.4520  -25.3830 O.2   179  ASN179     -0.2716
     90  ND2       17.1210  -27.6470  -25.3350 N.am  179  ASN179     -0.0877
     91  N         20.7790  -29.8820  -29.2170 N.3   181  LYS181     -0.1245
     92  CA        20.6520  -31.1520  -28.5140 C.3   181  LYS181      0.1561
     93  C         21.7620  -31.9930  -29.0370 C.2   181  LYS181      0.2260
     94  O         22.3610  -31.8430  -30.1040 O.2   181  LYS181     -0.2867
     95  CB        19.2490  -31.7940  -28.7590 C.3   181  LYS181      0.0271
     96  CG        18.1450  -31.0920  -27.9150 C.3   181  LYS181      0.0035
     97  CD        16.8370  -31.8400  -28.2020 C.3   181  LYS181      0.0206
     98  CE        15.6130  -31.1750  -27.6170 C.3   181  LYS181      0.1093
     99  NZ        14.3190  -31.9040  -28.0890 N.3   181  LYS181     -0.1314
@<TRIPOS>BOND
     1    94    93    2
     2    91    92    1
     3    93    92    1
     4    86    85    2
     5    95    92    1
     6    95    96    1
     7    97    96    1
     8    97    98    1
     9    85    84    1
    10    99    98    1
    11    83    84    1
    12    84    87    1
    13    20    17    1
    14     4     3    2
    15    17    16    1
    16    17    18    1
    17    87    88    1
    18     1     2    1
    19    19    18    2
    20     7     5    1
    21    11    10    2
    22    16    10   am
    23    88    89    2
    24    88    90   am
    25     3     2    1
    26     3     8   am
    27    18    21   am
    28    12     9    1
    29    12    13    1
    30    10     9    1
    31    82    81    2
    32     2     5    1
    33    15    13   am
    34     9     8    1
    35     5     6    1
    36    13    14    2
    37    21    22    1
    38    81    80    1
    39    22    23    1
    40    80    79    1
    41    23    25   am
    42    23    24    2
    43    33    32    1
    44    25    26    1
    45    79    76   am
    46    30    31    1
    47    30    29    1
    48    31    32    1
    49    77    76    2
    50    76    75    1
    51    26    29    1
    52    26    27    1
    53    47    45    1
    54    46    45    1
    55    45    42    1
    56    75    74    1
    57    75    78    1
    58    27    34   am
    59    27    28    2
    60    34    35    1
    61    42    43    1
    62    42    41    1
    63    43    44    2
    64    41    36   am
    65    73    71   ar
    66    36    35    1
    67    36    37    2
    68    35    38    1
    69    38    39    1
    70    38    40    1
    71    71    70    1
    72    71    72   ar
    73    70    69    1
    74    56    55    1
    75    64    62   ar
    76    67    66    1
    77    67    68    2
    78    63    62   ar
    79    66    69    1
    80    66    65    1
    81    62    61    1
    82    55    54    1
    83    54    53    1
    84    61    58    1
    85    58    57    1
    86    58    59    1
    87    53    52    1
    88    59    60    2
    89    52    49    1
    90    49    50    1
    91    49    48    1
    92    50    51    2
