@<TRIPOS>MOLECULE
tmp/3qxoA00.pdb
 172 163 0 0 0
SMALL
GASTEIGER

@<TRIPOS>ATOM
      1  N        -40.6550  -56.1890   -7.8390 N.3     8  GLU8       -0.1231
      2  CA       -40.4000  -55.4800   -6.5940 C.3     8  GLU8        0.1699
      3  C        -41.3010  -54.2590   -6.5370 C.2     8  GLU8        0.2592
      4  O        -41.9640  -53.9160   -7.5150 O.2     8  GLU8       -0.2718
      5  CB       -38.9460  -54.9980   -6.5280 C.3     8  GLU8        0.0402
      6  CG       -37.8980  -56.0260   -6.9050 C.3     8  GLU8        0.1161
      7  CD       -36.4870  -55.5270   -6.6460 C.2     8  GLU8        0.3649
      8  OE1      -36.1120  -54.4660   -7.1990 O.co2   8  GLU8       -0.2457
      9  OE2      -35.7540  -56.2000   -5.8860 O.co2   8  GLU8       -0.2457
     10  N        -41.3210  -53.6080   -5.3800 N.am    9  LYS9       -0.1966
     11  CA       -42.0940  -52.3950   -5.2140 C.3     9  LYS9        0.1728
     12  C        -41.0660  -51.3050   -5.4350 C.2     9  LYS9        0.2616
     13  O        -40.2640  -51.0140   -4.5500 O.2     9  LYS9       -0.2715
     14  CB       -42.6710  -52.3000   -3.7990 C.3     9  LYS9        0.0311
     15  CG       -43.3890  -50.9830   -3.5140 C.3     9  LYS9        0.0038
     16  CD       -43.9840  -50.9430   -2.1040 C.3     9  LYS9        0.0206
     17  CE       -45.0770  -51.9930   -1.9280 C.3     9  LYS9        0.1093
     18  NZ       -45.6520  -51.9830   -0.5530 N.3     9  LYS9       -0.1314
     19  N        -41.0610  -50.7220   -6.6250 N.am   10  ILE10      -0.1977
     20  CA       -40.0990  -49.6740   -6.9230 C.3    10  ILE10       0.1596
     21  C        -40.2040  -48.5790   -5.8730 C.2    10  ILE10       0.2287
     22  O        -39.2080  -47.9550   -5.5130 O.2    10  ILE10      -0.2864
     23  CB       -40.3370  -49.0540   -8.3130 C.3    10  ILE10       0.0276
     24  CG1      -40.0970  -50.0960   -9.4050 C.3    10  ILE10       0.0022
     25  CG2      -39.4120  -47.8760   -8.5100 C.3    10  ILE10       0.0022
     26  CD1      -40.2240  -49.5500  -10.8150 C.3    10  ILE10       0.0001
     27  N        -45.1180  -43.1320   -5.1380 N.3    13  GLY13      -0.1225
     28  CA       -45.1040  -41.7780   -5.6690 C.3    13  GLY13       0.1811
     29  C        -46.2850  -40.9080   -5.2790 C.2    13  GLY13       0.2280
     30  O        -47.1370  -41.3160   -4.4920 O.2    13  GLY13      -0.2866
     31  N        -45.6440  -47.8000   -7.1240 N.3    18  VAL18      -0.1245
     32  CA       -45.0940  -48.2040   -8.4060 C.3    18  VAL18       0.1561
     33  C        -44.3600  -49.5130   -8.2110 C.2    18  VAL18       0.2260
     34  O        -43.6110  -49.6750   -7.2510 O.2    18  VAL18      -0.2867
     35  CB       -44.1040  -47.1640   -8.9430 C.3    18  VAL18       0.0252
     36  CG1      -43.6150  -47.5880  -10.3220 C.3    18  VAL18       0.0019
     37  CG2      -44.7700  -45.7990   -9.0210 C.3    18  VAL18       0.0019
     38  N        -42.0750  -52.7800  -10.1710 N.3    20  LYS20      -0.1245
     39  CA       -41.3070  -53.1810  -11.3330 C.3    20  LYS20       0.1561
     40  C        -42.0740  -54.4580  -11.6450 C.2    20  LYS20       0.2260
     41  O        -42.4190  -55.2170  -10.7320 O.2    20  LYS20      -0.2867
     42  CB       -39.8740  -53.4970  -10.9510 C.3    20  LYS20       0.0271
     43  CG       -39.0230  -54.0200  -12.1260 C.3    20  LYS20       0.0035
     44  CD       -37.6440  -54.4060  -11.6150 C.3    20  LYS20       0.0206
     45  CE       -36.6730  -54.7060  -12.7500 C.3    20  LYS20       0.1093
     46  NZ       -35.3150  -55.0740  -12.2510 N.3    20  LYS20      -0.1314
     47  N        -42.4490  -50.5600  -15.6030 N.3    31  ALA31      -0.1245
     48  CA       -42.7520  -49.9450  -14.3190 C.3    31  ALA31       0.1562
     49  C        -44.2720  -49.7920  -14.3890 C.2    31  ALA31       0.2260
     50  O        -44.8110  -49.2500  -15.3610 O.2    31  ALA31      -0.2867
     51  CB       -42.0910  -48.5660  -14.1840 C.3    31  ALA31       0.0290
     52  N        -47.5580  -48.2170  -12.5030 N.3    33  LYS33      -0.1245
     53  CA       -47.9940  -47.2780  -11.4840 C.3    33  LYS33       0.1561
     54  C        -49.4940  -47.4270  -11.2850 C.2    33  LYS33       0.2260
     55  O        -50.2590  -47.3080  -12.2440 O.2    33  LYS33      -0.2867
     56  CB       -47.6650  -45.8460  -11.9170 C.3    33  LYS33       0.0271
     57  CG       -47.9020  -44.8080  -10.8220 C.3    33  LYS33       0.0035
     58  CD       -47.4760  -43.4370  -11.2930 C.3    33  LYS33       0.0206
     59  CE       -47.4820  -42.4260  -10.1490 C.3    33  LYS33       0.1093
     60  NZ       -46.4630  -42.7180   -9.1010 N.3    33  LYS33      -0.1314
     61  N        -39.6210  -40.7150  -20.7380 N.3    60  VAL60      -0.1245
     62  CA       -39.9380  -42.1010  -20.3830 C.3    60  VAL60       0.1561
     63  C        -41.2220  -42.4660  -21.1240 C.2    60  VAL60       0.2260
     64  O        -42.2640  -41.8290  -20.9580 O.2    60  VAL60      -0.2867
     65  CB       -40.1410  -42.2520  -18.8420 C.3    60  VAL60       0.0252
     66  CG1      -40.5810  -43.6650  -18.5060 C.3    60  VAL60       0.0019
     67  CG2      -38.8310  -41.9270  -18.1310 C.3    60  VAL60       0.0019
     68  N        -45.1760  -47.9470  -17.8830 N.3    76  PHE76      -0.1227
     69  CA       -44.0680  -47.1560  -18.4040 C.3    76  PHE76       0.1736
     70  C        -42.8460  -47.9930  -18.7180 C.2    76  PHE76       0.2595
     71  O        -42.6210  -49.0470  -18.1210 O.2    76  PHE76      -0.2718
     72  CB       -43.6270  -46.1260  -17.3540 C.3    76  PHE76       0.0547
     73  CG       -44.5990  -45.0030  -17.1460 C.ar   76  PHE76      -0.0202
     74  CD1      -44.7250  -43.9890  -18.0870 C.ar   76  PHE76      -0.0042
     75  CD2      -45.3550  -44.9370  -15.9780 C.ar   76  PHE76      -0.0042
     76  CE1      -45.5910  -42.9200  -17.8660 C.ar   76  PHE76      -0.0003
     77  CE2      -46.2140  -43.8730  -15.7570 C.ar   76  PHE76      -0.0003
     78  CZ       -46.3320  -42.8670  -16.6990 C.ar   76  PHE76      -0.0000
     79  N        -42.0200  -47.4860  -19.6260 N.am   77  GLU77      -0.1965
     80  CA       -40.7670  -48.1740  -19.9210 C.3    77  GLU77       0.1733
     81  C        -39.9570  -48.1180  -18.5970 C.2    77  GLU77       0.2616
     82  O        -40.0530  -47.1620  -17.8210 O.2    77  GLU77      -0.2715
     83  CB       -40.0090  -47.4610  -21.0570 C.3    77  GLU77       0.0429
     84  CG       -39.1270  -46.3350  -20.6290 C.3    77  GLU77       0.1163
     85  CD       -38.3030  -45.7140  -21.7770 C.2    77  GLU77       0.3649
     86  OE1      -37.1810  -46.1890  -22.0860 O.co2  77  GLU77      -0.2457
     87  OE2      -38.7740  -44.7330  -22.3640 O.co2  77  GLU77      -0.2457
     88  N        -39.1650  -49.1490  -18.3380 N.am   78  PHE78      -0.1960
     89  CA       -38.3860  -49.2400  -17.1000 C.3    78  PHE78       0.1771
     90  C        -36.9410  -48.7640  -17.2420 C.2    78  PHE78       0.2619
     91  O        -36.2840  -49.0650  -18.2480 O.2    78  PHE78      -0.2715
     92  CB       -38.3560  -50.7110  -16.6090 C.3    78  PHE78       0.0574
     93  CG       -37.5960  -50.9130  -15.3410 C.ar   78  PHE78      -0.0200
     94  CD1      -36.2790  -51.3780  -15.3670 C.ar   78  PHE78      -0.0042
     95  CD2      -38.1860  -50.6300  -14.1140 C.ar   78  PHE78      -0.0042
     96  CE1      -35.5700  -51.5570  -14.1990 C.ar   78  PHE78      -0.0003
     97  CE2      -37.4810  -50.8020  -12.9230 C.ar   78  PHE78      -0.0003
     98  CZ       -36.1670  -51.2670  -12.9630 C.ar   78  PHE78      -0.0000
     99  N        -36.4820  -47.9660  -16.2750 N.am   79  LEU79      -0.1963
    100  CA       -35.0660  -47.5490  -16.2220 C.3    79  LEU79       0.1728
    101  C        -34.6340  -47.9010  -14.7990 C.2    79  LEU79       0.2616
    102  O        -35.4170  -47.7510  -13.8600 O.2    79  LEU79      -0.2715
    103  CB       -34.8600  -46.0560  -16.4920 C.3    79  LEU79       0.0311
    104  CG       -34.7860  -45.7300  -17.9860 C.3    79  LEU79       0.0022
    105  CD1      -36.2030  -45.4380  -18.4740 C.3    79  LEU79       0.0001
    106  CD2      -33.8700  -44.5450  -18.2700 C.3    79  LEU79       0.0001
    107  N        -33.3930  -48.3660  -14.6470 N.am   80  HIS80      -0.1959
    108  CA       -32.8890  -48.8390  -13.3640 C.3    80  HIS80       0.1787
    109  C        -32.5350  -47.8710  -12.2350 C.2    80  HIS80       0.2620
    110  O        -32.3690  -48.3110  -11.0890 O.2    80  HIS80      -0.2715
    111  CB       -31.6530  -49.7280  -13.5990 C.3    80  HIS80       0.0785
    112  CG       -31.9580  -51.0370  -14.2710 C.ar   80  HIS80       0.0821
    113  ND1      -32.1260  -51.1570  -15.6340 N.ar   80  HIS80      -0.2267
    114  CD2      -32.1440  -52.2760  -13.7540 C.ar   80  HIS80       0.1154
    115  CE1      -32.4090  -52.4160  -15.9280 C.ar   80  HIS80       0.1986
    116  NE2      -32.4270  -53.1130  -14.8060 N.ar   80  HIS80      -0.2212
    117  N        -32.3810  -46.5810  -12.5160 N.am   81  GLN81      -0.1963
    118  CA       -31.9910  -45.6930  -11.4190 C.3    81  GLN81       0.1733
    119  C        -32.5040  -44.2980  -11.6710 C.2    81  GLN81       0.2616
    120  O        -32.7970  -43.9540  -12.8100 O.2    81  GLN81      -0.2715
    121  CB       -30.4690  -45.6690  -11.3180 C.3    81  GLN81       0.0408
    122  CG       -29.8740  -45.0310  -10.0540 C.3    81  GLN81       0.0908
    123  CD       -28.4530  -45.5200   -9.8160 C.2    81  GLN81       0.2608
    124  OE1      -28.2320  -46.7130   -9.5510 O.2    81  GLN81      -0.2717
    125  NE2      -27.4840  -44.6240   -9.9300 N.am   81  GLN81      -0.0878
    126  N        -32.6390  -43.5160  -10.6050 N.am   82  ASP82      -0.1971
    127  CA       -33.0750  -42.1300  -10.7680 C.3    82  ASP82       0.1709
    128  C        -31.9220  -41.2070  -10.4060 C.2    82  ASP82       0.2293
    129  O        -30.9220  -41.6370   -9.8180 O.2    82  ASP82      -0.2864
    130  CB       -34.3490  -41.7940   -9.9660 C.3    82  ASP82       0.1436
    131  CG       -34.1830  -41.9430   -8.4550 C.2    82  ASP82       0.3671
    132  OD1      -33.2670  -41.3270   -7.8760 O.co2  82  ASP82      -0.2456
    133  OD2      -35.0000  -42.6770   -7.8530 O.co2  82  ASP82      -0.2456
    134  N        -30.8460  -40.8800   -6.5710 N.3    85  LYS85      -0.1245
    135  CA       -29.9390  -41.9220   -6.0870 C.3    85  LYS85       0.1561
    136  C        -28.5210  -41.7500   -6.6450 C.2    85  LYS85       0.2260
    137  O        -27.5350  -41.9310   -5.9230 O.2    85  LYS85      -0.2867
    138  CB       -30.4750  -43.3250   -6.4400 C.3    85  LYS85       0.0271
    139  CG       -29.5870  -44.4610   -5.9000 C.3    85  LYS85       0.0035
    140  CD       -30.3680  -45.7730   -5.8030 C.3    85  LYS85       0.0206
    141  CE       -29.5110  -46.8990   -5.2240 C.3    85  LYS85       0.1093
    142  NZ       -30.3200  -48.1420   -5.0490 N.3    85  LYS85      -0.1314
    143  N        -35.9560  -37.2330   -8.4920 N.3   127  GLN127     -0.1245
    144  CA       -36.5370  -38.5600   -8.4610 C.3   127  GLN127      0.1566
    145  C        -37.3070  -38.9050   -9.7230 C.2   127  GLN127      0.2260
    146  O        -37.5030  -40.0820   -9.9860 O.2   127  GLN127     -0.2867
    147  CB       -37.4020  -38.7510   -7.2100 C.3   127  GLN127      0.0367
    148  CG       -38.6160  -37.8640   -7.1020 C.3   127  GLN127      0.0905
    149  CD       -39.1280  -37.8040   -5.6780 C.2   127  GLN127      0.2608
    150  OE1      -38.4900  -37.2110   -4.8000 O.2   127  GLN127     -0.2717
    151  NE2      -40.2690  -38.4380   -5.4310 N.am  127  GLN127     -0.0878
    152  N        -34.8310  -40.2370  -14.8320 N.3   130  LEU130     -0.1245
    153  CA       -34.2950  -41.6100  -14.8150 C.3   130  LEU130      0.1561
    154  C        -33.1050  -41.7920  -15.7220 C.2   130  LEU130      0.2260
    155  O        -33.0620  -41.2130  -16.7990 O.2   130  LEU130     -0.2867
    156  CB       -35.4230  -42.5630  -15.2130 C.3   130  LEU130      0.0270
    157  CG       -36.7140  -42.3070  -14.3940 C.3   130  LEU130      0.0019
    158  CD1      -37.7690  -43.3870  -14.7570 C.3   130  LEU130      0.0001
    159  CD2      -36.4220  -42.3510  -12.8440 C.3   130  LEU130      0.0001
    160  N        -39.6080  -38.3910  -16.4370 N.3   140  ALA140     -0.1231
    161  CA       -40.7470  -39.2750  -16.1360 C.3   140  ALA140      0.1694
    162  C        -41.9020  -38.4580  -15.5870 C.2   140  ALA140      0.2592
    163  O        -41.6850  -37.4430  -14.9390 O.2   140  ALA140     -0.2718
    164  CB       -40.3280  -40.3410  -15.1360 C.3   140  ALA140      0.0304
    165  N        -43.1230  -38.9020  -15.8900 N.am  141  ASP141     -0.1974
    166  CA       -44.3580  -38.2470  -15.4430 C.3   141  ASP141      0.1709
    167  C        -44.7660  -36.9450  -16.1200 C.2   141  ASP141      0.2293
    168  O        -45.5380  -36.1710  -15.5560 O.2   141  ASP141     -0.2864
    169  CB       -44.3380  -38.0560  -13.9240 C.3   141  ASP141      0.1436
    170  CG       -44.2590  -39.3680  -13.1900 C.2   141  ASP141      0.3671
    171  OD1      -44.4910  -40.4120  -13.8270 O.co2 141  ASP141     -0.2456
    172  OD2      -43.9720  -39.3690  -11.9820 O.co2 141  ASP141     -0.2456
@<TRIPOS>BOND
     1    87    85   ar
     2    86    85   ar
     3    85    84    1
     4    63    64    2
     5    63    62    1
     6    83    84    1
     7    83    80    1
     8    61    62    1
     9    62    65    1
    10    80    79    1
    11    80    81    1
    12    79    70   am
    13    65    66    1
    14    65    67    1
    15    70    69    1
    16    70    71    2
    17    81    88   am
    18    81    82    2
    19   105   104    1
    20    69    68    1
    21    69    72    1
    22    88    89    1
    23   106   104    1
    24    91    90    2
    25    74    76   ar
    26    74    73   ar
    27   104   103    1
    28    76    78   ar
    29    72    73    1
    30    90    89    1
    31    90    99   am
    32    73    75   ar
    33    89    92    1
    34   155   154    2
    35    78    77   ar
    36    92    93    1
    37   103   100    1
    38   160   161    1
    39    99   100    1
    40   100   101    1
    41   161   162    1
    42   161   164    1
    43   167   168    2
    44   167   166    1
    45    75    77   ar
    46   115   113   ar
    47   115   116   ar
    48   165   162   am
    49   165   166    1
    50   154   153    1
    51   113   112   ar
    52    47    48    1
    53   162   163    2
    54   166   169    1
    55    94    93   ar
    56    94    96   ar
    57    50    49    2
    58    93    95   ar
    59   156   153    1
    60   156   157    1
    61   152   153    1
    62   116   114   ar
    63   101   107   am
    64   101   102    2
    65   158   157    1
    66   107   108    1
    67   157   159    1
    68    49    48    1
    69    48    51    1
    70   112   114   ar
    71   112   111    1
    72    96    98   ar
    73    95    97   ar
    74   169   170    1
    75   171   170   ar
    76   111   108    1
    77   108   109    1
    78   170   172   ar
    79    98    97   ar
    80   120   119    2
    81    45    46    1
    82    45    44    1
    83   117   109   am
    84   117   118    1
    85    52    53    1
    86    55    54    2
    87   109   110    2
    88    43    44    1
    89    43    42    1
    90    56    53    1
    91    56    57    1
    92   119   118    1
    93   119   126   am
    94    40    39    1
    95    40    41    2
    96    53    54    1
    97   118   121    1
    98    39    42    1
    99    39    38    1
   100   121   122    1
   101    58    57    1
   102    58    59    1
   103    26    24    1
   104   127   126    1
   105   127   128    1
   106   127   130    1
   107   128   129    2
   108    36    35    1
   109    59    60    1
   110   122   123    1
   111   146   145    2
   112   130   131    1
   113   125   123   am
   114   123   124    2
   115   145   144    1
   116    24    23    1
   117    37    35    1
   118    35    32    1
   119    25    23    1
   120   143   144    1
   121   144   147    1
   122   131   132   ar
   123   131   133   ar
   124    32    33    1
   125    32    31    1
   126    23    20    1
   127    33    34    2
   128     1     2    1
   129     4     3    2
   130   147   148    1
   131     8     7   ar
   132   148   149    1
   133    20    19    1
   134    20    21    1
   135     6     7    1
   136     6     5    1
   137     7     9   ar
   138   136   135    1
   139   136   137    2
   140    19    12   am
   141     2     3    1
   142     2     5    1
   143   134   135    1
   144     3    10   am
   145   138   135    1
   146   138   139    1
   147   139   140    1
   148    21    22    2
   149   140   141    1
   150   149   151   am
   151   149   150    2
   152    28    29    1
   153    28    27    1
   154    12    11    1
   155    12    13    2
   156    10    11    1
   157    29    30    2
   158   141   142    1
   159    11    14    1
   160    14    15    1
   161    15    16    1
   162    16    17    1
   163    17    18    1
