@<TRIPOS>MOLECULE
tmp/3qxqC00.pdb
 180 176 0 0 0
SMALL
GASTEIGER

@<TRIPOS>ATOM
      1  N        -34.5680   20.5080  -41.4060 N.3    31  THR31      -0.1203
      2  CA       -35.2390   20.6170  -42.6990 C.3    31  THR31       0.1994
      3  C        -35.5880   19.2260  -43.2170 C.2    31  THR31       0.2619
      4  O        -35.0350   18.2340  -42.7550 O.2    31  THR31      -0.2717
      5  CB       -34.3510   21.3220  -43.7370 C.3    31  THR31       0.1784
      6  OG1      -33.1690   20.5390  -43.9690 O.3    31  THR31      -0.2211
      7  CG2      -33.9540   22.7080  -43.2450 C.3    31  THR31       0.0376
      8  N        -36.4960   19.1470  -44.1850 N.am   32  SER32      -0.1937
      9  CA       -36.7990   17.8560  -44.7950 C.3    32  SER32       0.2055
     10  C        -35.5880   17.3170  -45.5680 C.2    32  SER32       0.2642
     11  O        -35.4070   16.1040  -45.6850 O.2    32  SER32      -0.2714
     12  CB       -38.0350   17.9490  -45.6950 C.3    32  SER32       0.2130
     13  OG       -37.8050   18.8040  -46.8070 O.3    32  SER32      -0.2179
     14  N        -34.7620   18.2180  -46.0920 N.am   33  GLN33      -0.1976
     15  CA       -33.5160   17.8220  -46.7560 C.3    33  GLN33       0.1601
     16  C        -32.5700   17.1150  -45.7920 C.2    33  GLN33       0.2287
     17  O        -31.9800   16.0880  -46.1300 O.2    33  GLN33      -0.2864
     18  CB       -32.7960   19.0230  -47.3660 C.3    33  GLN33       0.0394
     19  CG       -31.3870   18.6650  -47.8690 C.3    33  GLN33       0.0908
     20  CD       -30.5320   19.8720  -48.1690 C.2    33  GLN33       0.2608
     21  OE1      -30.6170   20.4580  -49.2500 O.2    33  GLN33      -0.2717
     22  NE2      -29.6800   20.2380  -47.2240 N.am   33  GLN33      -0.0878
     23  N        -40.9390   21.4480  -44.9690 N.3    74  TRP74      -0.1241
     24  CA       -39.5050   21.5410  -45.1950 C.3    74  TRP74       0.1605
     25  C        -38.7460   22.1380  -44.0130 C.2    74  TRP74       0.2264
     26  O        -37.5380   21.9260  -43.8870 O.2    74  TRP74      -0.2867
     27  CB       -39.2010   22.3390  -46.4620 C.3    74  TRP74       0.0550
     28  CG       -39.1480   23.8210  -46.2590 C.ar   74  TRP74       0.0003
     29  CD1      -40.1880   24.7030  -46.3530 C.ar   74  TRP74       0.0946
     30  CD2      -37.9880   24.6000  -45.9450 C.ar   74  TRP74       0.0152
     31  NE1      -39.7460   25.9830  -46.1120 N.ar   74  TRP74      -0.2442
     32  CE2      -38.3980   25.9470  -45.8620 C.ar   74  TRP74       0.0810
     33  CE3      -36.6410   24.2890  -45.7290 C.ar   74  TRP74       0.0012
     34  CZ2      -37.5090   26.9820  -45.5690 C.ar   74  TRP74       0.0191
     35  CZ3      -35.7620   25.3150  -45.4360 C.ar   74  TRP74       0.0001
     36  CH2      -36.2000   26.6470  -45.3540 C.ar   74  TRP74       0.0015
     37  N        -42.6960   26.1770  -41.5690 N.3    88  ASP88      -0.1239
     38  CA       -43.2070   26.3130  -42.9290 C.3    88  ASP88       0.1674
     39  C        -43.6540   24.9370  -43.4010 C.2    88  ASP88       0.2266
     40  O        -42.8480   24.0090  -43.4730 O.2    88  ASP88      -0.2867
     41  CB       -42.1230   26.9020  -43.8410 C.3    88  ASP88       0.1410
     42  CG       -42.6110   27.1530  -45.2590 C.2    88  ASP88       0.3668
     43  OD1      -43.7390   26.7360  -45.5970 O.co2  88  ASP88      -0.2456
     44  OD2      -41.8550   27.7680  -46.0410 O.co2  88  ASP88      -0.2456
     45  N        -44.9580   24.1140  -46.3330 N.3    90  ASN90      -0.1225
     46  CA       -44.6610   23.8390  -47.7340 C.3    90  ASN90       0.1785
     47  C        -43.5370   22.8140  -47.8320 C.2    90  ASN90       0.2598
     48  O        -42.6940   22.7070  -46.9310 O.2    90  ASN90      -0.2718
     49  CB       -44.2890   25.1260  -48.4830 C.3    90  ASN90       0.1169
     50  CG       -44.2570   24.9390  -49.9990 C.2    90  ASN90       0.2627
     51  OD1      -44.9080   24.0460  -50.5370 O.2    90  ASN90      -0.2716
     52  ND2      -43.5020   25.7880  -50.6870 N.am   90  ASN90      -0.0877
     53  N        -43.5350   22.0540  -48.9210 N.am   91  SER91      -0.1938
     54  CA       -42.5290   21.0260  -49.1290 C.3    91  SER91       0.2055
     55  C        -41.3590   21.5330  -49.9590 C.2    91  SER91       0.2642
     56  O        -41.4930   22.4890  -50.7190 O.2    91  SER91      -0.2714
     57  CB       -43.1450   19.8180  -49.8310 C.3    91  SER91       0.2130
     58  OG       -43.5470   20.1490  -51.1510 O.3    91  SER91      -0.2179
     59  N        -40.2100   20.8800  -49.7930 N.am   92  ALA92      -0.1977
     60  CA       -39.0830   21.0590  -50.6910 C.3    92  ALA92       0.1597
     61  C        -38.8440   19.7110  -51.3630 C.2    92  ALA92       0.2287
     62  O        -38.6110   18.7010  -50.6900 O.2    92  ALA92      -0.2864
     63  CB       -37.8540   21.5200  -49.9330 C.3    92  ALA92       0.0319
     64  N        -36.5220   18.2950  -53.1490 N.3    94  ASP94      -0.1239
     65  CA       -35.2620   17.5590  -53.0910 C.3    94  ASP94       0.1674
     66  C        -35.2420   16.6060  -51.8980 C.2    94  ASP94       0.2266
     67  O        -34.8550   15.4440  -52.0270 O.2    94  ASP94      -0.2867
     68  CB       -34.0320   18.4710  -53.1220 C.3    94  ASP94       0.1410
     69  CG       -33.9130   19.3500  -51.8970 C.2    94  ASP94       0.3668
     70  OD1      -34.9450   19.7600  -51.3380 O.co2  94  ASP94      -0.2456
     71  OD2      -32.7720   19.6380  -51.4990 O.co2  94  ASP94      -0.2456
     72  N        -39.8100   22.7400  -57.3680 N.3   143  PRO143     -0.2116
     73  CA       -39.0330   22.7640  -56.1290 C.3   143  PRO143      0.1372
     74  C        -39.8880   22.5870  -54.8720 C.2   143  PRO143      0.2244
     75  O        -39.3480   22.3970  -53.7810 O.2   143  PRO143     -0.2868
     76  CB       -38.4120   24.1650  -56.1410 C.3   143  PRO143      0.0268
     77  CG       -38.3590   24.5320  -57.5870 C.3   143  PRO143      0.0207
     78  CD       -39.6060   23.9590  -58.1660 C.3   143  PRO143      0.0892
     79  N        -46.1510   24.4800  -53.4020 N.3   146  VAL146     -0.1231
     80  CA       -46.6340   25.8110  -53.7820 C.3   146  VAL146      0.1692
     81  C        -45.4900   26.8190  -53.8720 C.2   146  VAL146      0.2593
     82  O        -44.4610   26.6590  -53.2200 O.2   146  VAL146     -0.2718
     83  CB       -47.7070   26.3590  -52.7960 C.3   146  VAL146      0.0266
     84  CG1      -49.0000   25.5550  -52.8840 C.3   146  VAL146      0.0020
     85  CG2      -47.1730   26.3880  -51.3640 C.3   146  VAL146      0.0020
     86  N        -45.6740   27.8520  -54.6880 N.am  147  GLY147     -0.1942
     87  CA       -44.7410   28.9650  -54.7250 C.3   147  GLY147      0.2014
     88  C        -43.7270   28.9620  -55.8530 C.2   147  GLY147      0.2638
     89  O        -42.8320   29.8080  -55.8760 O.2   147  GLY147     -0.2714
     90  N        -43.8620   28.0290  -56.7940 N.am  148  PHE148     -0.1973
     91  CA       -42.8910   27.8980  -57.8810 C.3   148  PHE148      0.1639
     92  C        -43.5250   27.8440  -59.2730 C.2   148  PHE148      0.2290
     93  O        -42.8260   27.6680  -60.2730 O.2   148  PHE148     -0.2864
     94  CB       -41.9930   26.6720  -57.6530 C.3   148  PHE148      0.0560
     95  CG       -41.1910   26.7520  -56.3900 C.ar  148  PHE148     -0.0200
     96  CD1      -40.0420   27.5260  -56.3360 C.ar  148  PHE148     -0.0042
     97  CD2      -41.5970   26.0780  -55.2480 C.ar  148  PHE148     -0.0042
     98  CE1      -39.3080   27.6270  -55.1700 C.ar  148  PHE148     -0.0003
     99  CE2      -40.8640   26.1680  -54.0800 C.ar  148  PHE148     -0.0003
    100  CZ       -39.7190   26.9470  -54.0370 C.ar  148  PHE148     -0.0000
    101  N        -40.5060   28.0690  -61.8450 N.3   155  ARG155     -0.1245
    102  CA       -39.1610   28.1960  -61.2960 C.3   155  ARG155      0.1563
    103  C        -38.6380   26.8110  -60.9320 C.2   155  ARG155      0.2260
    104  O        -39.3310   26.0410  -60.2750 O.2   155  ARG155     -0.2867
    105  CB       -39.1590   29.1230  -60.0780 C.3   155  ARG155      0.0307
    106  CG       -37.7820   29.5890  -59.6360 C.3   155  ARG155      0.0489
    107  CD       -37.9010   30.8760  -58.8310 C.3   155  ARG155      0.2205
    108  NE       -36.6150   31.3810  -58.3520 N.pl3 155  ARG155     -0.0865
    109  CZ       -36.2980   31.5140  -57.0670 C.cat 155  ARG155      0.5346
    110  NH1      -37.1760   31.1880  -56.1280 N.pl3 155  ARG155      0.1354
    111  NH2      -35.1060   31.9810  -56.7160 N.pl3 155  ARG155      0.1354
    112  N        -32.0160   19.5110  -57.6550 N.3   160  TYR160     -0.1241
    113  CA       -33.0200   18.8040  -56.8500 C.3   160  TYR160      0.1605
    114  C        -33.1740   17.3210  -57.1670 C.2   160  TYR160      0.2264
    115  O        -33.3780   16.5140  -56.2550 O.2   160  TYR160     -0.2867
    116  CB       -34.3790   19.5110  -56.9080 C.3   160  TYR160      0.0534
    117  CG       -34.5440   20.5950  -55.8650 C.ar  160  TYR160     -0.0201
    118  CD1      -33.4440   21.3040  -55.3910 C.ar  160  TYR160     -0.0009
    119  CD2      -35.8040   20.9210  -55.3600 C.ar  160  TYR160     -0.0009
    120  CE1      -33.5920   22.3040  -54.4420 C.ar  160  TYR160      0.0417
    121  CE2      -35.9610   21.9150  -54.4160 C.ar  160  TYR160      0.0417
    122  CZ       -34.8520   22.6040  -53.9590 C.ar  160  TYR160      0.1957
    123  OH       -35.0020   23.5930  -53.0170 O.3   160  TYR160     -0.2866
    124  N        -31.0040   28.4910  -59.2090 N.3   199  TRP199     -0.1241
    125  CA       -32.4110   28.5610  -59.5940 C.3   199  TRP199      0.1605
    126  C        -32.5250   29.0570  -61.0270 C.2   199  TRP199      0.2264
    127  O        -31.6930   29.8360  -61.4870 O.2   199  TRP199     -0.2867
    128  CB       -33.1770   29.5290  -58.6800 C.3   199  TRP199      0.0550
    129  CG       -33.1420   29.1840  -57.2300 C.ar  199  TRP199      0.0003
    130  CD1      -32.2430   29.6280  -56.3030 C.ar  199  TRP199      0.0946
    131  CD2      -34.0600   28.3390  -56.5240 C.ar  199  TRP199      0.0152
    132  NE1      -32.5400   29.1070  -55.0670 N.ar  199  TRP199     -0.2442
    133  CE2      -33.6490   28.3100  -55.1760 C.ar  199  TRP199      0.0810
    134  CE3      -35.1850   27.6000  -56.9010 C.ar  199  TRP199      0.0012
    135  CZ2      -34.3220   27.5730  -54.2060 C.ar  199  TRP199      0.0191
    136  CZ3      -35.8570   26.8700  -55.9300 C.ar  199  TRP199      0.0001
    137  CH2      -35.4200   26.8570  -54.6060 C.ar  199  TRP199      0.0015
    138  N        -26.6510   25.8080  -53.8450 N.3   221  ASP221     -0.1239
    139  CA       -27.5610   24.7920  -54.3530 C.3   221  ASP221      0.1674
    140  C        -26.8880   24.0280  -55.4780 C.2   221  ASP221      0.2266
    141  O        -26.8190   22.7990  -55.4550 O.2   221  ASP221     -0.2867
    142  CB       -28.8760   25.4130  -54.8390 C.3   221  ASP221      0.1410
    143  CG       -29.7920   25.8020  -53.6940 C.2   221  ASP221      0.3668
    144  OD1      -29.5140   25.3990  -52.5550 O.co2 221  ASP221     -0.2456
    145  OD2      -30.7870   26.5070  -53.9170 O.co2 221  ASP221     -0.2456
    146  N        -24.1390   20.8600  -55.8950 N.3   224  ARG224     -0.1245
    147  CA       -24.5460   19.4580  -55.8440 C.3   224  ARG224      0.1563
    148  C        -24.7470   18.8770  -57.2390 C.2   224  ARG224      0.2260
    149  O        -24.5570   17.6750  -57.4490 O.2   224  ARG224     -0.2867
    150  CB       -25.8270   19.2910  -55.0170 C.3   224  ARG224      0.0307
    151  CG       -25.6410   19.6210  -53.5430 C.3   224  ARG224      0.0489
    152  CD       -26.9520   19.6060  -52.7900 C.3   224  ARG224      0.2205
    153  NE       -27.9150   20.5500  -53.3500 N.pl3 224  ARG224     -0.0865
    154  CZ       -29.1660   20.6730  -52.9200 C.cat 224  ARG224      0.5346
    155  NH1      -29.5970   19.9090  -51.9220 N.pl3 224  ARG224      0.1354
    156  NH2      -29.9880   21.5510  -53.4800 N.pl3 224  ARG224      0.1354
    157  N        -23.0380   22.2880  -40.5910 N.3   309  TYR309     -0.1227
    158  CA       -23.9540   21.2850  -41.1130 C.3   309  TYR309      0.1736
    159  C        -23.8580   21.1200  -42.6310 C.2   309  TYR309      0.2595
    160  O        -23.7670   19.9940  -43.1220 O.2   309  TYR309     -0.2718
    161  CB       -25.4100   21.5710  -40.7020 C.3   309  TYR309      0.0548
    162  CG       -26.4050   20.9260  -41.6470 C.ar  309  TYR309     -0.0200
    163  CD1      -26.8470   19.6220  -41.4470 C.ar  309  TYR309     -0.0009
    164  CD2      -26.8660   21.6070  -42.7660 C.ar  309  TYR309     -0.0009
    165  CE1      -27.7370   19.0240  -42.3250 C.ar  309  TYR309      0.0417
    166  CE2      -27.7540   21.0210  -43.6500 C.ar  309  TYR309      0.0417
    167  CZ       -28.1870   19.7290  -43.4270 C.ar  309  TYR309      0.1957
    168  OH       -29.0690   19.1510  -44.3140 O.3   309  TYR309     -0.2866
    169  N        -23.8870   22.2250  -43.3760 N.am  310  TYR310     -0.1976
    170  CA       -23.8760   22.1190  -44.8370 C.3   310  TYR310      0.1639
    171  C        -22.6000   21.4800  -45.3630 C.2   310  TYR310      0.2290
    172  O        -22.6510   20.6030  -46.2270 O.2   310  TYR310     -0.2864
    173  CB       -24.1080   23.4660  -45.5290 C.3   310  TYR310      0.0560
    174  CG       -24.4500   23.2990  -46.9990 C.ar  310  TYR310     -0.0198
    175  CD1      -23.8420   24.0750  -47.9820 C.ar  310  TYR310     -0.0009
    176  CD2      -25.3670   22.3330  -47.4050 C.ar  310  TYR310     -0.0009
    177  CE1      -24.1600   23.9070  -49.3300 C.ar  310  TYR310      0.0417
    178  CE2      -25.6880   22.1570  -48.7440 C.ar  310  TYR310      0.0417
    179  CZ       -25.0840   22.9430  -49.7000 C.ar  310  TYR310      0.1957
    180  OH       -25.4230   22.7470  -51.0230 O.3   310  TYR310     -0.2866
@<TRIPOS>BOND
     1   101   102    1
     2   127   126    2
     3   102   103    1
     4   102   105    1
     5   126   125    1
     6   103   104    2
     7    93    92    2
     8   105   106    1
     9   106   107    1
    10   125   124    1
    11   125   128    1
    12    92    91    1
    13   107   108    1
    14   128   129    1
    15   108   109    2
    16    78    77    1
    17    78    72    1
    18    91    94    1
    19    91    90    1
    20   112   113    1
    21    94    95    1
    22    77    76    1
    23   149   148    2
    24    72    73    1
    25   148   147    1
    26   129   131   ar
    27   129   130   ar
    28   114   113    1
    29   114   115    2
    30   109   111    1
    31   109   110    1
    32   116   113    1
    33   116   117    1
    34   134   131   ar
    35   134   136   ar
    36    90    88   am
    37   131   133   ar
    38    95    96   ar
    39    95    97   ar
    40    96    98   ar
    41   130   132   ar
    42    76    73    1
    43    73    74    1
    44   136   137   ar
    45   146   147    1
    46    89    88    2
    47   117   118   ar
    48   117   119   ar
    49    88    87    1
    50   147   150    1
    51   140   141    2
    52   140   139    1
    53   118   120   ar
    54   119   121   ar
    55    97    99   ar
    56   133   132   ar
    57   133   135   ar
    58    98   100   ar
    59   150   151    1
    60    74    75    2
    61   142   139    1
    62   142   143    1
    63    87    86    1
    64    86    81   am
    65   137   135   ar
    66   120   122   ar
    67   121   122   ar
    68   139   138    1
    69    99   100   ar
    70   122   123    1
    71   145   143   ar
    72    81    80    1
    73    81    82    2
    74    80    79    1
    75    80    83    1
    76   143   144   ar
    77   151   152    1
    78   156   154    1
    79   153   154    2
    80   153   152    1
    81    64    65    1
    82    68    65    1
    83    68    69    1
    84    65    66    1
    85   154   155    1
    86    84    83    1
    87    83    85    1
    88    67    66    2
    89    69    71   ar
    90    69    70   ar
    91    61    60    1
    92    61    62    2
    93    58    57    1
    94   180   179    1
    95    56    55    2
    96    60    63    1
    97    60    59    1
    98    52    50   am
    99    51    50    2
   100    50    49    1
   101    55    59   am
   102    55    54    1
   103    57    54    1
   104   179   177   ar
   105   179   178   ar
   106   177   175   ar
   107    21    20    2
   108    54    53    1
   109    53    47   am
   110   178   176   ar
   111    49    46    1
   112    20    19    1
   113    20    22   am
   114   175   174   ar
   115    19    18    1
   116    47    46    1
   117    47    48    2
   118    46    45    1
   119   176   174   ar
   120    18    15    1
   121   174   173    1
   122    13    12    1
   123    15    14    1
   124    15    16    1
   125    27    28    1
   126    27    24    1
   127    29    28   ar
   128    29    31   ar
   129    28    30   ar
   130   172   171    2
   131    17    16    2
   132    31    32   ar
   133    14    10   am
   134    44    42   ar
   135    30    32   ar
   136    30    33   ar
   137    32    34   ar
   138    33    35   ar
   139    12     9    1
   140    11    10    2
   141    43    42   ar
   142    34    36   ar
   143    10     9    1
   144   173   170    1
   145    35    36   ar
   146   171   170    1
   147    42    41    1
   148    24    23    1
   149    24    25    1
   150   170   169    1
   151     9     8    1
   152   168   167    1
   153     8     3   am
   154    25    26    2
   155     6     5    1
   156    41    38    1
   157     5     7    1
   158     5     2    1
   159   166   167   ar
   160   166   164   ar
   161    40    39    2
   162   167   165   ar
   163    39    38    1
   164   169   159   am
   165     3     4    2
   166     3     2    1
   167   160   159    2
   168    38    37    1
   169   164   162   ar
   170     2     1    1
   171   159   158    1
   172   165   163   ar
   173   162   163   ar
   174   162   161    1
   175   158   161    1
   176   158   157    1
