@<TRIPOS>MOLECULE
tmp/3qxsA00.pdb
 120 113 0 0 0
SMALL
GASTEIGER

@<TRIPOS>ATOM
      1  N          6.8080  -24.5030  -26.3580 N.3    13  THR13      -0.1203
      2  CA         6.8320  -25.4180  -25.2570 C.3    13  THR13       0.1994
      3  C          7.7320  -26.6070  -25.6110 C.2    13  THR13       0.2618
      4  O          7.8000  -27.0140  -26.7600 O.2    13  THR13      -0.2717
      5  CB         5.4140  -25.8290  -24.8390 C.3    13  THR13       0.1784
      6  OG1        5.5060  -26.5940  -23.6570 O.3    13  THR13      -0.2211
      7  CG2        4.7970  -26.5770  -25.9200 C.3    13  THR13       0.0376
      8  N          8.5170  -27.0720  -24.6780 N.am   14  ASN14      -0.1960
      9  CA         9.4840  -28.1320  -24.8410 C.3    14  ASN14       0.1819
     10  C         10.7420  -27.7570  -25.6300 C.2    14  ASN14       0.2621
     11  O         11.5470  -28.6470  -25.9120 O.2    14  ASN14      -0.2715
     12  CB         8.8410  -29.4460  -25.3240 C.3    14  ASN14       0.1195
     13  CG         8.0830  -30.1090  -24.1740 C.2    14  ASN14       0.2630
     14  OD1        8.4290  -29.9690  -22.9980 O.2    14  ASN14      -0.2716
     15  ND2        6.9840  -30.7320  -24.4990 N.am   14  ASN14      -0.0877
     16  N         10.9970  -26.4680  -25.9110 N.am   15  ALA15      -0.1963
     17  CA        12.2450  -26.0600  -26.5250 C.3    15  ALA15       0.1728
     18  C         13.4340  -26.3010  -25.6290 C.2    15  ALA15       0.2617
     19  O         14.5440  -26.4720  -26.1080 O.2    15  ALA15      -0.2715
     20  CB        12.2250  -24.6200  -26.8950 C.3    15  ALA15       0.0334
     21  N         13.2330  -26.2820  -24.3230 N.am   16  GLY16      -0.1940
     22  CA        14.3270  -26.5270  -23.3700 C.3    16  GLY16       0.2014
     23  C         14.5250  -25.4910  -22.2550 C.2    16  GLY16       0.2639
     24  O         15.6230  -25.4040  -21.7020 O.2    16  GLY16      -0.2714
     25  N         13.4880  -24.7500  -21.8510 N.am   17  LYS17      -0.1963
     26  CA        13.6420  -23.7820  -20.7760 C.3    17  LYS17       0.1728
     27  C         14.1490  -24.4100  -19.5060 C.2    17  LYS17       0.2617
     28  O         15.1000  -23.8780  -18.9070 O.2    17  LYS17      -0.2715
     29  CB        12.3160  -23.0600  -20.4760 C.3    17  LYS17       0.0311
     30  CG        11.7070  -22.2800  -21.6090 C.3    17  LYS17       0.0038
     31  CD        10.3670  -21.6650  -21.3040 C.3    17  LYS17       0.0206
     32  CE         9.2960  -22.6580  -21.0000 C.3    17  LYS17       0.1093
     33  NZ         8.9170  -23.4560  -22.2360 N.3    17  LYS17      -0.1314
     34  N         13.5200  -25.4820  -19.0680 N.am   18  THR18      -0.1937
     35  CA        13.8890  -26.0650  -17.7760 C.3    18  THR18       0.2028
     36  C         15.2800  -26.6520  -17.8270 C.2    18  THR18       0.2642
     37  O         16.0920  -26.4630  -16.9070 O.2    18  THR18      -0.2714
     38  CB        12.8500  -27.1380  -17.3580 C.3    18  THR18       0.1808
     39  OG1       11.5960  -26.4470  -17.2340 O.3    18  THR18      -0.2208
     40  CG2       13.2360  -27.8470  -16.0970 C.3    18  THR18       0.0379
     41  N         15.6020  -27.3640  -18.8920 N.am   19  THR19      -0.1950
     42  CA        16.9280  -27.9640  -19.0750 C.3    19  THR19       0.1897
     43  C         18.0140  -26.8730  -18.9740 C.2    19  THR19       0.2313
     44  O         19.0140  -26.9830  -18.2660 O.2    19  THR19      -0.2863
     45  CB        17.0220  -28.6890  -20.4150 C.3    19  THR19       0.1794
     46  OG1       16.0740  -29.7690  -20.4290 O.3    19  THR19      -0.2208
     47  CG2       18.4030  -29.2810  -20.6650 C.3    19  THR19       0.0378
     48  N          9.4280  -21.1380  -10.8440 N.3    39  LYS39      -0.1245
     49  CA         8.4690  -21.4790  -11.9150 C.3    39  LYS39       0.1561
     50  C          7.1220  -20.9260  -11.4490 C.2    39  LYS39       0.2260
     51  O          6.2840  -21.6540  -10.9120 O.2    39  LYS39      -0.2867
     52  CB         8.4270  -23.0020  -12.1570 C.3    39  LYS39       0.0271
     53  CG         7.4630  -23.4520  -13.2800 C.3    39  LYS39       0.0035
     54  CD         7.9400  -23.2900  -14.6850 C.3    39  LYS39       0.0206
     55  CE         6.9430  -23.8810  -15.6350 C.3    39  LYS39       0.1093
     56  NZ         7.2910  -23.7190  -17.1120 N.3    39  LYS39      -0.1314
     57  N          8.2670  -29.0310  -13.3530 N.3    54  ASP54      -0.1239
     58  CA         9.4150  -28.0920  -13.3620 C.3    54  ASP54       0.1674
     59  C          9.6610  -27.5430  -11.9840 C.2    54  ASP54       0.2266
     60  O         10.8020  -27.4260  -11.5240 O.2    54  ASP54      -0.2867
     61  CB         9.1640  -26.9310  -14.3240 C.3    54  ASP54       0.1410
     62  CG         9.1040  -27.3780  -15.7690 C.2    54  ASP54       0.3668
     63  OD1        9.3790  -28.5880  -16.0270 O.co2  54  ASP54      -0.2456
     64  OD2        8.8010  -26.5360  -16.6580 O.co2  54  ASP54      -0.2456
     65  N         11.4510  -19.1360  -14.8370 N.3   120  GLU120     -0.1245
     66  CA        10.9450  -19.7920  -16.0520 C.3   120  GLU120      0.1567
     67  C          9.5050  -19.3830  -16.3220 C.2   120  GLU120      0.2260
     68  O          8.6880  -19.5070  -15.4120 O.2   120  GLU120     -0.2867
     69  CB        11.0870  -21.2930  -15.9800 C.3   120  GLU120      0.0388
     70  CG        10.5500  -22.0010  -17.2370 C.3   120  GLU120      0.1160
     71  CD        10.7650  -23.4920  -17.2360 C.2   120  GLU120      0.3649
     72  OE1       11.6800  -23.9740  -16.5840 O.co2 120  GLU120     -0.2457
     73  OE2        9.9990  -24.1660  -17.9700 O.co2 120  GLU120     -0.2457
     74  N          6.0170  -19.8350  -19.1550 N.3   122  ALA122     -0.1231
     75  CA         5.2930  -20.9730  -19.6400 C.3   122  ALA122      0.1694
     76  C          4.7310  -20.5520  -20.9690 C.2   122  ALA122      0.2592
     77  O          4.3090  -19.3880  -21.1500 O.2   122  ALA122     -0.2718
     78  CB         4.1640  -21.3120  -18.6700 C.3   122  ALA122      0.0304
     79  N          4.6940  -21.4730  -21.9150 N.am  123  GLY123     -0.1957
     80  CA         3.8700  -21.2560  -23.1140 C.3   123  GLY123      0.1869
     81  C          4.5190  -20.4880  -24.2510 C.2   123  GLY123      0.2309
     82  O          4.6800  -20.9980  -25.3340 O.2   123  GLY123     -0.2863
     83  N         19.0210  -24.1610  -28.0000 N.3   179  ASN179     -0.1225
     84  CA        19.2970  -25.3650  -27.2360 C.3   179  ASN179      0.1785
     85  C         19.5890  -26.5210  -28.1640 C.2   179  ASN179      0.2597
     86  O         18.6990  -27.1450  -28.7150 O.2   179  ASN179     -0.2718
     87  CB        18.0820  -25.6740  -26.3630 C.3   179  ASN179      0.1169
     88  CG        18.2100  -26.9590  -25.5990 C.2   179  ASN179      0.2627
     89  OD1       19.2990  -27.4330  -25.3010 O.2   179  ASN179     -0.2716
     90  ND2       17.0740  -27.5740  -25.2920 N.am  179  ASN179     -0.0877
     91  N         20.8800  -26.7010  -28.4230 N.am  180  LEU180     -0.1966
     92  CA        21.3690  -27.6690  -29.4140 C.3   180  LEU180      0.1728
     93  C         21.5640  -28.9980  -28.7300 C.2   180  LEU180      0.2616
     94  O         22.4340  -29.1680  -27.8500 O.2   180  LEU180     -0.2715
     95  CB        22.6810  -27.1550  -30.0190 C.3   180  LEU180      0.0311
     96  CG        23.3570  -28.0410  -31.0310 C.3   180  LEU180      0.0022
     97  CD1       22.3790  -28.3670  -32.1960 C.3   180  LEU180      0.0001
     98  CD2       24.5910  -27.3560  -31.5720 C.3   180  LEU180      0.0001
     99  N         20.7550  -29.9550  -29.1110 N.am  181  LYS181     -0.1963
    100  CA        20.7210  -31.2450  -28.4610 C.3   181  LYS181      0.1728
    101  C         21.7910  -32.1300  -29.0070 C.2   181  LYS181      0.2616
    102  O         22.2310  -32.0330  -30.1010 O.2   181  LYS181     -0.2715
    103  CB        19.3040  -31.8820  -28.5720 C.3   181  LYS181      0.0311
    104  CG        18.1750  -31.0980  -27.9690 C.3   181  LYS181      0.0038
    105  CD        16.8910  -31.9090  -28.0800 C.3   181  LYS181      0.0206
    106  CE        15.7520  -31.1720  -27.6210 C.3   181  LYS181      0.1093
    107  NZ        14.5250  -32.0270  -27.6610 N.3   181  LYS181     -0.1314
    108  N         22.2110  -33.0650  -28.1610 N.am  182  GLY182     -0.1955
    109  CA        23.1370  -34.0770  -28.6040 C.3   182  GLY182      0.1869
    110  C         22.5640  -34.8700  -29.7710 C.2   182  GLY182      0.2309
    111  O         21.3850  -35.2060  -29.8090 O.2   182  GLY182     -0.2863
    112  N         24.7330  -24.1380  -25.3800 N.3   210  GLN210     -0.1245
    113  CA        25.7500  -25.0150  -24.8770 C.3   210  GLN210      0.1566
    114  C         27.1430  -24.4010  -25.0260 C.2   210  GLN210      0.2260
    115  O         28.0500  -24.8430  -24.3230 O.2   210  GLN210     -0.2867
    116  CB        25.6890  -26.3690  -25.6380 C.3   210  GLN210      0.0367
    117  CG        24.5110  -27.2540  -25.1990 C.3   210  GLN210      0.0905
    118  CD        23.1300  -26.7800  -25.5750 C.2   210  GLN210      0.2608
    119  OE1       22.9350  -25.9740  -26.5130 O.2   210  GLN210     -0.2717
    120  NE2       22.1460  -27.3050  -24.8720 N.am  210  GLN210     -0.0878
@<TRIPOS>BOND
     1    97    96    1
     2    98    96    1
     3    96    95    1
     4   102   101    2
     5    95    92    1
     6   111   110    2
     7   110   109    1
     8    92    93    1
     9    92    91    1
    10    99    93   am
    11    99   100    1
    12   101   100    1
    13   101   108   am
    14    93    94    2
    15    86    85    2
    16   109   108    1
    17   103   100    1
    18   103   104    1
    19    91    85   am
    20    85    84    1
    21   105   104    1
    22   105   106    1
    23    83    84    1
    24   107   106    1
    25    84    87    1
    26    20    17    1
    27     4     3    2
    28    17    16    1
    29    17    18    1
    30   119   118    2
    31    87    88    1
    32     1     2    1
    33    19    18    2
    34     7     5    1
    35    11    10    2
    36    16    10   am
    37   116   117    1
    38   116   113    1
    39    10     9    1
    40    18    21   am
    41     3     2    1
    42     3     8   am
    43    88    89    2
    44    88    90   am
    45   118   117    1
    46   118   120   am
    47   112   113    1
    48    82    81    2
    49    12     9    1
    50    12    13    1
    51     2     5    1
    52   114   113    1
    53   114   115    2
    54     9     8    1
    55     5     6    1
    56    15    13   am
    57    21    22    1
    58    81    80    1
    59    13    14    2
    60    22    23    1
    61    80    79    1
    62    23    25   am
    63    23    24    2
    64    33    32    1
    65    79    76   am
    66    25    26    1
    67    30    31    1
    68    30    29    1
    69    31    32    1
    70    77    76    2
    71    76    75    1
    72    26    29    1
    73    26    27    1
    74    47    45    1
    75    46    45    1
    76    45    42    1
    77    75    74    1
    78    75    78    1
    79    27    34   am
    80    27    28    2
    81    42    43    1
    82    42    41    1
    83    34    35    1
    84    43    44    2
    85    41    36   am
    86    73    71   ar
    87    36    35    1
    88    36    37    2
    89    35    38    1
    90    38    39    1
    91    38    40    1
    92    70    71    1
    93    70    69    1
    94    71    72   ar
    95    56    55    1
    96    64    62   ar
    97    67    66    1
    98    67    68    2
    99    66    69    1
   100    66    65    1
   101    63    62   ar
   102    62    61    1
   103    55    54    1
   104    54    53    1
   105    61    58    1
   106    58    57    1
   107    58    59    1
   108    53    52    1
   109    52    49    1
   110    59    60    2
   111    49    50    1
   112    49    48    1
   113    50    51    2
