@<TRIPOS>MOLECULE
tmp/3qxtA00.pdb
 165 158 0 0 0
SMALL
GASTEIGER

@<TRIPOS>ATOM
      1  N         39.7030  -43.6400  -15.2330 N.3     2  VAL2       -0.1245
      2  CA        38.3060  -43.3880  -14.7350 C.3     2  VAL2        0.1561
      3  C         37.4810  -42.6220  -15.7290 C.2     2  VAL2        0.2260
      4  O         37.9000  -41.5980  -16.1840 O.2     2  VAL2       -0.2867
      5  CB        38.2330  -42.5520  -13.3960 C.3     2  VAL2        0.0252
      6  CG1       36.7960  -42.7800  -12.7360 C.3     2  VAL2        0.0019
      7  CG2       39.3340  -42.9920  -12.4980 C.3     2  VAL2        0.0019
      8  N         33.6680  -40.7530  -16.1540 N.3     4  LEU4       -0.1245
      9  CA        32.3300  -40.4040  -15.5330 C.3     4  LEU4        0.1561
     10  C         31.2870  -40.4610  -16.6530 C.2     4  LEU4        0.2260
     11  O         31.5680  -40.0370  -17.8030 O.2     4  LEU4       -0.2867
     12  CB        32.4190  -38.9420  -15.0550 C.3     4  LEU4        0.0270
     13  CG        33.3970  -38.8250  -13.8780 C.3     4  LEU4        0.0019
     14  CD1       33.4060  -37.3180  -13.4830 C.3     4  LEU4        0.0001
     15  CD2       33.0090  -39.6130  -12.7040 C.3     4  LEU4        0.0001
     16  N         25.1880  -39.7040  -12.2860 N.3    22  CYS22      -0.1221
     17  CA        26.5810  -39.7330  -12.8150 C.3    22  CYS22       0.1808
     18  C         27.1810  -40.9640  -12.2150 C.2    22  CYS22       0.2601
     19  O         27.3300  -41.0480  -11.0190 O.2    22  CYS22      -0.2717
     20  CB        27.2610  -38.5110  -12.2890 C.3    22  CYS22       0.0970
     21  SG        29.0770  -38.4880  -12.6770 S.3    22  CYS22      -0.0800
     22  N         27.5470  -41.9180  -13.0330 N.am   23  ALA23      -0.1965
     23  CA        28.1810  -43.1380  -12.5800 C.3    23  ALA23       0.1728
     24  C         29.6590  -43.1000  -12.9880 C.2    23  ALA23       0.2616
     25  O         30.0800  -42.2650  -13.8220 O.2    23  ALA23      -0.2715
     26  CB        27.4740  -44.3340  -13.3030 C.3    23  ALA23       0.0334
     27  N         30.5080  -43.8490  -12.3190 N.am   24  ALA24      -0.1977
     28  CA        31.9260  -43.8550  -12.7210 C.3    24  ALA24       0.1597
     29  C         32.3470  -45.2690  -13.0560 C.2    24  ALA24       0.2287
     30  O         31.7580  -46.2260  -12.5150 O.2    24  ALA24      -0.2864
     31  CB        32.7570  -43.4140  -11.5260 C.3    24  ALA24       0.0319
     32  N         35.0660  -46.7540  -12.1320 N.3    26  ARG26      -0.1231
     33  CA        35.7700  -47.3060  -10.9770 C.3    26  ARG26       0.1694
     34  C         35.4800  -46.5640   -9.7300 C.2    26  ARG26       0.2592
     35  O         35.0070  -45.4160   -9.7800 O.2    26  ARG26      -0.2718
     36  CB        37.2930  -47.2880  -11.1090 C.3    26  ARG26       0.0321
     37  CG        37.9370  -46.4870  -12.1900 C.3    26  ARG26       0.0489
     38  CD        39.3900  -46.9520  -12.3700 C.3    26  ARG26       0.2205
     39  NE        39.4330  -48.0410  -13.3200 N.pl3  26  ARG26      -0.0865
     40  CZ        40.2540  -49.0900  -13.2470 C.cat  26  ARG26       0.5346
     41  NH1       41.1100  -49.2260  -12.2280 N.pl3  26  ARG26       0.1354
     42  NH2       40.1950  -50.0230  -14.1970 N.pl3  26  ARG26       0.1354
     43  N         35.7860  -47.2090   -8.6190 N.am   27  ARG27      -0.1966
     44  CA        35.6070  -46.6840   -7.2820 C.3    27  ARG27       0.1729
     45  C         36.9230  -46.0800   -6.7950 C.2    27  ARG27       0.2617
     46  O         37.9360  -46.5350   -7.1790 O.2    27  ARG27      -0.2715
     47  CB        35.2090  -47.8050   -6.3400 C.3    27  ARG27       0.0348
     48  CG        33.8470  -48.3130   -6.4900 C.3    27  ARG27       0.0492
     49  CD        33.3940  -49.1330   -5.3150 C.3    27  ARG27       0.2205
     50  NE        32.0940  -49.6930   -5.6130 N.pl3  27  ARG27      -0.0865
     51  CZ        30.9540  -49.2440   -5.1270 C.cat  27  ARG27       0.5346
     52  NH1       30.9530  -48.2690   -4.2800 N.pl3  27  ARG27       0.1354
     53  NH2       29.8230  -49.7910   -5.4950 N.pl3  27  ARG27       0.1354
     54  N         36.8790  -45.0650   -5.9530 N.am   28  SER28      -0.1936
     55  CA        38.0540  -44.5900   -5.2820 C.3    28  SER28       0.2055
     56  C         37.9250  -44.6950   -3.7970 C.2    28  SER28       0.2644
     57  O         36.8270  -44.4660   -3.2890 O.2    28  SER28      -0.2714
     58  CB        38.2610  -43.1270   -5.6380 C.3    28  SER28       0.2130
     59  OG        39.3650  -42.5460   -4.9470 O.3    28  SER28      -0.2179
     60  N         39.0380  -44.9830   -3.0760 N.am   29  SER29      -0.1935
     61  CA        39.0360  -44.9330   -1.6100 C.3    29  SER29       0.2055
     62  C         39.1610  -43.5620   -1.1010 C.2    29  SER29       0.2642
     63  O         38.9160  -43.3340    0.1210 O.2    29  SER29      -0.2714
     64  CB        40.1910  -45.7830   -1.0620 C.3    29  SER29       0.2130
     65  OG        39.9250  -47.1150   -1.3600 O.3    29  SER29      -0.2179
     66  N         39.5480  -42.6240   -1.9990 N.am   30  ARG30      -0.1977
     67  CA        39.6980  -41.2540   -1.5750 C.3    30  ARG30       0.1597
     68  C         38.3920  -40.4540   -1.5670 C.2    30  ARG30       0.2287
     69  O         37.3580  -40.9210   -2.0490 O.2    30  ARG30      -0.2864
     70  CB        40.7270  -40.5550   -2.4860 C.3    30  ARG30       0.0334
     71  CG        42.1530  -41.1560   -2.2270 C.3    30  ARG30       0.0492
     72  CD        43.0810  -40.6070   -3.2740 C.3    30  ARG30       0.2205
     73  NE        42.8990  -41.2420   -4.5730 N.pl3  30  ARG30      -0.0865
     74  CZ        43.3280  -40.7170   -5.7300 C.cat  30  ARG30       0.5346
     75  NH1       43.9160  -39.5070   -5.7590 N.pl3  30  ARG30       0.1354
     76  NH2       43.1240  -41.3650   -6.8680 N.pl3  30  ARG30       0.1354
     77  N         36.1550  -37.5940   -2.9240 N.3    32  TRP32      -0.1241
     78  CA        36.0560  -36.6900   -4.1090 C.3    32  TRP32       0.1605
     79  C         34.7840  -35.8670   -4.0000 C.2    32  TRP32       0.2264
     80  O         33.6900  -36.4270   -3.9150 O.2    32  TRP32      -0.2867
     81  CB        35.8750  -37.5390   -5.3720 C.3    32  TRP32       0.0550
     82  CG        37.1700  -38.2820   -5.6650 C.ar   32  TRP32       0.0003
     83  CD1       37.5040  -39.6040   -5.3460 C.ar   32  TRP32       0.0946
     84  CD2       38.2560  -37.7520   -6.4130 C.ar   32  TRP32       0.0152
     85  NE1       38.8180  -39.8610   -5.7740 N.ar   32  TRP32      -0.2442
     86  CE2       39.2880  -38.7500   -6.4310 C.ar   32  TRP32       0.0810
     87  CE3       38.4710  -36.5340   -7.0400 C.ar   32  TRP32       0.0012
     88  CZ2       40.4770  -38.5670   -7.0960 C.ar   32  TRP32       0.0191
     89  CZ3       39.7170  -36.3340   -7.7170 C.ar   32  TRP32       0.0001
     90  CH2       40.6830  -37.3410   -7.7220 C.ar   32  TRP32       0.0015
     91  N         31.8980  -33.8470   -5.7570 N.3    34  MET34      -0.1245
     92  CA        31.3440  -34.0170   -7.1150 C.3    34  MET34       0.1570
     93  C         30.4860  -32.8120   -7.4780 C.2    34  MET34       0.2261
     94  O         29.9530  -32.1320   -6.5770 O.2    34  MET34      -0.2867
     95  CB        30.4360  -35.2650   -7.1420 C.3    34  MET34       0.0387
     96  CG        31.1820  -36.5980   -6.7200 C.3    34  MET34       0.0595
     97  SD        32.4650  -37.0750   -7.8920 S.3    34  MET34      -0.1393
     98  CE        31.4930  -37.4980   -9.3650 C.3    34  MET34       0.0692
     99  N         24.3810  -37.9900   -3.0980 N.3    72  ARG72      -0.1231
    100  CA        25.2920  -39.0280   -3.6060 C.3    72  ARG72       0.1694
    101  C         25.0710  -40.3030   -2.8400 C.2    72  ARG72       0.2592
    102  O         24.5840  -40.2050   -1.6800 O.2    72  ARG72      -0.2718
    103  CB        26.7890  -38.5800   -3.5370 C.3    72  ARG72       0.0321
    104  CG        27.2380  -38.3430   -2.0410 C.3    72  ARG72       0.0489
    105  CD        28.6460  -37.6760   -2.0410 C.3    72  ARG72       0.2205
    106  NE        29.6900  -38.4580   -2.7600 N.pl3  72  ARG72      -0.0865
    107  CZ        30.8070  -37.8510   -3.2180 C.cat  72  ARG72       0.5346
    108  NH1       30.9580  -36.4980   -3.0490 N.pl3  72  ARG72       0.1354
    109  NH2       31.6920  -38.5920   -3.8800 N.pl3  72  ARG72       0.1354
    110  N         25.3700  -41.4560   -3.4650 N.am   73  ASP73      -0.1960
    111  CA        25.2120  -42.7440   -2.7960 C.3    73  ASP73       0.1840
    112  C         26.5170  -43.5160   -2.9130 C.2    73  ASP73       0.2621
    113  O         26.9670  -43.8730   -3.9940 O.2    73  ASP73      -0.2715
    114  CB        24.1030  -43.5780   -3.4290 C.3    73  ASP73       0.1450
    115  CG        23.8570  -44.9040   -2.5870 C.2    73  ASP73       0.3671
    116  OD1       24.3920  -45.9540   -2.9190 O.co2  73  ASP73      -0.2456
    117  OD2       23.2700  -44.7790   -1.5110 O.co2  73  ASP73      -0.2456
    118  N         27.1370  -43.7810   -1.7900 N.am   74  LYS74      -0.1977
    119  CA        28.4120  -44.4600   -1.7950 C.3    74  LYS74       0.1596
    120  C         28.3570  -45.9040   -2.2840 C.2    74  LYS74       0.2287
    121  O         29.1610  -46.3350   -3.0370 O.2    74  LYS74      -0.2864
    122  CB        29.0110  -44.4130   -0.4050 C.3    74  LYS74       0.0298
    123  CG        30.3390  -45.0120   -0.2800 C.3    74  LYS74       0.0038
    124  CD        30.9150  -44.6420    1.0550 C.3    74  LYS74       0.0206
    125  CE        32.3050  -44.1820    0.9350 C.3    74  LYS74       0.1093
    126  NZ        32.4860  -42.7240    1.0040 N.3    74  LYS74      -0.1314
    127  N         28.1060  -45.8500   -5.9220 N.3    77  ASN77      -0.1225
    128  CA        29.1690  -44.9890   -6.5270 C.3    77  ASN77       0.1785
    129  C         28.4770  -44.1110   -7.5840 C.2    77  ASN77       0.2598
    130  O         28.9850  -44.0160   -8.7430 O.2    77  ASN77      -0.2718
    131  CB        30.2360  -45.8650   -7.1920 C.3    77  ASN77       0.1169
    132  CG        31.5180  -45.1370   -7.4420 C.2    77  ASN77       0.2627
    133  OD1       32.1980  -45.4040   -8.4680 O.2    77  ASN77      -0.2716
    134  ND2       31.8630  -44.2500   -6.5690 N.am   77  ASN77      -0.0877
    135  N         27.3910  -43.4490   -7.1930 N.am   78  THR78      -0.1939
    136  CA        26.6200  -42.5840   -8.1450 C.3    78  THR78       0.2028
    137  C         26.2900  -41.2710   -7.4760 C.2    78  THR78       0.2642
    138  O         26.1400  -41.2010   -6.2580 O.2    78  THR78      -0.2714
    139  CB        25.3020  -43.3260   -8.4890 C.3    78  THR78       0.1808
    140  OG1       25.6700  -44.5040   -9.1950 O.3    78  THR78      -0.2208
    141  CG2       24.4860  -42.5080   -9.5160 C.3    78  THR78       0.0379
    142  N         26.2110  -40.2230   -8.2620 N.am   79  VAL79      -0.1977
    143  CA        25.8060  -38.9280   -7.7990 C.3    79  VAL79       0.1596
    144  C         24.5900  -38.5130   -8.5940 C.2    79  VAL79       0.2287
    145  O         24.5140  -38.8140   -9.7340 O.2    79  VAL79      -0.2864
    146  CB        26.8920  -37.8710   -8.0530 C.3    79  VAL79       0.0276
    147  CG1       26.4910  -36.5850   -7.4960 C.3    79  VAL79       0.0022
    148  CG2       28.0810  -38.2670   -7.4370 C.3    79  VAL79       0.0022
    149  N         34.4320  -34.4560  -11.1000 N.3    98  ALA98      -0.1245
    150  CA        34.9200  -34.8540   -9.7550 C.3    98  ALA98       0.1562
    151  C         36.1660  -33.9960   -9.4610 C.2    98  ALA98       0.2260
    152  O         36.9940  -33.8200  -10.3400 O.2    98  ALA98      -0.2867
    153  CB        35.3180  -36.3450   -9.8230 C.3    98  ALA98       0.0290
    154  N         38.2430  -34.5130  -13.2400 N.3   113  TYR113     -0.1241
    155  CA        37.6430  -35.4870  -14.1610 C.3   113  TYR113      0.1605
    156  C         36.2860  -34.9680  -14.5720 C.2   113  TYR113      0.2264
    157  O         35.5870  -34.3810  -13.7450 O.2   113  TYR113     -0.2867
    158  CB        37.3300  -36.8380  -13.5030 C.3   113  TYR113      0.0534
    159  CG        38.5680  -37.5480  -13.0100 C.ar  113  TYR113     -0.0201
    160  CD1       39.0480  -37.3220  -11.7040 C.ar  113  TYR113     -0.0009
    161  CD2       39.2530  -38.4280  -13.8560 C.ar  113  TYR113     -0.0009
    162  CE1       40.2590  -37.9950  -11.3030 C.ar  113  TYR113      0.0417
    163  CE2       40.4620  -39.0710  -13.4330 C.ar  113  TYR113      0.0417
    164  CZ        40.9140  -38.8460  -12.1860 C.ar  113  TYR113      0.1957
    165  OH        42.1220  -39.4700  -11.7760 O.3   113  TYR113     -0.2866
@<TRIPOS>BOND
     1    11    10    2
     2    10     9    1
     3     4     3    2
     4     8     9    1
     5     3     2    1
     6     9    12    1
     7     1     2    1
     8    12    13    1
     9     2     5    1
    10   156   155    1
    11   156   157    2
    12    42    40    1
    13   155   158    1
    14   155   154    1
    15    13    14    1
    16    13    15    1
    17   161   163   ar
    18   161   159   ar
    19    25    24    2
    20   158   159    1
    21   163   164   ar
    22     5     6    1
    23     5     7    1
    24    39    40    2
    25    39    38    1
    26    26    23    1
    27    40    41    1
    28    29    28    1
    29    29    30    2
    30    22    23    1
    31    22    18   am
    32   159   160   ar
    33    24    23    1
    34    24    27   am
    35    17    20    1
    36    17    16    1
    37    17    18    1
    38    28    27    1
    39    28    31    1
    40    21    20    1
    41    38    37    1
    42    18    19    2
    43    37    36    1
    44   164   165    1
    45   164   162   ar
    46    32    33    1
    47   160   162   ar
    48    36    33    1
    49   149   150    1
    50    33    34    1
    51   152   151    2
    52   153   150    1
    53    35    34    2
    54   150   151    1
    55   145   144    2
    56    34    43   am
    57   141   139    1
    58    98    97    1
    59   140   139    1
    60   130   129    2
    61    43    44    1
    62   144   143    1
    63   139   136    1
    64   133   132    2
    65   142   143    1
    66   142   137   am
    67   136   137    1
    68   136   135    1
    69   146   143    1
    70   146   147    1
    71   146   148    1
    72    97    96    1
    73    90    89   ar
    74    90    88   ar
    75    89    87   ar
    76   129   135   am
    77   129   128    1
    78    93    92    1
    79    93    94    2
    80   137   138    2
    81   132   131    1
    82   132   134   am
    83    44    45    1
    84    44    47    1
    85   131   128    1
    86    46    45    2
    87    95    92    1
    88    95    96    1
    89    92    91    1
    90    88    86   ar
    91    87    84   ar
    92    76    74    1
    93    45    54   am
    94   128   127    1
    95    48    47    1
    96    48    49    1
    97    86    84   ar
    98    86    85   ar
    99    84    82   ar
   100    54    55    1
   101    85    83   ar
   102    75    74    1
   103    74    73    2
   104    82    81    1
   105    82    83   ar
   106    58    55    1
   107    58    59    1
   108    50    49    1
   109    50    51    2
   110    53    51    1
   111    81    78    1
   112    55    56    1
   113    51    52    1
   114    73    72    1
   115    78    79    1
   116    78    77    1
   117    79    80    2
   118   113   112    2
   119   109   107    1
   120    56    57    2
   121    56    60   am
   122   100   103    1
   123   100    99    1
   124   100   101    1
   125   103   104    1
   126   110   101   am
   127   110   111    1
   128   114   111    1
   129   114   115    1
   130    72    71    1
   131   107   108    1
   132   107   106    2
   133    60    61    1
   134   121   120    2
   135   116   115   ar
   136   112   111    1
   137   112   118   am
   138   101   102    2
   139   106   105    1
   140   115   117   ar
   141    70    71    1
   142    70    67    1
   143   120   119    1
   144    69    68    2
   145   105   104    1
   146    66    67    1
   147    66    62   am
   148   119   118    1
   149   119   122    1
   150    61    62    1
   151    61    64    1
   152    67    68    1
   153    65    64    1
   154    62    63    2
   155   122   123    1
   156   123   124    1
   157   125   126    1
   158   125   124    1
