@<TRIPOS>MOLECULE
tmp/3qxvC00.pdb
 163 156 0 0 0
SMALL
GASTEIGER

@<TRIPOS>ATOM
      1  N         22.6060    5.1320  -46.0930 N.3     1  VAL1       -0.1245
      2  CA        21.4070    4.2360  -46.4040 C.3     1  VAL1        0.1561
      3  C         20.0450    4.7220  -45.8980 C.2     1  VAL1        0.2260
      4  O         19.8540    4.9510  -44.6870 O.2     1  VAL1       -0.2867
      5  CB        21.6010    2.7950  -45.8870 C.3     1  VAL1        0.0252
      6  CG1       20.4270    1.8800  -46.3440 C.3     1  VAL1        0.0019
      7  CG2       22.9810    2.2300  -46.3200 C.3     1  VAL1        0.0019
      8  N         15.7130    3.9240  -46.2200 N.3     3  LEU3       -0.1245
      9  CA        14.4970    3.3000  -46.6740 C.3     3  LEU3        0.1561
     10  C         13.4690    4.4090  -46.9000 C.2     3  LEU3        0.2260
     11  O         13.2660    5.2290  -46.0270 O.2     3  LEU3       -0.2867
     12  CB        13.9620    2.3660  -45.5770 C.3     3  LEU3        0.0270
     13  CG        14.4610    0.9250  -45.4550 C.3     3  LEU3        0.0019
     14  CD1       15.6480    0.5850  -46.3140 C.3     3  LEU3        0.0001
     15  CD2       14.7700    0.6090  -44.0200 C.3     3  LEU3        0.0001
     16  N          8.3210    0.0780  -50.3310 N.3    21  CYS21      -0.1221
     17  CA         9.5040    0.5100  -49.6180 C.3    21  CYS21       0.1808
     18  C         10.6710    0.3760  -50.5560 C.2    21  CYS21       0.2601
     19  O         10.9510   -0.7090  -50.9760 O.2    21  CYS21      -0.2717
     20  CB         9.7600   -0.3550  -48.4000 C.3    21  CYS21       0.0970
     21  SG        11.2800    0.0580  -47.5660 S.3    21  CYS21      -0.0800
     22  N         11.2350    1.5040  -50.9680 N.am   22  ALA22      -0.1965
     23  CA        12.5170    1.5640  -51.7290 C.3    22  ALA22       0.1728
     24  C         13.6630    1.8220  -50.8110 C.2    22  ALA22       0.2616
     25  O         13.4140    2.2470  -49.6910 O.2    22  ALA22      -0.2715
     26  CB        12.4370    2.6910  -52.7940 C.3    22  ALA22       0.0334
     27  N         14.9070    1.5880  -51.3150 N.am   23  ALA23      -0.1977
     28  CA        16.2320    1.8860  -50.7240 C.3    23  ALA23       0.1597
     29  C         17.1230    2.7270  -51.6940 C.2    23  ALA23       0.2287
     30  O         17.2360    2.3950  -52.8920 O.2    23  ALA23      -0.2864
     31  CB        17.0300    0.5840  -50.4020 C.3    23  ALA23       0.0319
     32  N         20.0970    2.7170  -51.7410 N.3    25  ARG25      -0.1231
     33  CA        21.3460    1.9560  -51.9520 C.3    25  ARG25       0.1694
     34  C         21.0770    0.4400  -51.9940 C.2    25  ARG25       0.2592
     35  O         20.0560   -0.0560  -51.4650 O.2    25  ARG25      -0.2718
     36  CB        22.3550    2.2910  -50.8600 C.3    25  ARG25       0.0321
     37  CG        23.3190    3.4030  -51.2400 C.3    25  ARG25       0.0489
     38  CD        24.2700    3.7420  -50.1220 C.3    25  ARG25       0.2205
     39  NE        25.5750    4.0950  -50.6640 N.pl3  25  ARG25      -0.0865
     40  CZ        26.5580    3.2250  -50.8930 C.cat  25  ARG25       0.5346
     41  NH1       26.4110    1.9390  -50.5930 N.pl3  25  ARG25       0.1354
     42  NH2       27.7070    3.6480  -51.4020 N.pl3  25  ARG25       0.1354
     43  N         21.9620   -0.2700  -52.6850 N.am   26  ARG26      -0.1966
     44  CA        21.8600   -1.7200  -52.8370 C.3    26  ARG26       0.1729
     45  C         22.9570   -2.4420  -52.0630 C.2    26  ARG26       0.2616
     46  O         24.1120   -2.0150  -52.0410 O.2    26  ARG26      -0.2715
     47  CB        21.9230   -2.1250  -54.3160 C.3    26  ARG26       0.0348
     48  CG        20.5500   -2.4970  -54.9250 C.3    26  ARG26       0.0492
     49  CD        20.6940   -3.4800  -56.1130 C.3    26  ARG26       0.2205
     50  NE        19.6760   -3.1860  -57.1140 N.pl3  26  ARG26      -0.0865
     51  CZ        18.5180   -3.8330  -57.1830 C.cat  26  ARG26       0.5346
     52  NH1       18.3050   -4.8620  -56.3660 N.pl3  26  ARG26       0.1354
     53  NH2       17.5930   -3.4770  -58.0720 N.pl3  26  ARG26       0.1354
     54  N         22.5700   -3.5500  -51.4420 N.am   27  SER27      -0.1950
     55  CA        23.4520   -4.3170  -50.5670 C.3    27  SER27       0.1924
     56  C         23.8040   -5.6490  -51.2240 C.2    27  SER27       0.2314
     57  O         22.9530   -6.2640  -51.8860 O.2    27  SER27      -0.2863
     58  CB        22.7340   -4.5430  -49.2270 C.3    27  SER27       0.2116
     59  OG        23.0860   -5.7640  -48.6010 O.3    27  SER27      -0.2180
     60  N         24.5640   -8.0850  -49.2280 N.3    29  ARG29      -0.1245
     61  CA        23.9180   -8.9830  -48.2880 C.3    29  ARG29       0.1563
     62  C         22.4140   -9.0840  -48.5700 C.2    29  ARG29       0.2260
     63  O         21.9070   -8.4190  -49.4650 O.2    29  ARG29      -0.2867
     64  CB        24.2420   -8.5850  -46.8530 C.3    29  ARG29       0.0307
     65  CG        25.5890   -9.1520  -46.4010 C.3    29  ARG29       0.0489
     66  CD        26.4000   -8.1020  -45.6530 C.3    29  ARG29       0.2205
     67  NE        26.4510   -8.3070  -44.2010 N.pl3  29  ARG29      -0.0865
     68  CZ        25.4290   -8.1440  -43.3580 C.cat  29  ARG29       0.5346
     69  NH1       24.2200   -7.8320  -43.7920 N.pl3  29  ARG29       0.1354
     70  NH2       25.6090   -8.3390  -42.0620 N.pl3  29  ARG29       0.1354
     71  N         18.5270   -9.1030  -46.9230 N.3    31  TRP31      -0.1241
     72  CA        17.9720   -8.3950  -45.7830 C.3    31  TRP31       0.1605
     73  C         16.5640   -8.8260  -45.5750 C.2    31  TRP31       0.2264
     74  O         15.7840   -8.8460  -46.5250 O.2    31  TRP31      -0.2867
     75  CB        18.0480   -6.8840  -45.9860 C.3    31  TRP31       0.0550
     76  CG        19.4490   -6.4170  -45.8730 C.ar   31  TRP31       0.0003
     77  CD1       20.3950   -6.4480  -46.8410 C.ar   31  TRP31       0.0946
     78  CD2       20.0970   -5.9430  -44.6810 C.ar   31  TRP31       0.0152
     79  NE1       21.6110   -5.9910  -46.3350 N.ar   31  TRP31      -0.2442
     80  CE2       21.4480   -5.6810  -45.0100 C.ar   31  TRP31       0.0810
     81  CE3       19.6600   -5.6930  -43.3780 C.ar   31  TRP31       0.0012
     82  CZ2       22.3630   -5.1720  -44.0830 C.ar   31  TRP31       0.0191
     83  CZ3       20.5690   -5.1930  -42.4540 C.ar   31  TRP31       0.0001
     84  CH2       21.9170   -4.9470  -42.8090 C.ar   31  TRP31       0.0015
     85  N         13.0660   -7.8850  -44.2950 N.3    33  MET33      -0.1245
     86  CA        12.3910   -6.6000  -44.3050 C.3    33  MET33       0.1570
     87  C         11.0840   -6.7260  -43.5650 C.2    33  MET33       0.2261
     88  O         10.4500   -7.8060  -43.5470 O.2    33  MET33      -0.2867
     89  CB        12.0550   -6.1630  -45.7290 C.3    33  MET33       0.0387
     90  CG        13.2390   -6.0780  -46.6660 C.3    33  MET33       0.0595
     91  SD        14.3830   -4.7420  -46.3050 S.3    33  MET33      -0.1393
     92  CE        13.5170   -3.2550  -46.7480 C.3    33  MET33       0.0692
     93  N          7.9070   -9.0690  -51.8670 N.3    71  ARG71      -0.1231
     94  CA         9.1390   -8.3900  -52.2350 C.3    71  ARG71       0.1694
     95  C          9.5060   -8.7200  -53.6760 C.2    71  ARG71       0.2592
     96  O          9.0830   -9.7540  -54.2370 O.2    71  ARG71      -0.2718
     97  CB        10.2730   -8.6690  -51.2340 C.3    71  ARG71       0.0321
     98  CG        10.8590  -10.1110  -51.2750 C.3    71  ARG71       0.0489
     99  CD        11.7900  -10.3650  -50.0930 C.3    71  ARG71       0.2205
    100  NE        12.9750   -9.4960  -50.1520 N.pl3  71  ARG71      -0.0865
    101  CZ        13.6950   -9.1090  -49.0990 C.cat  71  ARG71       0.5346
    102  NH1       13.4140   -9.5630  -47.8580 N.pl3  71  ARG71       0.1354
    103  NH2       14.7620   -8.3240  -49.2990 N.pl3  71  ARG71       0.1354
    104  N         10.1800   -7.7710  -54.3090 N.am   72  ASP72      -0.1960
    105  CA        10.6970   -7.9620  -55.6370 C.3    72  ASP72       0.1840
    106  C         12.1300   -7.5800  -55.5160 C.2    72  ASP72       0.2622
    107  O         12.4650   -6.3820  -55.4190 O.2    72  ASP72      -0.2715
    108  CB         9.9750   -7.0320  -56.5930 C.3    72  ASP72       0.1450
    109  CG        10.5540   -7.0270  -57.9980 C.2    72  ASP72       0.3671
    110  OD1       11.7040   -7.5020  -58.2540 O.co2  72  ASP72      -0.2456
    111  OD2        9.8460   -6.4980  -58.8590 O.co2  72  ASP72      -0.2456
    112  N         12.9880   -8.6030  -55.5110 N.am   73  ASN73      -0.1972
    113  CA        14.4140   -8.3990  -55.3180 C.3    73  ASN73       0.1688
    114  C         15.1710   -7.8010  -56.5090 C.2    73  ASN73       0.2292
    115  O         16.2680   -7.2710  -56.3380 O.2    73  ASN73      -0.2864
    116  CB        15.0820   -9.6990  -54.8440 C.3    73  ASN73       0.1181
    117  CG        14.7370  -10.0000  -53.4010 C.2    73  ASN73       0.2629
    118  OD1       14.2800   -9.1050  -52.6930 O.2    73  ASN73      -0.2716
    119  ND2       14.9180  -11.2490  -52.9630 N.am   73  ASN73      -0.0877
    120  N         14.3940   -4.1880  -55.8330 N.3    76  TYR76      -0.1227
    121  CA        14.7070   -3.7570  -54.4820 C.3    76  TYR76       0.1736
    122  C         13.4840   -3.0400  -53.8850 C.2    76  TYR76       0.2595
    123  O         13.6020   -1.9510  -53.3280 O.2    76  TYR76      -0.2718
    124  CB        15.9280   -2.8110  -54.5530 C.3    76  TYR76       0.0548
    125  CG        17.0830   -3.2320  -53.6960 C.ar   76  TYR76      -0.0200
    126  CD1       17.4200   -2.5090  -52.5630 C.ar   76  TYR76      -0.0009
    127  CD2       17.7960   -4.3930  -53.9770 C.ar   76  TYR76      -0.0009
    128  CE1       18.4510   -2.9230  -51.7370 C.ar   76  TYR76       0.0417
    129  CE2       18.8500   -4.8100  -53.1770 C.ar   76  TYR76       0.0417
    130  CZ        19.1730   -4.0720  -52.0460 C.ar   76  TYR76       0.1957
    131  OH        20.2210   -4.4640  -51.2340 O.3    76  TYR76      -0.2866
    132  N         12.3030   -3.6420  -54.0280 N.am   77  LEU77      -0.1966
    133  CA        11.0830   -3.1580  -53.3950 C.3    77  LEU77       0.1728
    134  C         10.4270   -4.1730  -52.4600 C.2    77  LEU77       0.2616
    135  O         10.5070   -5.3810  -52.6760 O.2    77  LEU77      -0.2715
    136  CB        10.0530   -2.7010  -54.4410 C.3    77  LEU77       0.0311
    137  CG        10.4400   -1.5030  -55.2970 C.3    77  LEU77       0.0022
    138  CD1        9.2710   -1.0490  -56.2320 C.3    77  LEU77       0.0001
    139  CD2       10.9330   -0.3680  -54.3800 C.3    77  LEU77       0.0001
    140  N          9.6730   -3.6630  -51.4950 N.am   78  VAL78      -0.1977
    141  CA         8.9380   -4.4870  -50.5700 C.3    78  VAL78       0.1596
    142  C          7.5130   -3.8920  -50.5990 C.2    78  VAL78       0.2287
    143  O          7.3380   -2.6740  -50.6350 O.2    78  VAL78      -0.2864
    144  CB         9.6250   -4.4490  -49.1640 C.3    78  VAL78       0.0276
    145  CG1        8.8540   -5.2300  -48.1770 C.3    78  VAL78       0.0022
    146  CG2       11.1410   -5.0890  -49.2500 C.3    78  VAL78       0.0022
    147  N         14.6560   -2.7970  -42.0220 N.3    97  ALA97      -0.1245
    148  CA        15.3920   -3.8610  -42.5630 C.3    97  ALA97       0.1562
    149  C         16.2580   -4.4250  -41.4590 C.2    97  ALA97       0.2260
    150  O         16.8270   -3.6870  -40.6710 O.2    97  ALA97      -0.2867
    151  CB        16.2470   -3.3170  -43.7200 C.3    97  ALA97       0.0290
    152  N         17.8700   -0.5230  -39.8550 N.3   112  TYR112     -0.1241
    153  CA        17.4620    0.6400  -40.6800 C.3   112  TYR112      0.1605
    154  C         15.9430    0.7810  -40.6890 C.2   112  TYR112      0.2264
    155  O         15.2490   -0.2180  -40.7840 O.2   112  TYR112     -0.2867
    156  CB        17.9510    0.5070  -42.1300 C.3   112  TYR112      0.0534
    157  CG        19.4370    0.3080  -42.2430 C.ar  112  TYR112     -0.0201
    158  CD1       19.9780   -0.9700  -42.3620 C.ar  112  TYR112     -0.0009
    159  CD2       20.3110    1.3900  -42.1890 C.ar  112  TYR112     -0.0009
    160  CE1       21.3420   -1.1720  -42.4150 C.ar  112  TYR112      0.0417
    161  CE2       21.6930    1.1910  -42.2310 C.ar  112  TYR112      0.0417
    162  CZ        22.1900   -0.0990  -42.3640 C.ar  112  TYR112      0.1957
    163  OH        23.5330   -0.3190  -42.4500 O.3   112  TYR112     -0.2866
@<TRIPOS>BOND
     1   111   109   ar
     2   110   109   ar
     3    53    51    1
     4   109   108    1
     5    51    50    2
     6    51    52    1
     7    50    49    1
     8   108   105    1
     9   114   115    2
    10   114   113    1
    11   138   137    1
    12    49    48    1
    13   120   121    1
    14   105   106    1
    15   105   104    1
    16   106   112   am
    17   106   107    2
    18   112   113    1
    19   113   116    1
    20   137   136    1
    21   137   139    1
    22    48    47    1
    23   116   117    1
    24   124   121    1
    25   124   125    1
    26   121   122    1
    27   136   133    1
    28    47    44    1
    29   104    95   am
    30    96    95    2
    31   132   122   am
    32   132   133    1
    33   127   125   ar
    34   127   129   ar
    35   122   123    2
    36   125   126   ar
    37    95    94    1
    38   117   119   am
    39   117   118    2
    40   133   134    1
    41   129   130   ar
    42    30    29    2
    43    44    43    1
    44    44    45    1
    45    26    23    1
    46    43    34   am
    47   135   134    2
    48   126   128   ar
    49   134   140   am
    50    94    93    1
    51    94    97    1
    52    45    46    2
    53    45    54   am
    54   130   128   ar
    55   130   131    1
    56    34    33    1
    57    34    35    2
    58    33    32    1
    59    33    36    1
    60    57    56    2
    61    23    22    1
    62    23    24    1
    63    29    28    1
    64   140   141    1
    65    54    55    1
    66    42    40    1
    67    27    24   am
    68    27    28    1
    69    98    97    1
    70    98    99    1
    71    37    36    1
    72    37    38    1
    73    56    55    1
    74    19    18    2
    75    22    18   am
    76    40    39    2
    77    40    41    1
    78    24    25    2
    79    28    31    1
    80    39    38    1
    81   143   142    2
    82   142   141    1
    83   141   144    1
    84    55    58    1
    85    18    17    1
    86    16    17    1
    87   100    99    1
    88   100   101    2
    89    17    20    1
    90    63    62    2
    91   103   101    1
    92   146   144    1
    93    60    61    1
    94    58    59    1
    95   144   145    1
    96   101   102    1
    97    62    61    1
    98    20    21    1
    99    61    64    1
   100    71    72    1
   101    10     9    1
   102    10    11    2
   103    64    65    1
   104    77    79   ar
   105    77    76   ar
   106    92    91    1
   107     9     8    1
   108     9    12    1
   109    90    91    1
   110    90    89    1
   111    74    73    2
   112     2     1    1
   113     2     3    1
   114     2     5    1
   115    65    66    1
   116     6     5    1
   117    79    80   ar
   118     7     5    1
   119    14    13    1
   120    75    76    1
   121    75    72    1
   122     3     4    2
   123    76    78   ar
   124    72    73    1
   125    89    86    1
   126    66    67    1
   127    12    13    1
   128    13    15    1
   129    80    78   ar
   130    80    82   ar
   131    78    81   ar
   132    86    85    1
   133    86    87    1
   134    67    68    2
   135    82    84   ar
   136    69    68    1
   137   151   148    1
   138    87    88    2
   139    81    83   ar
   140    68    70    1
   141    84    83   ar
   142   148   147    1
   143   148   149    1
   144   163   162    1
   145   160   162   ar
   146   160   158   ar
   147   162   161   ar
   148   158   157   ar
   149   157   159   ar
   150   157   156    1
   151   161   159   ar
   152   156   153    1
   153   149   150    2
   154   155   154    2
   155   154   153    1
   156   153   152    1
