@<TRIPOS>MOLECULE
tmp/3qxxA01.pdb
 102 97 0 0 0
SMALL
GASTEIGER

@<TRIPOS>ATOM
      1  N          6.5060  -24.0640  -26.0270 N.3    13  THR13      -0.1203
      2  CA         6.6480  -25.1410  -25.0710 C.3    13  THR13       0.1994
      3  C          7.5310  -26.2620  -25.6470 C.2    13  THR13       0.2618
      4  O          7.5510  -26.4650  -26.8540 O.2    13  THR13      -0.2717
      5  CB         5.2780  -25.5880  -24.5680 C.3    13  THR13       0.1784
      6  OG1        5.4310  -26.3280  -23.3570 O.3    13  THR13      -0.2211
      7  CG2        4.5970  -26.3830  -25.6030 C.3    13  THR13       0.0376
      8  N          8.2190  -26.9780  -24.7800 N.am   14  ASN14      -0.1960
      9  CA         9.0810  -28.0850  -25.1430 C.3    14  ASN14       0.1819
     10  C         10.3800  -27.6950  -25.8200 C.2    14  ASN14       0.2621
     11  O         11.1090  -28.5770  -26.2260 O.2    14  ASN14      -0.2715
     12  CB         8.3410  -29.1340  -25.9890 C.3    14  ASN14       0.1195
     13  CG         8.5090  -30.4460  -25.4380 C.2    14  ASN14       0.2630
     14  OD1        8.3870  -30.6300  -24.2200 O.2    14  ASN14      -0.2716
     15  ND2        8.6830  -31.3950  -26.2920 N.am   14  ASN14      -0.0877
     16  N         10.7270  -26.4190  -25.8640 N.am   15  ALA15      -0.1963
     17  CA        11.9410  -25.9810  -26.5490 C.3    15  ALA15       0.1728
     18  C         13.1650  -26.2780  -25.6930 C.2    15  ALA15       0.2617
     19  O         14.2600  -26.4650  -26.2130 O.2    15  ALA15      -0.2715
     20  CB        11.8860  -24.5050  -26.8730 C.3    15  ALA15       0.0334
     21  N         13.0200  -26.2370  -24.3650 N.am   16  GLY16      -0.1940
     22  CA        14.1340  -26.4620  -23.4490 C.3    16  GLY16       0.2014
     23  C         14.3140  -25.4560  -22.3040 C.2    16  GLY16       0.2639
     24  O         15.3680  -25.3900  -21.7440 O.2    16  GLY16      -0.2714
     25  N         13.2400  -24.7220  -21.9630 N.am   17  LYS17      -0.1963
     26  CA        13.3760  -23.7720  -20.8670 C.3    17  LYS17       0.1728
     27  C         13.8890  -24.4250  -19.5730 C.2    17  LYS17       0.2617
     28  O         14.8080  -23.9570  -18.9440 O.2    17  LYS17      -0.2715
     29  CB        12.0690  -23.0500  -20.5530 C.3    17  LYS17       0.0311
     30  CG        11.5200  -22.2360  -21.7060 C.3    17  LYS17       0.0038
     31  CD        10.3010  -21.4130  -21.2960 C.3    17  LYS17       0.0206
     32  CE         9.0610  -22.3190  -20.9450 C.3    17  LYS17       0.1093
     33  NZ         8.6230  -23.2290  -22.1130 N.3    17  LYS17      -0.1314
     34  N         13.2130  -25.4790  -19.1460 N.am   18  THR18      -0.1937
     35  CA        13.5260  -26.1210  -17.8710 C.3    18  THR18       0.2028
     36  C         14.9280  -26.7210  -17.9090 C.2    18  THR18       0.2642
     37  O         15.7160  -26.5310  -16.9630 O.2    18  THR18      -0.2714
     38  CB        12.4480  -27.1500  -17.5160 C.3    18  THR18       0.1808
     39  OG1       11.1970  -26.4650  -17.4320 O.3    18  THR18      -0.2208
     40  CG2       12.7560  -27.8780  -16.2060 C.3    18  THR18       0.0379
     41  N         15.2150  -27.4340  -18.9770 N.am   19  THR19      -0.1950
     42  CA        16.5220  -28.0600  -19.1460 C.3    19  THR19       0.1897
     43  C         17.6590  -26.9930  -19.0580 C.2    19  THR19       0.2313
     44  O         18.6350  -27.1660  -18.3310 O.2    19  THR19      -0.2863
     45  CB        16.6070  -28.7980  -20.5150 C.3    19  THR19       0.1794
     46  OG1       15.5860  -29.8040  -20.5660 O.3    19  THR19      -0.2208
     47  CG2       17.9850  -29.4580  -20.6820 C.3    19  THR19       0.0378
     48  N          8.1000  -29.1230  -13.7750 N.3    54  ASP54      -0.1239
     49  CA         9.2210  -28.2190  -13.7840 C.3    54  ASP54       0.1674
     50  C          9.5060  -27.7440  -12.3610 C.2    54  ASP54       0.2266
     51  O         10.6680  -27.6690  -11.9490 O.2    54  ASP54      -0.2867
     52  CB         8.9200  -26.9960  -14.6630 C.3    54  ASP54       0.1410
     53  CG         8.7370  -27.2970  -16.1150 C.2    54  ASP54       0.3668
     54  OD1        8.8290  -28.4610  -16.5630 O.co2  54  ASP54      -0.2456
     55  OD2        8.4690  -26.3110  -16.8820 O.co2  54  ASP54      -0.2456
     56  N         11.2590  -19.1580  -14.7130 N.3   120  GLU120     -0.1245
     57  CA        10.7890  -19.7770  -15.9590 C.3   120  GLU120      0.1567
     58  C          9.3480  -19.3960  -16.1660 C.2   120  GLU120      0.2260
     59  O          8.5190  -19.5250  -15.2410 O.2   120  GLU120     -0.2867
     60  CB        10.9240  -21.2900  -15.9130 C.3   120  GLU120      0.0388
     61  CG        10.4650  -21.9380  -17.1970 C.3   120  GLU120      0.1160
     62  CD        10.5630  -23.4730  -17.2720 C.2   120  GLU120      0.3649
     63  OE1       11.3210  -24.0740  -16.4680 O.co2 120  GLU120     -0.2457
     64  OE2        9.8450  -24.0430  -18.1310 O.co2 120  GLU120     -0.2457
     65  N         18.7920  -24.2550  -27.9070 N.3   179  ASN179     -0.1225
     66  CA        19.0390  -25.4700  -27.1260 C.3   179  ASN179      0.1785
     67  C         19.3860  -26.5880  -28.0970 C.2   179  ASN179      0.2597
     68  O         18.4890  -27.1920  -28.6810 O.2   179  ASN179     -0.2718
     69  CB        17.7980  -25.8380  -26.3130 C.3   179  ASN179      0.1169
     70  CG        17.9570  -27.1480  -25.6000 C.2   179  ASN179      0.2627
     71  OD1       19.0670  -27.5400  -25.2740 O.2   179  ASN179     -0.2716
     72  ND2       16.8270  -27.8350  -25.3700 N.am  179  ASN179     -0.0877
     73  N         20.6920  -26.7780  -28.3300 N.am  180  LEU180     -0.1966
     74  CA        21.1840  -27.7580  -29.3150 C.3   180  LEU180      0.1728
     75  C         21.3370  -29.1040  -28.6330 C.2   180  LEU180      0.2616
     76  O         22.1480  -29.2660  -27.7530 O.2   180  LEU180     -0.2715
     77  CB        22.5240  -27.2580  -29.8600 C.3   180  LEU180      0.0311
     78  CG        23.2080  -28.1420  -30.8660 C.3   180  LEU180      0.0022
     79  CD1       22.2570  -28.5360  -32.0110 C.3   180  LEU180      0.0001
     80  CD2       24.4600  -27.5010  -31.3660 C.3   180  LEU180      0.0001
     81  N         20.4460  -30.0170  -29.0250 N.am  181  LYS181     -0.1963
     82  CA        20.3100  -31.3070  -28.3440 C.3   181  LYS181      0.1728
     83  C         21.4310  -32.2070  -28.7890 C.2   181  LYS181      0.2616
     84  O         21.9900  -32.1000  -29.9040 O.2   181  LYS181     -0.2715
     85  CB        18.9460  -31.9490  -28.6660 C.3   181  LYS181      0.0311
     86  CG        17.7250  -31.1420  -28.1620 C.3   181  LYS181      0.0038
     87  CD        16.4040  -31.9850  -28.2690 C.3   181  LYS181      0.0206
     88  CE        15.1750  -31.1260  -27.9830 C.3   181  LYS181      0.1093
     89  NZ        14.8100  -30.3080  -29.2070 N.3   181  LYS181     -0.1314
     90  N         21.7830  -33.1630  -27.9350 N.am  182  GLY182     -0.1955
     91  CA        22.7810  -34.1690  -28.3260 C.3   182  GLY182      0.1869
     92  C         22.3250  -34.9560  -29.5520 C.2   182  GLY182      0.2309
     93  O         21.1390  -35.2720  -29.6910 O.2   182  GLY182     -0.2863
     94  N         24.5400  -24.2270  -25.2930 N.3   210  GLN210     -0.1245
     95  CA        25.5590  -25.1370  -24.7590 C.3   210  GLN210      0.1566
     96  C         26.9630  -24.5530  -24.8840 C.2   210  GLN210      0.2260
     97  O         27.8530  -24.9480  -24.1480 O.2   210  GLN210     -0.2867
     98  CB        25.4760  -26.4700  -25.5010 C.3   210  GLN210      0.0367
     99  CG        24.3460  -27.3530  -25.0830 C.3   210  GLN210      0.0905
    100  CD        22.9440  -26.8660  -25.4670 C.2   210  GLN210      0.2608
    101  OE1       22.7830  -26.0940  -26.3950 O.2   210  GLN210     -0.2717
    102  NE2       21.9130  -27.3700  -24.7820 N.am  210  GLN210     -0.0878
@<TRIPOS>BOND
     1    79    78    1
     2    80    78    1
     3    78    77    1
     4    84    83    2
     5    77    74    1
     6    93    92    2
     7    92    91    1
     8    74    75    1
     9    74    73    1
    10    89    88    1
    11    81    75   am
    12    81    82    1
    13    83    82    1
    14    83    90   am
    15    68    67    2
    16    85    82    1
    17    85    86    1
    18    75    76    2
    19    73    67   am
    20    91    90    1
    21    87    86    1
    22    87    88    1
    23    67    66    1
    24    65    66    1
    25    66    69    1
    26    20    17    1
    27     4     3    2
    28    17    16    1
    29    17    18    1
    30   101   100    2
    31    69    70    1
    32    15    13   am
    33    11    10    2
    34    19    18    2
    35     1     2    1
    36    12    13    1
    37    12     9    1
    38    16    10   am
    39    10     9    1
    40    18    21   am
    41     3     2    1
    42     3     8   am
    43     7     5    1
    44    70    72   am
    45    70    71    2
    46    98    99    1
    47    98    95    1
    48   100    99    1
    49   100   102   am
    50    13    14    2
    51    94    95    1
    52     9     8    1
    53     2     5    1
    54    96    95    1
    55    96    97    2
    56     5     6    1
    57    21    22    1
    58    22    23    1
    59    23    25   am
    60    23    24    2
    61    33    32    1
    62    25    26    1
    63    30    31    1
    64    30    29    1
    65    31    32    1
    66    26    29    1
    67    26    27    1
    68    47    45    1
    69    46    45    1
    70    45    42    1
    71    27    34   am
    72    27    28    2
    73    42    43    1
    74    42    41    1
    75    34    35    1
    76    43    44    2
    77    41    36   am
    78    64    62   ar
    79    36    35    1
    80    36    37    2
    81    35    38    1
    82    38    39    1
    83    38    40    1
    84    62    61    1
    85    62    63   ar
    86    61    60    1
    87    55    53   ar
    88    54    53   ar
    89    58    57    1
    90    58    59    2
    91    53    52    1
    92    57    60    1
    93    57    56    1
    94    52    49    1
    95    49    48    1
    96    49    50    1
    97    50    51    2
