@<TRIPOS>MOLECULE
tmp/3qy0A00.pdb
 73 69 0 0 0
SMALL
GASTEIGER

@<TRIPOS>ATOM
      1  N          6.7230  -24.0510  -26.0550 N.3    13  THR13      -0.1203
      2  CA         6.8080  -24.9640  -24.9210 C.3    13  THR13       0.1994
      3  C          7.6270  -26.2380  -25.4080 C.2    13  THR13       0.2618
      4  O          7.7230  -26.5340  -26.6180 O.2    13  THR13      -0.2717
      5  CB         5.3620  -25.1550  -24.2200 C.3    13  THR13       0.1784
      6  OG1        5.4940  -25.6570  -22.8310 O.3    13  THR13      -0.2211
      7  CG2        4.4980  -25.9010  -25.1770 C.3    13  THR13       0.0376
      8  N          8.3110  -26.9020  -24.5310 N.am   14  ASN14      -0.1960
      9  CA         9.2750  -27.9250  -24.8360 C.3    14  ASN14       0.1819
     10  C         10.5480  -27.4800  -25.5190 C.2    14  ASN14       0.2621
     11  O         11.3320  -28.3410  -25.8200 O.2    14  ASN14      -0.2715
     12  CB         8.6650  -29.0830  -25.6320 C.3    14  ASN14       0.1195
     13  CG         7.6430  -29.7870  -24.8840 C.2    14  ASN14       0.2630
     14  OD1        7.7170  -29.9440  -23.6720 O.2    14  ASN14      -0.2716
     15  ND2        6.6300  -30.2350  -25.6010 N.am   14  ASN14      -0.0877
     16  N         10.8350  -26.1770  -25.6420 N.am   15  ALA15      -0.1963
     17  CA        12.0600  -25.7120  -26.3150 C.3    15  ALA15       0.1728
     18  C         13.3380  -25.9940  -25.4710 C.2    15  ALA15       0.2617
     19  O         14.4160  -26.1370  -26.0060 O.2    15  ALA15      -0.2715
     20  CB        11.9900  -24.2550  -26.6010 C.3    15  ALA15       0.0334
     21  N         13.1840  -25.9630  -24.1630 N.am   16  GLY16      -0.1940
     22  CA        14.3150  -26.1490  -23.2410 C.3    16  GLY16       0.2014
     23  C         14.4530  -25.1760  -22.1110 C.2    16  GLY16       0.2639
     24  O         15.5110  -25.0730  -21.5320 O.2    16  GLY16      -0.2714
     25  N         13.4100  -24.4250  -21.7640 N.am   17  LYS17      -0.1963
     26  CA        13.5540  -23.4050  -20.7310 C.3    17  LYS17       0.1728
     27  C         14.0050  -23.9950  -19.4240 C.2    17  LYS17       0.2617
     28  O         14.9300  -23.4850  -18.8000 O.2    17  LYS17      -0.2715
     29  CB        12.2460  -22.6850  -20.4950 C.3    17  LYS17       0.0311
     30  CG        11.6800  -21.8260  -21.6600 C.3    17  LYS17       0.0038
     31  CD        10.3920  -21.0970  -21.2780 C.3    17  LYS17       0.0206
     32  CE         9.2200  -21.9690  -20.8900 C.3    17  LYS17       0.1093
     33  NZ         8.8670  -23.0090  -21.9980 N.3    17  LYS17      -0.1314
     34  N         13.3450  -25.0390  -18.9860 N.am   18  THR18      -0.1937
     35  CA        13.6550  -25.6040  -17.7120 C.3    18  THR18       0.2028
     36  C         15.0690  -26.2180  -17.6910 C.2    18  THR18       0.2642
     37  O         15.8310  -25.9730  -16.7260 O.2    18  THR18      -0.2714
     38  CB        12.5770  -26.6190  -17.3250 C.3    18  THR18       0.1808
     39  OG1       11.3030  -25.9440  -17.2200 O.3    18  THR18      -0.2208
     40  CG2       12.9350  -27.3420  -16.0250 C.3    18  THR18       0.0379
     41  N         15.4110  -26.9950  -18.7090 N.am   19  THR19      -0.1950
     42  CA        16.7520  -27.5980  -18.7640 C.3    19  THR19       0.1897
     43  C         17.8580  -26.5320  -18.7870 C.2    19  THR19       0.2313
     44  O         18.8340  -26.5940  -18.0060 O.2    19  THR19      -0.2863
     45  CB        16.9210  -28.5040  -19.9590 C.3    19  THR19       0.1794
     46  OG1       15.8150  -29.4340  -19.9780 O.3    19  THR19      -0.2208
     47  CG2       18.2500  -29.3050  -19.7660 C.3    19  THR19       0.0378
     48  N          8.0930  -28.5340  -13.4890 N.3    54  ASP54      -0.1239
     49  CA         9.2370  -27.6020  -13.4930 C.3    54  ASP54       0.1674
     50  C          9.5040  -27.1020  -12.1020 C.2    54  ASP54       0.2266
     51  O         10.6910  -27.0540  -11.6500 O.2    54  ASP54      -0.2867
     52  CB         9.0440  -26.4200  -14.4520 C.3    54  ASP54       0.1410
     53  CG         8.8090  -26.8230  -15.8990 C.2    54  ASP54       0.3668
     54  OD1        8.9370  -28.0320  -16.2710 O.co2  54  ASP54      -0.2456
     55  OD2        8.5350  -25.9100  -16.7040 O.co2  54  ASP54      -0.2456
     56  N         11.3340  -18.6110  -14.7240 N.3   120  GLU120     -0.1245
     57  CA        10.8550  -19.2740  -15.9380 C.3   120  GLU120      0.1567
     58  C          9.3990  -18.9080  -16.1510 C.2   120  GLU120      0.2260
     59  O          8.5920  -19.0890  -15.2410 O.2   120  GLU120     -0.2867
     60  CB        11.0090  -20.7980  -15.8590 C.3   120  GLU120      0.0388
     61  CG        10.5660  -21.4820  -17.1790 C.3   120  GLU120      0.1160
     62  CD        10.6000  -23.0200  -17.1970 C.2   120  GLU120      0.3649
     63  OE1       11.4060  -23.5550  -16.4050 O.co2 120  GLU120     -0.2457
     64  OE2        9.8870  -23.6390  -18.0000 O.co2 120  GLU120     -0.2457
     65  N         21.0090  -29.6460  -29.4110 N.3   181  LYS181     -0.1245
     66  CA        21.3210  -31.1050  -29.1690 C.3   181  LYS181      0.1561
     67  C         22.5620  -31.5860  -29.9020 C.2   181  LYS181      0.2260
     68  O         22.8870  -31.2510  -31.0390 O.2   181  LYS181     -0.2867
     69  CB        20.1450  -31.9550  -29.5500 C.3   181  LYS181      0.0271
     70  CG        18.8150  -31.4730  -29.0230 C.3   181  LYS181      0.0035
     71  CD        18.8330  -31.1080  -27.6130 C.3   181  LYS181      0.0206
     72  CE        17.5000  -30.4520  -27.2810 C.3   181  LYS181      0.1093
     73  NZ        16.2640  -31.1940  -27.7280 N.3   181  LYS181     -0.1314
@<TRIPOS>BOND
     1    68    67    2
     2    67    66    1
     3    69    66    1
     4    69    70    1
     5    65    66    1
     6    70    71    1
     7    73    72    1
     8    71    72    1
     9     4     3    2
    10    20    17    1
    11    17    16    1
    12    17    18    1
    13     1     2    1
    14    19    18    2
    15    11    10    2
    16    16    10   am
    17    12    13    1
    18    12     9    1
    19    15    13   am
    20    10     9    1
    21    18    21   am
    22     3     2    1
    23     3     8   am
    24     7     5    1
    25     2     5    1
    26    13    14    2
    27     9     8    1
    28     5     6    1
    29    21    22    1
    30    22    23    1
    31    23    25   am
    32    23    24    2
    33    33    32    1
    34    25    26    1
    35    30    31    1
    36    30    29    1
    37    31    32    1
    38    26    29    1
    39    26    27    1
    40    46    45    1
    41    45    47    1
    42    45    42    1
    43    27    34   am
    44    27    28    2
    45    34    35    1
    46    43    42    1
    47    43    44    2
    48    42    41    1
    49    41    36   am
    50    64    62   ar
    51    35    36    1
    52    35    38    1
    53    36    37    2
    54    38    39    1
    55    38    40    1
    56    62    61    1
    57    62    63   ar
    58    61    60    1
    59    55    53   ar
    60    54    53   ar
    61    58    57    1
    62    58    59    2
    63    57    60    1
    64    57    56    1
    65    53    52    1
    66    52    49    1
    67    49    48    1
    68    49    50    1
    69    50    51    2
