@<TRIPOS>MOLECULE
tmp/3qykA00.pdb
 179 176 0 0 0
SMALL
GASTEIGER

@<TRIPOS>ATOM
      1  N         11.1940   -0.1210    8.3430 N.3     1  HIS1       -0.1226
      2  CA         9.9540    0.3920    8.9200 C.3     1  HIS1        0.1752
      3  C          9.2520   -0.7220    9.6720 C.2     1  HIS1        0.2596
      4  O          9.4510   -1.9110    9.3970 O.2     1  HIS1       -0.2718
      5  CB         9.0680    0.9100    7.7710 C.3     1  HIS1        0.0759
      6  CG         7.7930    1.5720    8.2030 C.ar    1  HIS1        0.0818
      7  ND1        6.5770    0.9170    8.2180 N.ar    1  HIS1       -0.2268
      8  CD2        7.5400    2.8430    8.5940 C.ar    1  HIS1        0.1154
      9  CE1        5.6360    1.7500    8.6190 C.ar    1  HIS1        0.1986
     10  NE2        6.1940    2.9260    8.8560 N.ar    1  HIS1       -0.2212
     11  N          8.4440   -0.3370   10.6470 N.am    2  TRP2       -0.1976
     12  CA         7.7580   -1.3200   11.4590 C.3     2  TRP2        0.1640
     13  C          6.7180   -2.0840   10.6500 C.2     2  TRP2        0.2290
     14  O          6.1540   -1.5900    9.6650 O.2     2  TRP2       -0.2864
     15  CB         7.1240   -0.6470   12.6710 C.3     2  TRP2        0.0576
     16  CG         5.9600    0.2330   12.3310 C.ar    2  TRP2        0.0006
     17  CD1        5.9870    1.5830   12.0510 C.ar    2  TRP2        0.0946
     18  CD2        4.5910   -0.1650   12.2200 C.ar    2  TRP2        0.0152
     19  NE1        4.7390    2.0260   11.7780 N.ar    2  TRP2       -0.2442
     20  CE2        3.8500    0.9840   11.8800 C.ar    2  TRP2        0.0810
     21  CE3        3.9150   -1.3820   12.3990 C.ar    2  TRP2        0.0012
     22  CZ2        2.4690    0.9530   11.7070 C.ar    2  TRP2        0.0191
     23  CZ3        2.5380   -1.4110   12.2290 C.ar    2  TRP2        0.0001
     24  CH2        1.8330   -0.2500   11.8930 C.ar    2  TRP2        0.0015
     25  N         -3.3910    0.4470    3.5940 N.3    59  ASN59      -0.1240
     26  CA        -2.2500    1.2530    4.0090 C.3    59  ASN59       0.1653
     27  C         -0.9970    0.4550    4.2520 C.2    59  ASN59       0.2266
     28  O         -0.0160    0.9900    4.8020 O.2    59  ASN59      -0.2867
     29  CB        -2.5770    2.1030    5.2400 C.3    59  ASN59       0.1155
     30  CG        -2.8460    1.2760    6.4620 C.2    59  ASN59       0.2627
     31  OD1       -2.5860    0.0740    6.4990 O.2    59  ASN59      -0.2716
     32  ND2       -3.3840    1.9140    7.4950 N.am   59  ASN59      -0.0877
     33  N         -0.7390   -2.1330    6.1730 N.3    61  HIS61      -0.1241
     34  CA        -0.8120   -2.7980    7.4880 C.3    61  HIS61       0.1621
     35  C         -2.1900   -3.4130    7.7030 C.2    61  HIS61       0.2264
     36  O         -2.2980   -4.5250    8.2180 O.2    61  HIS61      -0.2867
     37  CB        -0.5000   -1.8100    8.6190 C.3    61  HIS61       0.0745
     38  CG         0.8700   -1.2190    8.5320 C.ar   61  HIS61       0.0817
     39  ND1        1.9990   -1.9230    8.8800 N.ar   61  HIS61      -0.2268
     40  CD2        1.2880    0.0080    8.1470 C.ar   61  HIS61       0.1154
     41  CE1        3.0620   -1.1550    8.7040 C.ar   61  HIS61       0.1986
     42  NE2        2.6580    0.0210    8.2680 N.ar   61  HIS61      -0.2212
     43  N         -8.4150    0.5860    5.9010 N.3    64  ASN64      -0.1240
     44  CA        -9.2210    1.5370    6.6650 C.3    64  ASN64       0.1653
     45  C        -10.4280    1.9540    5.8470 C.2    64  ASN64       0.2266
     46  O        -10.2830    2.3490    4.6840 O.2    64  ASN64      -0.2867
     47  CB        -8.4520    2.8100    6.9890 C.3    64  ASN64       0.1155
     48  CG        -7.2940    2.5730    7.8900 C.2    64  ASN64       0.2627
     49  OD1       -7.1760    1.5250    8.5050 O.2    64  ASN64      -0.2716
     50  ND2       -6.4160    3.5850    8.0060 N.am   64  ASN64      -0.0877
     51  N        -12.5510    6.3360   11.3240 N.3    89  GLN89      -0.1245
     52  CA       -12.2930    5.1960   10.4550 C.3    89  GLN89       0.1566
     53  C        -12.5350    3.9290   11.2330 C.2    89  GLN89       0.2260
     54  O        -12.5530    3.9420   12.4760 O.2    89  GLN89      -0.2867
     55  CB       -10.8520    5.1970    9.8960 C.3    89  GLN89       0.0367
     56  CG        -9.7410    5.3030   10.9530 C.3    89  GLN89       0.0905
     57  CD        -9.0370    3.9970   11.2610 C.2    89  GLN89       0.2608
     58  OE1       -9.6340    2.9250   11.2440 O.2    89  GLN89      -0.2717
     59  NE2       -7.7700    4.0870   11.5770 N.am   89  GLN89      -0.0878
     60  N        -11.1570   -0.3450   10.9940 N.3    91  HIS91      -0.1241
     61  CA       -10.2770   -1.3210   10.3440 C.3    91  HIS91       0.1621
     62  C        -10.3250   -2.5640   11.1840 C.2    91  HIS91       0.2264
     63  O        -10.9380   -2.5840   12.2460 O.2    91  HIS91      -0.2867
     64  CB        -8.8220   -0.8140   10.3060 C.3    91  HIS91       0.0745
     65  CG        -8.2900   -0.5450   11.6730 C.ar   91  HIS91       0.0817
     66  ND1       -8.5070    0.6550   12.3160 N.ar   91  HIS91      -0.2268
     67  CD2       -7.6260   -1.3360   12.5470 C.ar   91  HIS91       0.1154
     68  CE1       -7.9840    0.5930   13.5290 C.ar   91  HIS91       0.1986
     69  NE2       -7.4460   -0.6120   13.6940 N.ar   91  HIS91      -0.2212
     70  N         -8.0020   -6.2850   12.5180 N.3    93  HIS93      -0.1241
     71  CA        -6.7980   -7.0920   12.6770 C.3    93  HIS93       0.1621
     72  C         -7.2370   -8.5410   12.5400 C.2    93  HIS93       0.2264
     73  O         -8.3020   -8.9060   13.0590 O.2    93  HIS93      -0.2867
     74  CB        -6.1120   -6.8430   14.0310 C.3    93  HIS93       0.0745
     75  CG        -5.8340   -5.4050   14.3140 C.ar   93  HIS93       0.0817
     76  ND1       -4.5940   -4.8300   14.1290 N.ar   93  HIS93      -0.2268
     77  CD2       -6.6580   -4.4090   14.7140 C.ar   93  HIS93       0.1154
     78  CE1       -4.6570   -3.5480   14.4660 C.ar   93  HIS93       0.1986
     79  NE2       -5.9000   -3.2600   14.7950 N.ar   93  HIS93      -0.2212
     80  N        -11.9270   -2.5510   14.8910 N.3   116  HIS116     -0.1241
     81  CA       -11.7040   -1.3330   15.6710 C.3   116  HIS116      0.1621
     82  C        -12.3890   -0.1690   14.9900 C.2   116  HIS116      0.2264
     83  O        -12.0310    0.2050   13.8690 O.2   116  HIS116     -0.2867
     84  CB       -10.2030   -1.0540   15.7530 C.3   116  HIS116      0.0745
     85  CG        -9.5000   -2.0250   16.6530 C.ar  116  HIS116      0.0817
     86  ND1       -8.1320   -2.2180   16.6560 N.ar  116  HIS116     -0.2268
     87  CD2      -10.0070   -2.8590   17.5940 C.ar  116  HIS116      0.1154
     88  CE1       -7.8300   -3.1340   17.5530 C.ar  116  HIS116      0.1986
     89  NE2       -8.9450   -3.5330   18.1460 N.ar  116  HIS116     -0.2212
     90  N        -12.7170    3.6110   15.3170 N.3   118  VAL118     -0.1245
     91  CA       -11.8660    4.6390   15.9500 C.3   118  VAL118      0.1561
     92  C        -12.5510    5.9680   15.9940 C.2   118  VAL118      0.2260
     93  O        -13.0080    6.4370   14.9600 O.2   118  VAL118     -0.2867
     94  CB       -10.5410    4.7770   15.1650 C.3   118  VAL118      0.0252
     95  CG1       -9.6290    5.8030   15.8250 C.3   118  VAL118      0.0019
     96  CG2       -9.8030    3.4140   15.0280 C.3   118  VAL118      0.0019
     97  N         -8.1590   15.0750   14.8780 N.3   127  PHE127     -0.1241
     98  CA        -7.6100   13.7870   15.2780 C.3   127  PHE127      0.1605
     99  C         -6.1530   13.9030   15.7040 C.2   127  PHE127      0.2264
    100  O         -5.7330   13.2740   16.6800 O.2   127  PHE127     -0.2867
    101  CB        -7.7470   12.7820   14.1280 C.3   127  PHE127      0.0534
    102  CG        -7.1540   11.4170   14.4320 C.ar  127  PHE127     -0.0203
    103  CD1       -7.8930   10.4460   15.1090 C.ar  127  PHE127     -0.0042
    104  CD2       -5.8500   11.1340   14.0750 C.ar  127  PHE127     -0.0042
    105  CE1       -7.3430    9.2080   15.4090 C.ar  127  PHE127     -0.0003
    106  CE2       -5.2870    9.9060   14.3620 C.ar  127  PHE127     -0.0003
    107  CZ        -6.0390    8.9300   15.0390 C.ar  127  PHE127     -0.0000
    108  N         -4.8460   12.6110   19.5410 N.3   131  VAL131     -0.1245
    109  CA        -3.9400   11.5080   19.8940 C.3   131  VAL131      0.1561
    110  C         -2.8370   11.9210   20.8700 C.2   131  VAL131      0.2260
    111  O         -2.1550   11.0500   21.4260 O.2   131  VAL131     -0.2867
    112  CB        -3.3020   10.7840   18.6660 C.3   131  VAL131      0.0252
    113  CG1       -4.3960   10.2290   17.7920 C.3   131  VAL131      0.0019
    114  CG2       -2.3670   11.6790   17.8650 C.3   131  VAL131      0.0019
    115  N         -8.9520    9.5650   22.3280 N.3   137  LEU137     -0.1245
    116  CA        -9.6390    8.6250   21.4440 C.3   137  LEU137      0.1561
    117  C        -10.5100    7.6900   22.2260 C.2   137  LEU137      0.2260
    118  O        -10.2500    7.4150   23.3960 O.2   137  LEU137     -0.2867
    119  CB        -8.6300    7.7730   20.6740 C.3   137  LEU137      0.0270
    120  CG        -7.7290    8.3890   19.6160 C.3   137  LEU137      0.0019
    121  CD1       -7.1050    7.3120   18.7100 C.3   137  LEU137      0.0001
    122  CD2       -8.3150    9.5260   18.8100 C.3   137  LEU137      0.0001
    123  N        -11.8570    3.8220   21.1950 N.3   139  VAL139     -0.1245
    124  CA       -11.8910    2.7760   20.1790 C.3   139  VAL139      0.1561
    125  C        -12.8600    1.7160   20.6550 C.2   139  VAL139      0.2260
    126  O        -12.7220    1.1960   21.7660 O.2   139  VAL139     -0.2867
    127  CB       -10.5060    2.1770   19.8360 C.3   139  VAL139      0.0252
    128  CG1      -10.6700    1.1470   18.7070 C.3   139  VAL139      0.0019
    129  CG2       -9.5810    3.2810   19.4090 C.3   139  VAL139      0.0019
    130  N         -2.9590    3.2040   21.3840 N.3   194  LEU194     -0.1231
    131  CA        -2.9710    2.6980   20.0150 C.3   194  LEU194      0.1693
    132  C         -2.2290    1.3520   20.0290 C.2   194  LEU194      0.2593
    133  O         -1.2220    1.1810   20.7310 O.2   194  LEU194     -0.2718
    134  CB        -2.1860    3.6320   19.0950 C.3   194  LEU194      0.0284
    135  CG        -2.6630    5.0840   19.0950 C.3   194  LEU194      0.0019
    136  CD1       -1.8140    5.9140   18.1330 C.3   194  LEU194      0.0001
    137  CD2       -4.1400    5.2030   18.7610 C.3   194  LEU194      0.0001
    138  N         -2.6730    0.3990   19.2070 N.am  195  THR195     -0.1939
    139  CA        -2.0150   -0.9000   19.1460 C.3   195  THR195      0.2028
    140  C         -1.0410   -1.0090   17.9960 C.2   195  THR195      0.2643
    141  O         -0.4470   -2.0720   17.8310 O.2   195  THR195     -0.2714
    142  CB        -3.0270   -2.0360   18.9920 C.3   195  THR195      0.1808
    143  OG1       -3.6640   -1.9450   17.7080 O.3   195  THR195     -0.2208
    144  CG2       -4.0760   -1.9920   20.1240 C.3   195  THR195      0.0379
    145  N         -0.8550    0.0690   17.2250 N.am  196  THR196     -0.1937
    146  CA         0.2590    0.1640   16.2840 C.3   196  THR196      0.2013
    147  C          1.0520    1.4070   16.5940 C.2   196  THR196      0.2484
    148  O          0.5580    2.3240   17.2500 O.2   196  THR196     -0.2729
    149  CB        -0.1830    0.2970   14.8250 C.3   196  THR196      0.1807
    150  OG1       -0.8590    1.5420   14.6250 O.3   196  THR196     -0.2208
    151  CG2       -1.1240   -0.8420   14.4510 C.3   196  THR196      0.0379
    152  N          2.3080    1.4560   16.1340 N.am  197  PRO197     -0.2715
    153  CA         3.0190    2.7250   16.2030 C.3   197  PRO197      0.1521
    154  C          2.1160    3.8430   15.6700 C.2   197  PRO197      0.2440
    155  O          1.3940    3.6420   14.6740 O.2   197  PRO197     -0.2731
    156  CB         4.2530    2.4490   15.3160 C.3   197  PRO197      0.0310
    157  CG         4.5190    1.0020   15.5540 C.3   197  PRO197      0.0237
    158  CD         3.1340    0.3920   15.5230 C.3   197  PRO197      0.0939
    159  N          2.1370    5.0170   16.3170 N.am  198  PRO198     -0.2727
    160  CA         3.0540    5.4360   17.3790 C.3   198  PRO198      0.1402
    161  C          2.7500    4.9880   18.8290 C.2   198  PRO198      0.2269
    162  O          3.4280    5.4520   19.7400 O.2   198  PRO198     -0.2865
    163  CB         3.0060    6.9670   17.2700 C.3   198  PRO198      0.0296
    164  CG         1.6580    7.2750   16.7910 C.3   198  PRO198      0.0237
    165  CD         1.3090    6.1410   15.8380 C.3   198  PRO198      0.0939
    166  N        -10.4480    2.3310   25.7720 N.3   205  TRP205     -0.1241
    167  CA       -10.8900    1.1310   25.0720 C.3   205  TRP205      0.1605
    168  C        -12.2660    0.7000   25.5590 C.2   205  TRP205      0.2264
    169  O        -12.5150    0.6350   26.7610 O.2   205  TRP205     -0.2867
    170  CB        -9.8820   -0.0250   25.2700 C.3   205  TRP205      0.0550
    171  CG        -8.7720    0.0960   24.2720 C.ar  205  TRP205      0.0003
    172  CD1       -7.5500    0.6970   24.4540 C.ar  205  TRP205      0.0946
    173  CD2       -8.8280   -0.3030   22.9050 C.ar  205  TRP205      0.0152
    174  NE1       -6.8510    0.6940   23.2690 N.ar  205  TRP205     -0.2442
    175  CE2       -7.6040    0.0640   22.3060 C.ar  205  TRP205      0.0810
    176  CE3       -9.8050   -0.9490   22.1240 C.ar  205  TRP205      0.0012
    177  CZ2       -7.3360   -0.1740   20.9490 C.ar  205  TRP205      0.0191
    178  CZ3       -9.5420   -1.1980   20.8070 C.ar  205  TRP205      0.0001
    179  CH2       -8.3200   -0.8110   20.2220 C.ar  205  TRP205      0.0015
@<TRIPOS>BOND
     1    25    26    1
     2    26    27    1
     3    26    29    1
     4    27    28    2
     5    46    45    2
     6    29    30    1
     7    45    44    1
     8    43    44    1
     9    33    34    1
    10    30    31    2
    11    30    32   am
    12    44    47    1
    13    47    48    1
    14    34    35    1
    15    34    37    1
    16    35    36    2
    17     5     6    1
    18     5     2    1
    19    48    50   am
    20    48    49    2
    21    40    42   ar
    22    40    38   ar
    23     6     7   ar
    24     6     8   ar
    25     7     9   ar
    26    42    41   ar
    27     1     2    1
    28    38    37    1
    29    38    39   ar
    30     8    10   ar
    31     9    10   ar
    32    41    39   ar
    33     2     3    1
    34     4     3    2
    35    14    13    2
    36     3    11   am
    37    55    52    1
    38    55    56    1
    39    64    61    1
    40    64    65    1
    41    61    60    1
    42    61    62    1
    43    52    53    1
    44    52    51    1
    45    11    12    1
    46    13    12    1
    47    56    57    1
    48    62    63    2
    49    53    54    2
    50    58    57    2
    51    57    59   am
    52    12    15    1
    53    65    66   ar
    54    65    67   ar
    55    22    20   ar
    56    22    24   ar
    57    19    20   ar
    58    19    17   ar
    59    20    18   ar
    60    24    23   ar
    61    17    16   ar
    62    18    16   ar
    63    18    21   ar
    64    23    21   ar
    65    66    68   ar
    66    16    15    1
    67    70    71    1
    68    72    71    1
    69    72    73    2
    70    67    69   ar
    71    71    74    1
    72    68    69   ar
    73    83    82    2
    74    74    75    1
    75   104   106   ar
    76   104   102   ar
    77   101   102    1
    78   101    98    1
    79    76    75   ar
    80    76    78   ar
    81    75    77   ar
    82   106   107   ar
    83   102   103   ar
    84   151   149    1
    85    78    79   ar
    86   150   149    1
    87   155   154    2
    88    77    79   ar
    89   149   146    1
    90    97    98    1
    91    80    81    1
    92    93    92    2
    93    82    81    1
    94    96    94    1
    95   107   105   ar
    96   103   105   ar
    97    94    95    1
    98    94    91    1
    99    98    99    1
   100   156   157    1
   101   156   153    1
   102    90    91    1
   103   158   157    1
   104   158   152    1
   105   154   153    1
   106   154   159   am
   107    81    84    1
   108    99   100    2
   109    84    85    1
   110   165   159    1
   111   165   164    1
   112    91    92    1
   113   152   153    1
   114   152   147   am
   115   146   147    1
   116   146   145    1
   117   159   160    1
   118   147   148    2
   119    85    86   ar
   120    85    87   ar
   121    86    88   ar
   122   164   163    1
   123   145   140   am
   124   163   160    1
   125   160   161    1
   126    88    89   ar
   127    87    89   ar
   128   143   142    1
   129   113   112    1
   130   141   140    2
   131   114   112    1
   132   140   139    1
   133   136   135    1
   134   112   109    1
   135   128   127    1
   136   121   120    1
   137   137   135    1
   138   122   120    1
   139   161   162    2
   140   142   139    1
   141   142   144    1
   142   134   135    1
   143   134   131    1
   144   139   138    1
   145   138   132   am
   146   129   127    1
   147   108   109    1
   148   120   119    1
   149   127   124    1
   150   109   110    1
   151   131   132    1
   152   131   130    1
   153   132   133    2
   154   124   125    1
   155   124   123    1
   156   179   178   ar
   157   179   177   ar
   158   125   126    2
   159   119   116    1
   160   178   176   ar
   161   110   111    2
   162   177   175   ar
   163   116   117    1
   164   116   115    1
   165   176   173   ar
   166   117   118    2
   167   175   173   ar
   168   175   174   ar
   169   173   171   ar
   170   174   172   ar
   171   171   172   ar
   172   171   170    1
   173   167   170    1
   174   167   168    1
   175   167   166    1
   176   168   169    2
