@<TRIPOS>MOLECULE
tmp/3qylA00.pdb
 117 111 0 0 0
SMALL
GASTEIGER

@<TRIPOS>ATOM
      1  N          9.6370   -3.8170  -13.4430 N.3     5  ILE5       -0.1231
      2  CA         8.5550   -4.7620  -13.1970 C.3     5  ILE5        0.1692
      3  C          7.2800   -4.1430  -13.7680 C.2     5  ILE5        0.2592
      4  O          6.9530   -2.9880  -13.4620 O.2     5  ILE5       -0.2718
      5  CB         8.4340   -5.2020  -11.7120 C.3     5  ILE5        0.0266
      6  CG1        7.3510   -6.2690  -11.5220 C.3     5  ILE5        0.0019
      7  CG2        8.2380   -4.0110  -10.7480 C.3     5  ILE5        0.0020
      8  CD1        7.5310   -7.0910  -10.1480 C.3     5  ILE5        0.0001
      9  N          6.5560   -4.9170  -14.5910 N.am    6  ALA6       -0.1966
     10  CA         5.3270   -4.4320  -15.2470 C.3     6  ALA6        0.1728
     11  C          4.3650   -5.5670  -15.5740 C.2     6  ALA6        0.2616
     12  O          4.8240   -6.6910  -15.7690 O.2     6  ALA6       -0.2715
     13  CB         5.7100   -3.7350  -16.5440 C.3     6  ALA6        0.0334
     14  N          3.0440   -5.2690  -15.6320 N.am    7  ALA7       -0.1977
     15  CA         1.9680   -6.1980  -16.0540 C.3     7  ALA7        0.1597
     16  C          1.4900   -5.7360  -17.4340 C.2     7  ALA7        0.2287
     17  O          1.1120   -4.5840  -17.6010 O.2     7  ALA7       -0.2864
     18  CB         0.8220   -6.2030  -15.0560 C.3     7  ALA7        0.0319
     19  N         -5.1920    0.3160  -14.1350 N.3    20  MET20      -0.1245
     20  CA        -4.7230   -0.9290  -14.7430 C.3    20  MET20       0.1570
     21  C         -6.0010   -1.7520  -14.7620 C.2    20  MET20       0.2261
     22  O         -6.3780   -2.3320  -13.7330 O.2    20  MET20      -0.2867
     23  CB        -3.6100   -1.5650  -13.8950 C.3    20  MET20       0.0387
     24  CG        -2.3660   -0.7070  -13.8410 C.3    20  MET20       0.0595
     25  SD        -1.2280   -1.1170  -12.4900 S.3    20  MET20      -0.1393
     26  CE        -2.3200   -1.1780  -11.1280 C.3    20  MET20       0.0692
     27  N         -1.2520  -11.2540   -9.6690 N.3    27  ASP27      -0.1225
     28  CA        -0.2270  -10.2890  -10.0830 C.3    27  ASP27       0.1805
     29  C          0.1580   -9.4050   -8.8710 C.2    27  ASP27       0.2597
     30  O          1.3250   -9.0730   -8.7210 O.2    27  ASP27      -0.2718
     31  CB        -0.6620   -9.4170  -11.2620 C.3    27  ASP27       0.1424
     32  CG         0.3800   -8.3420  -11.5580 C.2    27  ASP27       0.3668
     33  OD1        1.4700   -8.6960  -12.0810 O.co2  27  ASP27      -0.2456
     34  OD2        0.1660   -7.1810  -11.1400 O.co2  27  ASP27      -0.2456
     35  N         -0.8200   -8.9670   -8.0530 N.am   28  LEU28      -0.1979
     36  CA        -0.4880   -8.1310   -6.8820 C.3    28  LEU28       0.1596
     37  C          0.4470   -8.9000   -5.9150 C.2    28  LEU28       0.2287
     38  O          1.3770   -8.3180   -5.3460 O.2    28  LEU28      -0.2864
     39  CB        -1.7790   -7.6560   -6.1450 C.3    28  LEU28       0.0297
     40  CG        -2.8140   -6.8630   -6.9670 C.3    28  LEU28       0.0022
     41  CD1       -4.1520   -6.7520   -6.2110 C.3    28  LEU28       0.0001
     42  CD2       -2.3040   -5.4600   -7.3310 C.3    28  LEU28       0.0001
     43  N          2.5570  -11.3030   -6.7900 N.3    30  TRP30      -0.1227
     44  CA         3.8500  -11.4300   -7.4740 C.3    30  TRP30       0.1737
     45  C          4.6040  -10.1190   -7.3490 C.2    30  TRP30       0.2595
     46  O          5.7920  -10.1140   -7.0560 O.2    30  TRP30      -0.2718
     47  CB         3.6110  -11.8160   -8.9510 C.3    30  TRP30       0.0564
     48  CG         4.7440  -11.5280   -9.9030 C.ar   30  TRP30       0.0003
     49  CD1        4.8760  -10.4260  -10.6880 C.ar   30  TRP30       0.0946
     50  CD2        5.8260  -12.4060  -10.2610 C.ar   30  TRP30       0.0152
     51  NE1        5.9380  -10.5770  -11.5480 N.ar   30  TRP30      -0.2442
     52  CE2        6.5720  -11.7590  -11.2730 C.ar   30  TRP30       0.0810
     53  CE3        6.2320  -13.6810   -9.8330 C.ar   30  TRP30       0.0012
     54  CZ2        7.6860  -12.3470  -11.8810 C.ar   30  TRP30       0.0191
     55  CZ3        7.3430  -14.2590  -10.4290 C.ar   30  TRP30       0.0001
     56  CH2        8.0590  -13.5920  -11.4390 C.ar   30  TRP30       0.0015
     57  N          3.8970   -8.9980   -7.5890 N.am   31  PHE31      -0.1976
     58  CA         4.4560   -7.6570   -7.4840 C.3    31  PHE31       0.1639
     59  C          4.9940   -7.4400   -6.0720 C.2    31  PHE31       0.2290
     60  O          6.1120   -6.9540   -5.9050 O.2    31  PHE31      -0.2864
     61  CB         3.3870   -6.5900   -7.8130 C.3    31  PHE31       0.0560
     62  CG         3.8810   -5.1820   -7.5700 C.ar   31  PHE31      -0.0200
     63  CD1        4.8320   -4.6040   -8.4130 C.ar   31  PHE31      -0.0042
     64  CD2        3.4480   -4.4550   -6.4600 C.ar   31  PHE31      -0.0042
     65  CE1        5.3160   -3.3130   -8.1670 C.ar   31  PHE31      -0.0003
     66  CE2        3.9460   -3.1660   -6.2070 C.ar   31  PHE31      -0.0003
     67  CZ         4.8650   -2.6010   -7.0690 C.ar   31  PHE31      -0.0000
     68  N          1.9610    7.3620  -11.9500 N.3    46  THR46      -0.1218
     69  CA         1.8520    6.0660  -11.2810 C.3    46  THR46       0.1862
     70  C          1.6240    6.3200   -9.7760 C.2    46  THR46       0.2287
     71  O          0.7400    5.7090   -9.2030 O.2    46  THR46      -0.2866
     72  CB         3.0970    5.2460  -11.5690 C.3    46  THR46       0.1770
     73  OG1        3.1010    4.9730  -12.9700 O.3    46  THR46      -0.2211
     74  CG2        3.1380    3.9270  -10.7780 C.3    46  THR46       0.0375
     75  N         -1.5440    4.7790   -7.9430 N.3    50  ILE50      -0.1245
     76  CA        -1.5060    3.8990   -6.7520 C.3    50  ILE50       0.1561
     77  C         -2.2610    4.5420   -5.5770 C.2    50  ILE50       0.2260
     78  O         -2.9700    3.8540   -4.8390 O.2    50  ILE50      -0.2867
     79  CB        -0.0540    3.4750   -6.4060 C.3    50  ILE50       0.0252
     80  CG1        0.5550    2.6390   -7.5580 C.3    50  ILE50       0.0019
     81  CG2       -0.0040    2.6700   -5.0890 C.3    50  ILE50       0.0019
     82  CD1        2.1170    2.4170   -7.4480 C.3    50  ILE50       0.0001
     83  N          3.6300    2.6250   -0.9250 N.3    54  LEU54      -0.1245
     84  CA         3.6890    1.1750   -0.8870 C.3    54  LEU54       0.1561
     85  C          4.4680    0.8320    0.3940 C.2    54  LEU54       0.2260
     86  O          5.6360    1.1960    0.5030 O.2    54  LEU54      -0.2867
     87  CB         4.4270    0.6360   -2.1350 C.3    54  LEU54       0.0270
     88  CG         3.6310    0.6980   -3.4520 C.3    54  LEU54       0.0019
     89  CD1        4.5340    0.3350   -4.6370 C.3    54  LEU54       0.0001
     90  CD2        2.4170   -0.2530   -3.4280 C.3    54  LEU54       0.0001
     91  N          8.8440    0.6650  -11.1630 N.3    94  ILE94      -0.1245
     92  CA         7.4640    0.1880  -11.1400 C.3    94  ILE94       0.1561
     93  C          6.4470    0.8980  -12.0570 C.2    94  ILE94       0.2260
     94  O          5.2570    0.5640  -12.0040 O.2    94  ILE94      -0.2867
     95  CB         6.9890    0.0110   -9.6480 C.3    94  ILE94       0.0252
     96  CG1        6.7710    1.3870   -8.9500 C.3    94  ILE94       0.0019
     97  CG2        8.0070   -0.8480   -8.8410 C.3    94  ILE94       0.0019
     98  CD1        5.8420    1.2760   -7.7150 C.3    94  ILE94       0.0001
     99  N          9.2890    3.7970  -17.6320 N.3   100  TYR100     -0.1241
    100  CA         9.8850    2.5580  -18.1710 C.3   100  TYR100      0.1605
    101  C         10.8120    2.8500  -19.3550 C.2   100  TYR100      0.2264
    102  O         11.9110    2.3000  -19.4230 O.2   100  TYR100     -0.2867
    103  CB         8.8180    1.5970  -18.6360 C.3   100  TYR100      0.0534
    104  CG         8.0110    0.9330  -17.5530 C.ar  100  TYR100     -0.0201
    105  CD1        8.6260    0.3890  -16.4220 C.ar  100  TYR100     -0.0009
    106  CD2        6.6340    0.7890  -17.6820 C.ar  100  TYR100     -0.0009
    107  CE1        7.8830   -0.2840  -15.4550 C.ar  100  TYR100      0.0417
    108  CE2        5.8780    0.1540  -16.7040 C.ar  100  TYR100      0.0417
    109  CZ         6.5050   -0.4100  -15.6110 C.ar  100  TYR100      0.1957
    110  OH         5.7130   -1.0480  -14.6900 O.3   100  TYR100     -0.2866
    111  N          4.5020   -9.6800  -16.2810 N.3   113  THR113     -0.1218
    112  CA         3.3010  -10.5000  -16.1560 C.3   113  THR113      0.1862
    113  C          2.6050  -10.2980  -17.4970 C.2   113  THR113      0.2287
    114  O          2.1410   -9.1860  -17.7690 O.2   113  THR113     -0.2866
    115  CB         2.3970  -10.0380  -15.0160 C.3   113  THR113      0.1770
    116  OG1        3.1400   -9.9790  -13.7880 O.3   113  THR113     -0.2211
    117  CG2        1.1670  -10.9470  -14.8440 C.3   113  THR113      0.0375
@<TRIPOS>BOND
     1   102   101    2
     2   101   100    1
     3   103   100    1
     4   103   104    1
     5   100    99    1
     6   114   113    2
     7   106   104   ar
     8   106   108   ar
     9    17    16    2
    10   104   105   ar
    11   113   112    1
    12    16    15    1
    13   108   109   ar
    14    13    10    1
    15   105   107   ar
    16   111   112    1
    17   112   115    1
    18    15    14    1
    19    15    18    1
    20    12    11    2
    21    14    11   am
    22   109   107   ar
    23   109   110    1
    24    11    10    1
    25    10     9    1
    26   115   117    1
    27   115   116    1
    28    21    20    1
    29    21    22    2
    30    20    19    1
    31    20    23    1
    32     9     3   am
    33    23    24    1
    34    24    25    1
    35     3     4    2
    36     3     2    1
    37     1     2    1
    38     2     5    1
    39    73    72    1
    40    25    26    1
    41    33    32   ar
    42    93    94    2
    43    93    92    1
    44    68    69    1
    45    54    56   ar
    46    54    52   ar
    47     5     6    1
    48     5     7    1
    49    72    69    1
    50    72    74    1
    51    32    31    1
    52    32    34   ar
    53    51    52   ar
    54    51    49   ar
    55     6     8    1
    56    56    55   ar
    57    69    70    1
    58    52    50   ar
    59    31    28    1
    60    91    92    1
    61    92    95    1
    62    49    48   ar
    63    55    53   ar
    64    50    48   ar
    65    50    53   ar
    66    28    27    1
    67    28    29    1
    68    48    47    1
    69    70    71    2
    70    95    96    1
    71    95    97    1
    72    47    44    1
    73    96    98    1
    74    29    30    2
    75    29    35   am
    76    63    65   ar
    77    63    62   ar
    78    65    67   ar
    79    35    36    1
    80    75    76    1
    81    61    62    1
    82    61    58    1
    83    57    58    1
    84    57    45   am
    85    62    64   ar
    86    80    82    1
    87    80    79    1
    88    58    59    1
    89    44    45    1
    90    44    43    1
    91    45    46    2
    92    42    40    1
    93    67    66   ar
    94    40    41    1
    95    40    39    1
    96    36    39    1
    97    36    37    1
    98    76    79    1
    99    76    77    1
   100    64    66   ar
   101    79    81    1
   102    59    60    2
   103    37    38    2
   104    77    78    2
   105    89    88    1
   106    88    90    1
   107    88    87    1
   108    87    84    1
   109    83    84    1
   110    84    85    1
   111    85    86    2
