@<TRIPOS>MOLECULE
tmp/3qyqA00.pdb
 83 77 0 0 0
SMALL
GASTEIGER

@<TRIPOS>ATOM
      1  N         19.2210   75.2650   38.7840 N.3    23  ALA23      -0.1231
      2  CA        18.7940   75.5580   40.1380 C.3    23  ALA23       0.1694
      3  C         19.4770   76.8110   40.6590 C.2    23  ALA23       0.2591
      4  O         20.6810   76.9600   40.5110 O.2    23  ALA23      -0.2718
      5  CB        19.1360   74.3770   41.0380 C.3    23  ALA23       0.0304
      6  N         18.6910   77.7330   41.2080 N.am   24  ALA24      -0.1980
      7  CA        19.2070   78.9650   41.8160 C.3    24  ALA24       0.1597
      8  C         18.3870   79.0710   43.1050 C.2    24  ALA24       0.2287
      9  O         17.5720   79.9680   43.2550 O.2    24  ALA24      -0.2864
     10  CB        18.9750   80.1620   40.9170 C.3    24  ALA24       0.0319
     11  N         19.9370   78.6430   46.4960 N.3    26  THR26      -0.1218
     12  CA        20.7430   78.8100   47.7070 C.3    26  THR26       0.1862
     13  C         20.2060   79.9070   48.6270 C.2    26  THR26       0.2287
     14  O         19.5520   80.8450   48.1720 O.2    26  THR26      -0.2866
     15  CB        22.2060   79.1160   47.3630 C.3    26  THR26       0.1770
     16  OG1       22.3000   80.4130   46.7650 O.3    26  THR26      -0.2211
     17  CG2       22.7710   78.0590   46.4170 C.3    26  THR26       0.0375
     18  N         21.7140   82.2380   49.9440 N.3    28  GLY28      -0.1210
     19  CA        22.3070   83.5250   49.5910 C.3    28  GLY28       0.1956
     20  C         21.8630   84.2140   48.3160 C.2    28  GLY28       0.2612
     21  O         22.4260   85.2550   47.9570 O.2    28  GLY28      -0.2717
     22  N         20.8520   83.6790   47.6320 N.am   29  GLU29      -0.1965
     23  CA        20.4070   84.2970   46.3880 C.3    29  GLU29       0.1733
     24  C         19.8640   85.7160   46.5900 C.2    29  GLU29       0.2617
     25  O         19.2260   86.0300   47.5970 O.2    29  GLU29      -0.2715
     26  CB        19.3200   83.4570   45.6990 C.3    29  GLU29       0.0429
     27  CG        19.7010   82.0180   45.3430 C.3    29  GLU29       0.1163
     28  CD        20.7520   81.8680   44.2470 C.2    29  GLU29       0.3649
     29  OE1       21.2650   82.8750   43.7170 O.co2  29  GLU29      -0.2457
     30  OE2       21.0400   80.7030   43.8940 O.co2  29  GLU29      -0.2457
     31  N         20.1300   86.5550   45.6000 N.am   30  THR30      -0.1951
     32  CA        19.6760   87.9360   45.5700 C.3    30  THR30       0.1897
     33  C         19.1150   88.1250   44.1750 C.2    30  THR30       0.2313
     34  O         19.3020   87.2560   43.3220 O.2    30  THR30      -0.2863
     35  CB        20.8350   88.9020   45.7580 C.3    30  THR30       0.1794
     36  OG1       21.7970   88.6880   44.7130 O.3    30  THR30      -0.2208
     37  CG2       21.4930   88.6750   47.1050 C.3    30  THR30       0.0378
     38  N         22.0550   87.8630   41.7250 N.3    33  SER33      -0.1217
     39  CA        22.6140   86.5380   41.4700 C.3    33  SER33       0.1889
     40  C         21.6470   85.7240   40.6160 C.2    33  SER33       0.2288
     41  O         22.0730   84.9980   39.7230 O.2    33  SER33      -0.2866
     42  CB        22.9390   85.8000   42.7660 C.3    33  SER33       0.2089
     43  OG        21.7730   85.5680   43.5270 O.3    33  SER33      -0.2183
     44  N         21.7260   86.7800   36.9850 N.3    36  ALA36      -0.1231
     45  CA        22.8980   86.2610   36.2740 C.3    36  ALA36       0.1694
     46  C         22.6320   84.8530   35.7280 C.2    36  ALA36       0.2591
     47  O         23.0010   84.5470   34.5940 O.2    36  ALA36      -0.2718
     48  CB        24.1200   86.2530   37.1820 C.3    36  ALA36       0.0304
     49  N         22.0020   84.0160   36.5450 N.am   37  VAL37      -0.1980
     50  CA        21.6770   82.6420   36.1590 C.3    37  VAL37       0.1595
     51  C         20.6520   82.6320   35.0350 C.2    37  VAL37       0.2287
     52  O         20.8100   81.9040   34.0530 O.2    37  VAL37      -0.2864
     53  CB        21.1470   81.8360   37.3570 C.3    37  VAL37       0.0276
     54  CG1       20.6580   80.4520   36.9130 C.3    37  VAL37       0.0022
     55  CG2       22.2130   81.7250   38.4260 C.3    37  VAL37       0.0022
     56  N         24.6570   76.0690   38.2540 N.3   256  PHE256     -0.1227
     57  CA        25.1130   77.1140   37.3610 C.3   256  PHE256      0.1736
     58  C         26.4580   76.7760   36.7230 C.2   256  PHE256      0.2595
     59  O         26.6480   77.0170   35.5380 O.2   256  PHE256     -0.2718
     60  CB        25.1120   78.4270   38.1460 C.3   256  PHE256      0.0547
     61  CG        25.4140   79.6460   37.3300 C.ar  256  PHE256     -0.0202
     62  CD1       24.8070   79.8450   36.1070 C.ar  256  PHE256     -0.0042
     63  CD2       26.1350   80.6880   37.8800 C.ar  256  PHE256     -0.0042
     64  CE1       25.0420   80.9900   35.3850 C.ar  256  PHE256     -0.0003
     65  CE2       26.3480   81.8460   37.1710 C.ar  256  PHE256     -0.0003
     66  CZ        25.7940   81.9960   35.9210 C.ar  256  PHE256     -0.0000
     67  N         27.3940   76.2040   37.4810 N.am  257  ASN257     -0.1974
     68  CA        28.6880   75.8460   36.8730 C.3   257  ASN257      0.1688
     69  C         28.5210   74.7680   35.7980 C.2   257  ASN257      0.2292
     70  O         29.1860   74.8090   34.7580 O.2   257  ASN257     -0.2864
     71  CB        29.7320   75.4550   37.9240 C.3   257  ASN257      0.1181
     72  CG        30.2630   76.6640   38.6900 C.2   257  ASN257      0.2629
     73  OD1       30.3120   77.7780   38.1570 O.2   257  ASN257     -0.2716
     74  ND2       30.6950   76.4410   39.9240 N.am  257  ASN257     -0.0877
     75  N         27.2040   76.3910   32.6520 N.3   260  LYS260     -0.1245
     76  CA        28.2820   77.0860   31.9410 C.3   260  LYS260      0.1561
     77  C         29.2010   76.0960   31.2090 C.2   260  LYS260      0.2260
     78  O         29.6440   76.3630   30.0970 O.2   260  LYS260     -0.2867
     79  CB        29.0280   78.0370   32.8900 C.3   260  LYS260      0.0271
     80  CG        28.1270   79.1960   33.3230 C.3   260  LYS260      0.0035
     81  CD        28.7930   80.2430   34.2170 C.3   260  LYS260      0.0206
     82  CE        29.2100   79.6940   35.5650 C.3   260  LYS260      0.1093
     83  NZ        29.7530   80.7790   36.4500 N.3   260  LYS260     -0.1314
@<TRIPOS>BOND
     1    78    77    2
     2    77    76    1
     3    76    75    1
     4    76    79    1
     5    79    80    1
     6    80    81    1
     7    52    51    2
     8    81    82    1
     9    47    46    2
    10    70    69    2
    11    51    50    1
    12    64    66   ar
    13    64    62   ar
    14    59    58    2
    15    82    83    1
    16    46    45    1
    17    46    49   am
    18    69    68    1
    19    66    65   ar
    20    62    61   ar
    21    50    49    1
    22    50    53    1
    23    45    44    1
    24    45    48    1
    25    58    57    1
    26    58    67   am
    27    68    67    1
    28    68    71    1
    29    54    53    1
    30    65    63   ar
    31    61    63   ar
    32    61    60    1
    33    53    55    1
    34    57    60    1
    35    57    56    1
    36    71    72    1
    37    73    72    2
    38    72    74   am
    39     1     2    1
    40    41    40    2
    41     2     3    1
    42     2     5    1
    43     4     3    2
    44    40    39    1
    45     3     6   am
    46    10     7    1
    47     6     7    1
    48    39    38    1
    49    39    42    1
    50     7     8    1
    51    42    43    1
    52     8     9    2
    53    34    33    2
    54    29    28   ar
    55    30    28   ar
    56    33    32    1
    57    28    27    1
    58    36    35    1
    59    27    26    1
    60    32    31    1
    61    32    35    1
    62    31    24   am
    63    26    23    1
    64    35    37    1
    65    23    24    1
    66    23    22    1
    67    17    15    1
    68    11    12    1
    69    24    25    2
    70    16    15    1
    71    15    12    1
    72    22    20   am
    73    12    13    1
    74    21    20    2
    75    14    13    2
    76    20    19    1
    77    19    18    1
