@<TRIPOS>MOLECULE
tmp/3qywA00.pdb
 131 122 0 0 0
SMALL
GASTEIGER

@<TRIPOS>ATOM
      1  N        -19.7050   20.7340   38.6110 N.3    21  ILE21      -0.1231
      2  CA       -19.3970   20.3620   39.9920 C.3    21  ILE21       0.1692
      3  C        -18.2720   21.2260   40.5600 C.2    21  ILE21       0.2593
      4  O        -18.3990   21.7800   41.6560 O.2    21  ILE21      -0.2718
      5  CB       -19.0510   18.8520   40.1330 C.3    21  ILE21       0.0266
      6  CG1      -20.2540   17.9880   39.7300 C.3    21  ILE21       0.0019
      7  CG2      -18.6110   18.5100   41.5710 C.3    21  ILE21       0.0020
      8  CD1      -19.9880   16.4780   39.7920 C.3    21  ILE21       0.0001
      9  N        -17.1830   21.3550   39.8040 N.am   22  GLY22      -0.1942
     10  CA       -16.0530   22.1580   40.2320 C.3    22  GLY22       0.2014
     11  C        -14.7880   21.8160   39.4670 C.2    22  GLY22       0.2639
     12  O        -14.8490   21.2440   38.3700 O.2    22  GLY22      -0.2714
     13  N        -13.6420   22.1680   40.0470 N.am   23  GLU23      -0.1963
     14  CA       -12.3440   21.9290   39.4290 C.3    23  GLU23       0.1733
     15  C        -11.5420   20.9460   40.2610 C.2    23  GLU23       0.2616
     16  O        -11.3600   21.1370   41.4760 O.2    23  GLU23      -0.2715
     17  CB       -11.5370   23.2230   39.2920 C.3    23  GLU23       0.0429
     18  CG       -12.2330   24.3450   38.5590 C.3    23  GLU23       0.1163
     19  CD       -12.4260   24.0710   37.0800 C.2    23  GLU23       0.3649
     20  OE1      -11.4680   23.6150   36.4120 O.co2  23  GLU23      -0.2457
     21  OE2      -13.5440   24.3250   36.5820 O.co2  23  GLU23      -0.2457
     22  N        -11.0630   19.9020   39.5990 N.am   24  GLY24      -0.1955
     23  CA       -10.1870   18.9250   40.2210 C.3    24  GLY24       0.1869
     24  C         -8.7590   19.0690   39.7140 C.2    24  GLY24       0.2309
     25  O         -8.4170   20.0400   39.0240 O.2    24  GLY24      -0.2863
     26  N        -14.8650   19.3430   36.1970 N.3    29  VAL29      -0.1245
     27  CA       -15.6580   18.1610   36.5010 C.3    29  VAL29       0.1561
     28  C        -17.1440   18.5280   36.5030 C.2    29  VAL29       0.2260
     29  O        -17.5470   19.5040   37.1340 O.2    29  VAL29      -0.2867
     30  CB       -15.2830   17.5680   37.8810 C.3    29  VAL29       0.0252
     31  CG1      -16.0420   16.2620   38.1330 C.3    29  VAL29       0.0019
     32  CG2      -13.7810   17.3380   37.9810 C.3    29  VAL29       0.0019
     33  N        -20.4730   11.0610   36.9340 N.3    42  ALA42      -0.1245
     34  CA       -19.4500   12.0990   36.9960 C.3    42  ALA42       0.1562
     35  C        -18.5570   12.0300   35.7600 C.2    42  ALA42       0.2260
     36  O        -18.2220   10.9340   35.2960 O.2    42  ALA42      -0.2867
     37  CB       -18.6120   11.9380   38.2530 C.3    42  ALA42       0.0290
     38  N        -14.9030   13.8120   34.0800 N.3    44  LYS44      -0.1245
     39  CA       -13.7070   14.6430   34.2430 C.3    44  LYS44       0.1561
     40  C        -13.0390   14.9050   32.8890 C.2    44  LYS44       0.2260
     41  O        -12.6760   13.9700   32.1790 O.2    44  LYS44      -0.2867
     42  CB       -12.7100   13.9740   35.1960 C.3    44  LYS44       0.0271
     43  CG       -13.2570   13.7970   36.5910 C.3    44  LYS44       0.0035
     44  CD       -12.4320   12.8610   37.4660 C.3    44  LYS44       0.0206
     45  CE       -13.0910   12.7520   38.8520 C.3    44  LYS44       0.1093
     46  NZ       -12.5670   11.6150   39.6860 N.3    44  LYS44      -0.1314
     47  N        -12.3360    3.5920   42.7610 N.3    74  ILE74      -0.1245
     48  CA       -13.3210    4.2050   41.8550 C.3    74  ILE74       0.1561
     49  C        -13.4420    3.5330   40.4730 C.2    74  ILE74       0.2260
     50  O        -14.5640    3.3590   39.9370 O.2    74  ILE74      -0.2867
     51  CB       -13.1130    5.7480   41.7030 C.3    74  ILE74       0.0252
     52  CG1      -14.2710    6.4020   40.9230 C.3    74  ILE74       0.0019
     53  CG2      -11.7660    6.0510   41.0190 C.3    74  ILE74       0.0019
     54  CD1      -15.6400    6.3820   41.6420 C.3    74  ILE74       0.0001
     55  N        -17.1940    8.2530   35.4710 N.3    95  GLN95      -0.1231
     56  CA       -17.1440    7.4620   36.7060 C.3    95  GLN95       0.1698
     57  C        -18.4660    7.5080   37.4630 C.2    95  GLN95       0.2592
     58  O        -19.3180    8.3720   37.2080 O.2    95  GLN95      -0.2718
     59  CB       -16.0060    7.9540   37.6200 C.3    95  GLN95       0.0381
     60  CG       -14.6150    7.7820   37.0040 C.3    95  GLN95       0.0905
     61  CD       -13.5000    8.4460   37.8000 C.2    95  GLN95       0.2608
     62  OE1      -13.6690    9.5440   38.3210 O.2    95  GLN95      -0.2717
     63  NE2      -12.3480    7.7680   37.8980 N.am   95  GLN95      -0.0878
     64  N        -18.6460    6.5690   38.3880 N.am   96  ASP96      -0.1960
     65  CA       -19.8280    6.5910   39.2380 C.3    96  ASP96       0.1840
     66  C        -19.9390    7.9500   39.9440 C.2    96  ASP96       0.2622
     67  O        -18.9390    8.4760   40.4690 O.2    96  ASP96      -0.2715
     68  CB       -19.7540    5.4770   40.2930 C.3    96  ASP96       0.1450
     69  CG       -19.8950    4.0810   39.7030 C.2    96  ASP96       0.3671
     70  OD1      -20.4620    3.9320   38.5930 O.co2  96  ASP96      -0.2456
     71  OD2      -19.4800    3.1220   40.4010 O.co2  96  ASP96      -0.2456
     72  N        -21.1530    8.5020   39.9960 N.am   97  LEU97      -0.1963
     73  CA       -21.3890    9.7640   40.7050 C.3    97  LEU97       0.1728
     74  C        -21.4200    9.5380   42.2070 C.2    97  LEU97       0.2616
     75  O        -22.0950    8.6280   42.6880 O.2    97  LEU97      -0.2715
     76  CB       -22.7040   10.4180   40.2690 C.3    97  LEU97       0.0311
     77  CG       -22.9790   11.8290   40.8170 C.3    97  LEU97       0.0022
     78  CD1      -21.9100   12.8310   40.3650 C.3    97  LEU97       0.0001
     79  CD2      -24.3840   12.3050   40.4080 C.3    97  LEU97       0.0001
     80  N        -20.6820   10.3660   42.9450 N.am   98  MET98      -0.1963
     81  CA       -20.5930   10.2410   44.3980 C.3    98  MET98       0.1736
     82  C        -21.2660   11.4470   45.0410 C.2    98  MET98       0.2616
     83  O        -21.5830   12.4180   44.3510 O.2    98  MET98      -0.2715
     84  CB       -19.1240   10.1190   44.8120 C.3    98  MET98       0.0427
     85  CG       -18.4280    8.8890   44.1900 C.3    98  MET98       0.0599
     86  SD       -18.9540    7.3450   44.9780 S.3    98  MET98      -0.1393
     87  CE       -19.0460    6.2040   43.6220 C.3    98  MET98       0.0692
     88  N        -21.5430   11.3770   46.3410 N.am   99  GLU99      -0.1963
     89  CA       -22.1950   12.5000   47.0170 C.3    99  GLU99       0.1733
     90  C        -21.1700   13.5370   47.4910 C.2    99  GLU99       0.2617
     91  O        -21.3970   14.7440   47.3900 O.2    99  GLU99      -0.2715
     92  CB       -23.0970   12.0570   48.1890 C.3    99  GLU99       0.0429
     93  CG       -23.8490   13.2630   48.8180 C.3    99  GLU99       0.1163
     94  CD       -24.6030   12.9810   50.1200 C.2    99  GLU99       0.3649
     95  OE1      -24.9870   13.9620   50.7900 O.co2  99  GLU99      -0.2457
     96  OE2      -24.8200   11.8140   50.4840 O.co2  99  GLU99      -0.2457
     97  N        -20.0360   13.0670   47.9890 N.am  100  THR100     -0.1937
     98  CA       -19.0780   13.9710   48.6150 C.3   100  THR100      0.2028
     99  C        -17.6880   13.3260   48.6820 C.2   100  THR100      0.2642
    100  O        -17.4900   12.2190   48.1930 O.2   100  THR100     -0.2714
    101  CB       -19.5800   14.3690   50.0360 C.3   100  THR100      0.1808
    102  OG1      -18.7460   15.3970   50.5810 O.3   100  THR100     -0.2208
    103  CG2      -19.5830   13.1700   50.9650 C.3   100  THR100      0.0379
    104  N        -16.7090   14.0410   49.2220 N.am  101  ASP101     -0.1971
    105  CA       -15.4270   13.4230   49.5720 C.3   101  ASP101      0.1709
    106  C        -15.1270   13.6170   51.0610 C.2   101  ASP101      0.2293
    107  O        -15.8410   14.3620   51.7650 O.2   101  ASP101     -0.2864
    108  CB       -14.2860   13.9430   48.6880 C.3   101  ASP101      0.1436
    109  CG       -14.0640   15.4350   48.8280 C.2   101  ASP101      0.3671
    110  OD1      -13.8760   15.8930   49.9580 O.co2 101  ASP101     -0.2456
    111  OD2      -14.0570   16.1460   47.8000 O.co2 101  ASP101     -0.2456
    112  N         -9.2950   14.3600   50.2850 N.3   143  SER143     -0.1217
    113  CA        -9.9680   14.7440   49.0320 C.3   143  SER143      0.1889
    114  C         -9.8990   13.6690   47.9380 C.2   143  SER143      0.2288
    115  O        -10.6080   13.7780   46.9350 O.2   143  SER143     -0.2866
    116  CB        -9.4440   16.0820   48.4990 C.3   143  SER143      0.2089
    117  OG        -8.0850   15.9970   48.1080 O.3   143  SER143     -0.2183
    118  N        -13.6580    9.3120   48.0300 N.3   146  LEU146     -0.1245
    119  CA       -15.0180    9.7300   47.7000 C.3   146  LEU146      0.1561
    120  C        -16.0480    8.8250   48.3790 C.2   146  LEU146      0.2260
    121  O        -15.7850    7.6330   48.6180 O.2   146  LEU146     -0.2867
    122  CB       -15.2230    9.7270   46.1740 C.3   146  LEU146      0.0270
    123  CG       -14.4400   10.7220   45.2960 C.3   146  LEU146      0.0019
    124  CD1      -15.3990   11.6250   44.5190 C.3   146  LEU146      0.0001
    125  CD2      -13.4310   11.5700   46.0810 C.3   146  LEU146      0.0001
    126  N         -9.6480    7.2810   44.8690 N.3   155  CYS155     -0.1235
    127  CA        -9.4720    7.8180   43.5140 C.3   155  CYS155      0.1677
    128  C         -8.0840    8.4410   43.2860 C.2   155  CYS155      0.2270
    129  O         -7.2960    8.6220   44.2250 O.2   155  CYS155     -0.2867
    130  CB       -10.5370    8.8630   43.1630 C.3   155  CYS155      0.0956
    131  SG       -10.4560   10.3370   44.0490 S.3   155  CYS155     -0.0801
@<TRIPOS>BOND
     1    41    40    2
     2    40    39    1
     3    38    39    1
     4    39    42    1
     5    42    43    1
     6    36    35    2
     7    55    56    1
     8    35    34    1
     9    26    27    1
    10    20    19   ar
    11    27    28    1
    12    27    30    1
    13    28    29    2
    14    21    19   ar
    15    43    44    1
    16    56    57    1
    17    56    59    1
    18    33    34    1
    19    34    37    1
    20    60    59    1
    21    60    61    1
    22    19    18    1
    23    58    57    2
    24    57    64   am
    25    44    45    1
    26    61    63   am
    27    61    62    2
    28    30    32    1
    29    30    31    1
    30    12    11    2
    31    64    65    1
    32    18    17    1
    33    70    69   ar
    34     1     2    1
    35    45    46    1
    36    25    24    2
    37    65    66    1
    38    65    68    1
    39    17    14    1
    40    14    13    1
    41    14    15    1
    42    11    13   am
    43    11    10    1
    44    22    23    1
    45    22    15   am
    46    69    68    1
    47    69    71   ar
    48    24    23    1
    49     6     8    1
    50     6     5    1
    51     9    10    1
    52     9     3   am
    53    50    49    2
    54    66    72   am
    55    66    67    2
    56     2     5    1
    57     2     3    1
    58    72    73    1
    59     5     7    1
    60    15    16    2
    61    76    73    1
    62    76    77    1
    63    78    77    1
    64    79    77    1
    65    49    48    1
    66     3     4    2
    67    73    74    1
    68    52    54    1
    69    52    51    1
    70    53    51    1
    71    51    48    1
    72    48    47    1
    73    74    75    2
    74    74    80   am
    75    80    81    1
    76   130   127    1
    77   130   131    1
    78   128   127    1
    79   128   129    2
    80   127   126    1
    81    87    86    1
    82    85    84    1
    83    85    86    1
    84    83    82    2
    85    81    84    1
    86    81    82    1
    87   124   123    1
    88    82    88   am
    89   123   125    1
    90   123   122    1
    91   122   119    1
    92    88    89    1
    93   115   114    2
    94    89    90    1
    95    89    92    1
    96    91    90    2
    97    90    97   am
    98   119   118    1
    99   119   120    1
   100   111   109   ar
   101   114   113    1
   102    97    98    1
   103   117   116    1
   104    92    93    1
   105   100    99    2
   106   120   121    2
   107   116   113    1
   108    98    99    1
   109    98   101    1
   110    99   104   am
   111   108   109    1
   112   108   105    1
   113    93    94    1
   114   109   110   ar
   115   113   112    1
   116   104   105    1
   117   105   106    1
   118   101   102    1
   119   101   103    1
   120    94    96   ar
   121    94    95   ar
   122   106   107    2
