@<TRIPOS>MOLECULE
tmp/3qyyB01.pdb
 107 99 0 0 0
SMALL
GASTEIGER

@<TRIPOS>ATOM
      1  N         64.4010   41.9510   52.5690 N.3    11  LEU11      -0.1245
      2  CA        65.3040   42.8270   51.8230 C.3    11  LEU11       0.1561
      3  C         64.6910   43.5060   50.5970 C.2    11  LEU11       0.2260
      4  O         64.7030   44.7350   50.4910 O.2    11  LEU11      -0.2867
      5  CB        66.5540   42.0620   51.3630 C.3    11  LEU11       0.0270
      6  CG        67.6370   42.9470   50.7290 C.3    11  LEU11       0.0019
      7  CD1       68.3770   43.6890   51.8340 C.3    11  LEU11       0.0001
      8  CD2       68.6220   42.1000   49.9180 C.3    11  LEU11       0.0001
      9  N         67.7380   34.2750   36.8130 N.3    44  ASP44      -0.1239
     10  CA        68.9480   34.1110   37.6150 C.3    44  ASP44       0.1674
     11  C         69.9560   35.1450   37.1280 C.2    44  ASP44       0.2266
     12  O         70.2570   35.2120   35.9350 O.2    44  ASP44      -0.2867
     13  CB        69.5270   32.7010   37.4440 C.3    44  ASP44       0.1410
     14  CG        70.7300   32.4520   38.3390 C.2    44  ASP44       0.3668
     15  OD1       71.6960   31.8100   37.8730 O.co2  44  ASP44      -0.2456
     16  OD2       70.7020   32.8850   39.5120 O.co2  44  ASP44      -0.2456
     17  N         76.1070   39.5440   39.5510 N.3    48  LEU48      -0.1231
     18  CA        75.9970   40.2220   40.8370 C.3    48  LEU48       0.1693
     19  C         77.2630   40.1380   41.6860 C.2    48  LEU48       0.2591
     20  O         77.6200   41.0950   42.3690 O.2    48  LEU48      -0.2718
     21  CB        74.8200   39.6640   41.6370 C.3    48  LEU48       0.0284
     22  CG        74.5630   40.3720   42.9740 C.3    48  LEU48       0.0019
     23  CD1       74.3820   41.8750   42.7340 C.3    48  LEU48       0.0001
     24  CD2       73.3270   39.7840   43.6380 C.3    48  LEU48       0.0001
     25  N         77.9430   38.9960   41.6410 N.am   49  LYS49      -0.1980
     26  CA        79.1480   38.8000   42.4390 C.3    49  LYS49       0.1596
     27  C         80.2280   39.8650   42.2350 C.2    49  LYS49       0.2287
     28  O         80.7430   40.4200   43.2020 O.2    49  LYS49      -0.2864
     29  CB        79.7180   37.4070   42.1760 C.3    49  LYS49       0.0298
     30  CG        80.6080   36.8960   43.2860 C.3    49  LYS49       0.0038
     31  CD        80.7240   35.3870   43.1970 C.3    49  LYS49       0.0206
     32  CE        81.4600   34.8310   44.3820 C.3    49  LYS49       0.1093
     33  NZ        81.4040   33.3500   44.3640 N.3    49  LYS49      -0.1314
     34  N         79.4690   42.9800   44.2010 N.3    52  ASN52      -0.1240
     35  CA        79.7310   42.9090   45.6390 C.3    52  ASN52       0.1653
     36  C         81.2290   43.0320   45.9160 C.2    52  ASN52       0.2266
     37  O         81.6470   43.7130   46.8550 O.2    52  ASN52      -0.2867
     38  CB        79.2520   41.5770   46.2360 C.3    52  ASN52       0.1155
     39  CG        77.7420   41.4970   46.3780 C.2    52  ASN52       0.2627
     40  OD1       77.0920   42.4490   46.8160 O.2    52  ASN52      -0.2716
     41  ND2       77.1800   40.3430   46.0310 N.am   52  ASN52      -0.0877
     42  N         78.6870   44.5010   49.8940 N.3    57  HIS57      -0.1241
     43  CA        77.3810   43.8440   49.8850 C.3    57  HIS57       0.1621
     44  C         76.1880   44.7870   49.9730 C.2    57  HIS57       0.2264
     45  O         75.0940   44.4430   49.5310 O.2    57  HIS57      -0.2867
     46  CB        77.2790   42.8000   51.0070 C.3    57  HIS57       0.0745
     47  CG        77.1800   43.3850   52.3810 C.ar   57  HIS57       0.0817
     48  ND1       78.2840   43.7660   53.1120 N.ar   57  HIS57      -0.2268
     49  CD2       76.1030   43.6560   53.1560 C.ar   57  HIS57       0.1154
     50  CE1       77.8910   44.2450   54.2800 C.ar   57  HIS57       0.1986
     51  NE2       76.5720   44.1890   54.3320 N.ar   57  HIS57      -0.2212
     52  N         75.4440   45.5990   46.5040 N.3    60  GLY60      -0.1210
     53  CA        74.8080   44.4710   45.8500 C.3    60  GLY60       0.1956
     54  C         73.3650   44.3490   46.3060 C.2    60  GLY60       0.2611
     55  O         72.4840   43.9970   45.5160 O.2    60  GLY60      -0.2717
     56  N         73.1240   44.6290   47.5870 N.am   61  ASP61      -0.1973
     57  CA        71.7700   44.5710   48.1390 C.3    61  ASP61       0.1709
     58  C         70.9040   45.5600   47.3670 C.2    61  ASP61       0.2293
     59  O         69.7650   45.2620   47.0020 O.2    61  ASP61      -0.2864
     60  CB        71.7550   44.9790   49.6180 C.3    61  ASP61       0.1436
     61  CG        72.1600   43.8610   50.5560 C.2    61  ASP61       0.3671
     62  OD1       72.4450   42.7330   50.0940 O.co2  61  ASP61      -0.2456
     63  OD2       72.1880   44.1240   51.7790 O.co2  61  ASP61      -0.2456
     64  N         69.6530   44.2460   44.0620 N.3    64  LEU64      -0.1245
     65  CA        68.4980   43.3580   44.1840 C.3    64  LEU64       0.1561
     66  C         67.2340   44.1550   44.4890 C.2    64  LEU64       0.2260
     67  O         66.1480   43.8280   44.0080 O.2    64  LEU64      -0.2867
     68  CB        68.7310   42.3260   45.2880 C.3    64  LEU64       0.0270
     69  CG        69.8400   41.3000   45.0340 C.3    64  LEU64       0.0019
     70  CD1       70.0420   40.4620   46.2860 C.3    64  LEU64       0.0001
     71  CD2       69.4750   40.4150   43.8570 C.3    64  LEU64       0.0001
     72  N         61.2470   36.0870   45.2520 N.3    83  ARG83      -0.1245
     73  CA        62.6650   35.7820   45.3350 C.3    83  ARG83       0.1563
     74  C         62.7790   34.3220   45.7710 C.2    83  ARG83       0.2260
     75  O         62.4150   33.9680   46.8940 O.2    83  ARG83      -0.2867
     76  CB        63.3370   36.6990   46.3620 C.3    83  ARG83       0.0307
     77  CG        64.8540   36.6030   46.3940 C.3    83  ARG83       0.0489
     78  CD        65.4480   37.5370   47.4420 C.3    83  ARG83       0.2205
     79  NE        66.9020   37.4190   47.4960 N.pl3  83  ARG83      -0.0865
     80  CZ        67.6740   38.0080   48.4020 C.cat  83  ARG83       0.5346
     81  NH1       67.1350   38.7710   49.3460 N.pl3  83  ARG83       0.1354
     82  NH2       68.9880   37.8260   48.3650 N.pl3  83  ARG83       0.1354
     83  N         65.4770   32.7910   46.1740 N.3    85  GLY85      -0.1210
     84  CA        66.5610   32.8140   47.1380 C.3    85  GLY85       0.1956
     85  C         67.8190   33.3120   46.4480 C.2    85  GLY85       0.2612
     86  O         67.9480   33.1630   45.2370 O.2    85  GLY85      -0.2717
     87  N         68.7400   33.9090   47.1980 N.am   86  GLY86      -0.1942
     88  CA        69.9670   34.4080   46.5900 C.3    86  GLY86       0.2014
     89  C         69.6740   35.4390   45.5120 C.2    86  GLY86       0.2639
     90  O         68.9710   36.4160   45.7680 O.2    86  GLY86      -0.2714
     91  N         70.2110   35.2390   44.3100 N.am   87  ASP87      -0.1957
     92  CA        69.9530   36.1770   43.2200 C.3    87  ASP87       0.1840
     93  C         69.0090   35.5690   42.1780 C.2    87  ASP87       0.2621
     94  O         69.0310   35.9440   41.0040 O.2    87  ASP87      -0.2715
     95  CB        71.2680   36.6110   42.5620 C.3    87  ASP87       0.1450
     96  CG        72.0070   35.4650   41.8940 C.2    87  ASP87       0.3671
     97  OD1       73.0730   35.7320   41.3050 O.co2  87  ASP87      -0.2456
     98  OD2       71.5360   34.3090   41.9520 O.co2  87  ASP87      -0.2456
     99  N         68.1670   34.6390   42.6260 N.am   88  GLU88      -0.1977
    100  CA        67.2170   33.9630   41.7430 C.3    88  GLU88       0.1602
    101  C         65.7920   34.4330   42.0380 C.2    88  GLU88       0.2287
    102  O         65.3760   34.4900   43.1970 O.2    88  GLU88      -0.2864
    103  CB        67.3340   32.4440   41.9320 C.3    88  GLU88       0.0415
    104  CG        66.6490   31.6230   40.8500 C.3    88  GLU88       0.1163
    105  CD        67.2670   30.2400   40.7070 C.2    88  GLU88       0.3649
    106  OE1       68.5090   30.1580   40.5890 O.co2  88  GLU88      -0.2457
    107  OE2       66.5180   29.2410   40.7060 O.co2  88  GLU88      -0.2457
@<TRIPOS>BOND
     1    12    11    2
     2     9    10    1
     3    11    10    1
     4    13    10    1
     5    13    14    1
     6    15    14   ar
     7    14    16   ar
     8    17    18    1
     9   106   105   ar
    10   107   105   ar
    11   105   104    1
    12    18    21    1
    13    18    19    1
    14   104   103    1
    15    94    93    2
    16    97    96   ar
    17    21    22    1
    18    25    19   am
    19    25    26    1
    20    19    20    2
    21   100   103    1
    22   100   101    1
    23   100    99    1
    24    96    98   ar
    25    96    95    1
    26   101   102    2
    27    29    26    1
    28    29    30    1
    29    93    99   am
    30    93    92    1
    31    27    26    1
    32    27    28    2
    33    95    92    1
    34    23    22    1
    35    22    24    1
    36    31    30    1
    37    31    32    1
    38    92    91    1
    39    71    69    1
    40    67    66    2
    41    64    65    1
    42    65    66    1
    43    65    68    1
    44    34    35    1
    45    91    89   am
    46    33    32    1
    47    69    68    1
    48    69    70    1
    49    86    85    2
    50    72    73    1
    51    73    74    1
    52    73    76    1
    53    89    90    2
    54    89    88    1
    55    55    54    2
    56    35    36    1
    57    35    38    1
    58    74    75    2
    59    53    54    1
    60    53    52    1
    61    36    37    2
    62    41    39   am
    63    83    84    1
    64    38    39    1
    65    54    56   am
    66    76    77    1
    67    39    40    2
    68    77    78    1
    69    85    84    1
    70    85    87   am
    71    88    87    1
    72    59    58    2
    73    58    57    1
    74    78    79    1
    75    79    80    2
    76    56    57    1
    77    57    60    1
    78    82    80    1
    79    80    81    1
    80    45    44    2
    81    60    61    1
    82    43    42    1
    83    43    44    1
    84    43    46    1
    85     8     6    1
    86    62    61   ar
    87     4     3    2
    88    61    63   ar
    89     3     2    1
    90     6     5    1
    91     6     7    1
    92    46    47    1
    93     5     2    1
    94     2     1    1
    95    47    48   ar
    96    47    49   ar
    97    48    50   ar
    98    49    51   ar
    99    50    51   ar
