@<TRIPOS>MOLECULE
tmp/3qz1A02.pdb
 144 134 0 0 0
SMALL
GASTEIGER

@<TRIPOS>ATOM
      1  N          7.7400  -44.6440   76.0320 N.3    12  LEU12      -0.1245
      2  CA         8.2690  -43.9070   74.9130 C.3    12  LEU12       0.1561
      3  C          9.7860  -43.9970   74.8910 C.2    12  LEU12       0.2260
      4  O         10.4060  -44.1350   73.8380 O.2    12  LEU12      -0.2867
      5  CB         7.8090  -42.4630   74.9890 C.3    12  LEU12       0.0270
      6  CG         8.4770  -41.5070   74.0180 C.3    12  LEU12       0.0019
      7  CD1        9.2910  -42.2510   72.9810 C.3    12  LEU12       0.0001
      8  CD2        7.4060  -40.6990   73.3430 C.3    12  LEU12       0.0001
      9  N         11.3660  -48.8820   69.6580 N.3    17  LEU17      -0.1245
     10  CA        10.0490  -48.9320   70.2190 C.3    17  LEU17       0.1561
     11  C          9.1430  -49.8800   69.4600 C.2    17  LEU17       0.2260
     12  O          8.4210  -50.6700   70.0620 O.2    17  LEU17      -0.2867
     13  CB         9.4640  -47.5290   70.2640 C.3    17  LEU17       0.0270
     14  CG         8.2390  -47.3850   71.1570 C.3    17  LEU17       0.0019
     15  CD1        7.5210  -46.1100   70.7990 C.3    17  LEU17       0.0001
     16  CD2        7.3250  -48.5690   71.0020 C.3    17  LEU17       0.0001
     17  N          2.7090  -44.6270   76.2040 N.3    36  LEU36      -0.1231
     18  CA         3.9040  -44.1990   75.5070 C.3    36  LEU36       0.1693
     19  C          4.4360  -42.9660   76.1980 C.2    36  LEU36       0.2593
     20  O          5.6260  -42.8490   76.4160 O.2    36  LEU36      -0.2718
     21  CB         3.5880  -43.8490   74.0640 C.3    36  LEU36       0.0284
     22  CG         3.1160  -44.9890   73.1710 C.3    36  LEU36       0.0019
     23  CD1        1.7250  -44.6800   72.6450 C.3    36  LEU36       0.0001
     24  CD2        4.0930  -45.1620   72.0220 C.3    36  LEU36       0.0001
     25  N          3.5340  -42.0540   76.5420 N.am   37  GLY37      -0.1942
     26  CA         3.9270  -40.8110   77.1770 C.3    37  GLY37       0.2014
     27  C          3.5110  -40.8320   78.6170 C.2    37  GLY37       0.2639
     28  O          4.0850  -41.5540   79.4120 O.2    37  GLY37      -0.2714
     29  N          2.5340  -40.0170   78.9790 N.am   38  LEU38      -0.1963
     30  CA         2.0290  -40.0590   80.3460 C.3    38  LEU38       0.1728
     31  C          0.5760  -40.4990   80.3010 C.2    38  LEU38       0.2616
     32  O         -0.0530  -40.7010   81.3380 O.2    38  LEU38      -0.2715
     33  CB         2.1150  -38.6890   81.0190 C.3    38  LEU38       0.0311
     34  CG         3.4640  -38.3730   81.6720 C.3    38  LEU38       0.0022
     35  CD1        4.5790  -38.6150   80.6840 C.3    38  LEU38       0.0001
     36  CD2        3.4980  -36.9450   82.1550 C.3    38  LEU38       0.0001
     37  N          0.0670  -40.6750   79.0870 N.am   39  GLN39      -0.1977
     38  CA        -1.3230  -41.0170   78.8850 C.3    39  GLN39       0.1601
     39  C         -1.4620  -42.3960   78.2900 C.2    39  GLN39       0.2287
     40  O         -0.6760  -42.7690   77.4360 O.2    39  GLN39      -0.2864
     41  CB        -1.9780  -39.9580   77.9930 C.3    39  GLN39       0.0394
     42  CG        -3.1180  -39.2240   78.6620 C.3    39  GLN39       0.0908
     43  CD        -3.5370  -39.9010   79.9480 C.2    39  GLN39       0.2608
     44  OE1       -3.3280  -41.0970   80.1260 O.2    39  GLN39      -0.2717
     45  NE2       -4.1390  -39.1440   80.8490 N.am   39  GLN39      -0.0878
     46  N         -2.1440  -45.0500   75.9740 N.3    41  VAL41      -0.1245
     47  CA        -2.4220  -45.1440   74.5640 C.3    41  VAL41       0.1561
     48  C         -2.5950  -46.5910   74.1480 C.2    41  VAL41       0.2260
     49  O         -1.7630  -47.4380   74.4610 O.2    41  VAL41      -0.2867
     50  CB        -1.2750  -44.5320   73.7580 C.3    41  VAL41       0.0252
     51  CG1       -1.7720  -44.1280   72.4060 C.3    41  VAL41       0.0019
     52  CG2       -0.6880  -43.3430   74.4910 C.3    41  VAL41       0.0019
     53  N         -5.8870  -36.8530   67.3190 N.3    65  PRO65      -0.2116
     54  CA        -5.9120  -36.0000   68.5110 C.3    65  PRO65       0.1372
     55  C         -5.1540  -34.7070   68.2570 C.2    65  PRO65       0.2244
     56  O         -4.1500  -34.7020   67.5720 O.2    65  PRO65      -0.2868
     57  CB        -5.2400  -36.8710   69.5660 C.3    65  PRO65       0.0268
     58  CG        -4.2440  -37.6420   68.7610 C.3    65  PRO65       0.0207
     59  CD        -5.0440  -38.0420   67.5460 C.3    65  PRO65       0.0892
     60  N         -2.9020  -32.4400   69.8340 N.3    67  ILE67      -0.1231
     61  CA        -2.0510  -32.4260   71.0200 C.3    67  ILE67       0.1678
     62  C         -1.4580  -31.0500   70.8360 C.2    67  ILE67       0.2434
     63  O         -1.5510  -30.4910   69.7350 O.2    67  ILE67      -0.2733
     64  CB        -0.9050  -33.4850   70.9800 C.3    67  ILE67       0.0265
     65  CG1       -0.1390  -33.3800   69.6570 C.3    67  ILE67       0.0019
     66  CG2       -1.4650  -34.8810   71.1960 C.3    67  ILE67       0.0020
     67  CD1        1.1710  -34.1520   69.6370 C.3    67  ILE67       0.0001
     68  N         -0.8490  -30.4760   71.8890 N.am   68  PRO68      -0.2729
     69  CA        -0.2480  -29.1350   71.8020 C.3    68  PRO68       0.1401
     70  C          0.9390  -28.9990   70.8370 C.2    68  PRO68       0.2269
     71  O          1.5280  -27.9270   70.7120 O.2    68  PRO68      -0.2865
     72  CB         0.1370  -28.8340   73.2510 C.3    68  PRO68       0.0296
     73  CG         0.4760  -30.2000   73.7800 C.3    68  PRO68       0.0237
     74  CD        -0.6560  -31.0500   73.2340 C.3    68  PRO68       0.0939
     75  N          8.8840  -32.1820   72.0660 N.3   176  GLN176     -0.1245
     76  CA         7.9460  -33.2510   72.3590 C.3   176  GLN176      0.1566
     77  C          7.4210  -33.1990   73.7790 C.2   176  GLN176      0.2260
     78  O          6.2360  -33.3900   74.0070 O.2   176  GLN176     -0.2867
     79  CB         8.5870  -34.6110   72.1020 C.3   176  GLN176      0.0367
     80  CG         8.7420  -34.9520   70.6310 C.3   176  GLN176      0.0905
     81  CD         8.8980  -36.4400   70.3920 C.2   176  GLN176      0.2608
     82  OE1        9.8910  -37.0470   70.8050 O.2   176  GLN176     -0.2717
     83  NE2        7.9110  -37.0400   69.7240 N.am  176  GLN176     -0.0878
     84  N          4.2220  -31.6050   74.9660 N.3   179  ASP179     -0.1225
     85  CA         2.9510  -32.2960   74.8200 C.3   179  ASP179      0.1805
     86  C          2.6760  -33.2100   76.0010 C.2   179  ASP179      0.2597
     87  O          1.5320  -33.3690   76.4140 O.2   179  ASP179     -0.2718
     88  CB         2.9400  -33.1080   73.5230 C.3   179  ASP179      0.1424
     89  CG         3.4640  -32.3170   72.3310 C.2   179  ASP179      0.3668
     90  OD1        3.0060  -31.1740   72.1230 O.co2 179  ASP179     -0.2456
     91  OD2        4.3300  -32.8420   71.5960 O.co2 179  ASP179     -0.2456
     92  N          3.7260  -33.8200   76.5370 N.am  180  MET180     -0.1979
     93  CA         3.5790  -34.7070   77.6820 C.3   180  MET180      0.1605
     94  C          3.2790  -33.8870   78.9250 C.2   180  MET180      0.2287
     95  O          2.4170  -34.2420   79.7200 O.2   180  MET180     -0.2864
     96  CB         4.8500  -35.5220   77.9090 C.3   180  MET180      0.0413
     97  CG         5.0080  -36.6990   76.9720 C.3   180  MET180      0.0598
     98  SD         6.3820  -37.7590   77.4390 S.3   180  MET180     -0.1393
     99  CE         7.7910  -36.8030   76.8470 C.3   180  MET180      0.0692
    100  N          5.0960  -46.3240   63.0400 N.3   325  LEU325     -0.1231
    101  CA         3.9380  -46.2960   63.8910 C.3   325  LEU325      0.1693
    102  C          3.0040  -45.3450   63.2050 C.2   325  LEU325      0.2591
    103  O          2.0190  -44.8950   63.7660 O.2   325  LEU325     -0.2718
    104  CB         4.3210  -45.7900   65.2760 C.3   325  LEU325      0.0284
    105  CG         5.4350  -46.6120   65.9200 C.3   325  LEU325      0.0019
    106  CD1        6.7260  -45.8320   65.8460 C.3   325  LEU325      0.0001
    107  CD2        5.0960  -46.9200   67.3570 C.3   325  LEU325      0.0001
    108  N          3.3310  -45.0380   61.9630 N.am  326  ALA326     -0.1980
    109  CA         2.5190  -44.1220   61.1970 C.3   326  ALA326      0.1597
    110  C          2.2290  -42.8960   62.0300 C.2   326  ALA326      0.2287
    111  O          3.1220  -42.3120   62.6210 O.2   326  ALA326     -0.2864
    112  CB         1.2280  -44.7910   60.7920 C.3   326  ALA326      0.0319
    113  N         -0.6300  -41.0730   64.9970 N.3   328  PRO328     -0.2116
    114  CA        -1.6100  -41.3800   66.0420 C.3   328  PRO328      0.1372
    115  C         -3.0540  -41.0870   65.6390 C.2   328  PRO328      0.2244
    116  O         -3.3900  -39.9660   65.2600 O.2   328  PRO328     -0.2868
    117  CB        -1.1470  -40.5050   67.2030 C.3   328  PRO328      0.0268
    118  CG        -0.6230  -39.3100   66.5110 C.3   328  PRO328      0.0207
    119  CD         0.1820  -39.9050   65.3830 C.3   328  PRO328      0.0892
    120  N         -6.4970  -42.5160   72.0280 N.3   347  VAL347     -0.1245
    121  CA        -5.4810  -42.4330   70.9850 C.3   347  VAL347      0.1561
    122  C         -5.0660  -43.8290   70.5650 C.2   347  VAL347      0.2260
    123  O         -4.6520  -44.6230   71.4030 O.2   347  VAL347     -0.2867
    124  CB        -4.2360  -41.6770   71.4850 C.3   347  VAL347      0.0252
    125  CG1       -3.3890  -41.2310   70.3030 C.3   347  VAL347      0.0019
    126  CG2       -4.6510  -40.4840   72.3340 C.3   347  VAL347      0.0019
    127  N         -2.6400  -46.2880   68.2040 N.3   349  ILE349     -0.1245
    128  CA        -1.3560  -46.3190   67.5210 C.3   349  ILE349      0.1561
    129  C         -1.1750  -47.5990   66.7130 C.2   349  ILE349      0.2260
    130  O         -0.8550  -48.6600   67.2590 O.2   349  ILE349     -0.2867
    131  CB        -0.1850  -46.2100   68.5240 C.3   349  ILE349      0.0252
    132  CG1       -0.3150  -44.9210   69.3390 C.3   349  ILE349      0.0019
    133  CG2        1.1520  -46.2370   67.7830 C.3   349  ILE349      0.0019
    134  CD1       -0.5170  -43.6660   68.4970 C.3   349  ILE349      0.0001
    135  N         12.3640  -41.7700   65.2220 N.3   429  CYS429     -0.1221
    136  CA        11.5310  -40.5770   65.3050 C.3   429  CYS429      0.1808
    137  C         10.2430  -40.7510   64.4970 C.2   429  CYS429      0.2601
    138  O          9.7140  -41.8540   64.4070 O.2   429  CYS429     -0.2717
    139  CB        12.3250  -39.3370   64.8330 C.3   429  CYS429      0.0970
    140  SG        13.4460  -38.5690   66.0880 S.3   429  CYS429     -0.0800
    141  N          9.7410  -39.6710   63.9120 N.am  430  GLY430     -0.1957
    142  CA         8.5090  -39.7620   63.1580 C.3   430  GLY430      0.1869
    143  C          8.6280  -40.7310   62.0160 C.2   430  GLY430      0.2309
    144  O          7.7260  -41.5170   61.7740 O.2   430  GLY430     -0.2863
@<TRIPOS>BOND
     1   112   109    1
     2   109   108    1
     3   109   110    1
     4   144   143    2
     5   108   102   am
     6   143   142    1
     7   110   111    2
     8   100   101    1
     9   142   141    1
    10   102   103    2
    11   102   101    1
    12   101   104    1
    13   141   137   am
    14   138   137    2
    15   137   136    1
    16   139   136    1
    17   139   140    1
    18   113   119    1
    19   113   114    1
    20   135   136    1
    21   116   115    2
    22   104   105    1
    23   119   118    1
    24   115   114    1
    25   106   105    1
    26   105   107    1
    27   114   117    1
    28   118   117    1
    29   129   130    2
    30   129   128    1
    31    53    59    1
    32    53    54    1
    33   128   127    1
    34   128   131    1
    35    59    58    1
    36    56    55    2
    37   133   131    1
    38    55    54    1
    39   134   132    1
    40    54    57    1
    41   131   132    1
    42    58    57    1
    43    11    12    2
    44    11    10    1
    45    67    65    1
    46    65    64    1
    47     9    10    1
    48    83    81   am
    49    63    62    2
    50    60    61    1
    51    10    13    1
    52    13    14    1
    53   125   124    1
    54    81    80    1
    55    81    82    2
    56   122   121    1
    57   122   123    2
    58    80    79    1
    59    71    70    2
    60    15    14    1
    61    62    61    1
    62    62    68   am
    63    70    69    1
    64    64    61    1
    65    64    66    1
    66   121   124    1
    67   121   120    1
    68    16    14    1
    69   124   126    1
    70    91    89   ar
    71    69    68    1
    72    69    72    1
    73    68    74    1
    74    24    22    1
    75    75    76    1
    76    79    76    1
    77    90    89   ar
    78    89    88    1
    79    76    77    1
    80    51    50    1
    81    23    22    1
    82     7     6    1
    83    22    21    1
    84    74    73    1
    85    72    73    1
    86     8     6    1
    87    88    85    1
    88    50    52    1
    89    50    47    1
    90    77    78    2
    91     4     3    2
    92     6     5    1
    93    21    18    1
    94    48    49    2
    95    48    47    1
    96    47    46    1
    97    85    84    1
    98    85    86    1
    99     3     2    1
   100     2     5    1
   101     2     1    1
   102    18    19    1
   103    18    17    1
   104    86    87    2
   105    86    92   am
   106    19    20    2
   107    19    25   am
   108    92    93    1
   109    25    26    1
   110    99    98    1
   111    97    98    1
   112    97    96    1
   113    26    27    1
   114    40    39    2
   115    93    96    1
   116    93    94    1
   117    41    42    1
   118    41    38    1
   119    39    38    1
   120    27    29   am
   121    27    28    2
   122    42    43    1
   123    38    37    1
   124    94    95    2
   125    29    30    1
   126    37    31   am
   127    43    44    2
   128    43    45   am
   129    31    30    1
   130    31    32    2
   131    30    33    1
   132    35    34    1
   133    33    34    1
   134    34    36    1
