@<TRIPOS>MOLECULE
tmp/3qz1A01.pdb
 155 143 0 0 0
SMALL
GASTEIGER

@<TRIPOS>ATOM
      1  N          1.8970  -25.9900   64.3220 N.3    73  VAL73      -0.1245
      2  CA         2.0550  -25.7760   62.8870 C.3    73  VAL73       0.1561
      3  C          0.7500  -25.4140   62.1890 C.2    73  VAL73       0.2260
      4  O          0.7110  -25.3440   60.9580 O.2    73  VAL73      -0.2867
      5  CB         2.5460  -27.0400   62.2050 C.3    73  VAL73       0.0252
      6  CG1        2.9420  -28.0620   63.2460 C.3    73  VAL73       0.0019
      7  CG2        1.4460  -27.6140   61.3250 C.3    73  VAL73       0.0019
      8  N         -5.6380  -28.9390   57.4460 N.3    79  ASP79      -0.1239
      9  CA        -4.7160  -29.5230   56.4830 C.3    79  ASP79       0.1674
     10  C         -4.6230  -31.0370   56.6000 C.2    79  ASP79       0.2266
     11  O         -5.2780  -31.6520   57.4360 O.2    79  ASP79      -0.2867
     12  CB        -3.3170  -28.9220   56.6300 C.3    79  ASP79       0.1410
     13  CG        -2.5420  -29.5230   57.7750 C.2    79  ASP79       0.3668
     14  OD1       -2.8630  -29.2250   58.9420 O.co2  79  ASP79      -0.2456
     15  OD2       -1.6100  -30.3060   57.5030 O.co2  79  ASP79      -0.2456
     16  N         -3.0260  -34.7360   57.3900 N.3    81  SER81      -0.1202
     17  CA        -2.2250  -35.3760   58.4310 C.3    81  SER81       0.2020
     18  C         -2.4710  -34.8580   59.8410 C.2    81  SER81       0.2618
     19  O         -3.3510  -35.3520   60.5490 O.2    81  SER81      -0.2717
     20  CB        -0.7340  -35.2510   58.0800 C.3    81  SER81       0.2103
     21  OG        -0.2460  -33.9430   58.3190 O.3    81  SER81      -0.2182
     22  N         -1.6890  -33.8630   60.2470 N.am   82  LEU82      -0.1979
     23  CA        -1.8140  -33.2790   61.5750 C.3    82  LEU82       0.1596
     24  C         -3.2570  -32.8800   61.8840 C.2    82  LEU82       0.2287
     25  O         -3.7970  -33.2100   62.9290 O.2    82  LEU82      -0.2864
     26  CB        -0.9000  -32.0590   61.6760 C.3    82  LEU82       0.0297
     27  CG         0.5740  -32.2640   61.3080 C.3    82  LEU82       0.0022
     28  CD1        1.1760  -30.9540   60.8470 C.3    82  LEU82       0.0001
     29  CD2        1.3210  -32.8060   62.4910 C.3    82  LEU82       0.0001
     30  N         13.5140  -28.9990   59.0650 N.3   166  LEU166     -0.1231
     31  CA        12.1590  -28.8590   59.5940 C.3   166  LEU166      0.1693
     32  C         11.7460  -30.1600   60.2780 C.2   166  LEU166      0.2591
     33  O         10.6290  -30.2790   60.7730 O.2   166  LEU166     -0.2718
     34  CB        11.1640  -28.5360   58.4630 C.3   166  LEU166      0.0284
     35  CG         9.9620  -27.6600   58.8130 C.3   166  LEU166      0.0019
     36  CD1       10.2450  -26.2180   58.4150 C.3   166  LEU166      0.0001
     37  CD2        8.7560  -28.1520   58.0780 C.3   166  LEU166      0.0001
     38  N         12.6610  -31.1250   60.3070 N.am  167  MET167     -0.1979
     39  CA        12.4120  -32.4280   60.9130 C.3   167  MET167      0.1605
     40  C         13.0330  -32.6400   62.2920 C.2   167  MET167      0.2287
     41  O         12.3760  -33.1290   63.2130 O.2   167  MET167     -0.2864
     42  CB        12.9480  -33.5210   60.0070 C.3   167  MET167      0.0413
     43  CG        12.2450  -33.6440   58.6850 C.3   167  MET167      0.0598
     44  SD        10.5970  -34.4620   58.7360 S.3   167  MET167     -0.1393
     45  CE        11.0000  -36.0730   58.0230 C.3   167  MET167      0.0692
     46  N         11.1400  -30.7960   64.9090 N.3   170  TRP170     -0.1241
     47  CA         9.8010  -31.1940   65.3070 C.3   170  TRP170      0.1605
     48  C          9.8620  -32.5010   66.0760 C.2   170  TRP170      0.2264
     49  O          9.0170  -32.7810   66.9180 O.2   170  TRP170     -0.2867
     50  CB         8.9110  -31.3600   64.0770 C.3   170  TRP170      0.0550
     51  CG         7.4480  -31.3210   64.4070 C.ar  170  TRP170      0.0003
     52  CD1        6.7560  -30.2670   64.9380 C.ar  170  TRP170      0.0946
     53  CD2        6.5000  -32.3760   64.2390 C.ar  170  TRP170      0.0152
     54  NE1        5.4350  -30.6010   65.1110 N.ar  170  TRP170     -0.2442
     55  CE2        5.2490  -31.8920   64.6910 C.ar  170  TRP170      0.0810
     56  CE3        6.5790  -33.6830   63.7610 C.ar  170  TRP170      0.0012
     57  CZ2        4.0890  -32.6700   64.6700 C.ar  170  TRP170      0.0191
     58  CZ3        5.4300  -34.4560   63.7430 C.ar  170  TRP170      0.0001
     59  CH2        4.2020  -33.9480   64.1970 C.ar  170  TRP170      0.0015
     60  N         10.2900  -23.0560   61.0970 N.3   199  ILE199     -0.1245
     61  CA         8.9360  -23.2760   60.6070 C.3   199  ILE199      0.1561
     62  C          8.5030  -22.1080   59.7470 C.2   199  ILE199      0.2260
     63  O          7.5680  -22.2210   58.9640 O.2   199  ILE199     -0.2867
     64  CB         7.9380  -23.4520   61.7740 C.3   199  ILE199      0.0252
     65  CG1        6.6880  -24.1740   61.2860 C.3   199  ILE199      0.0019
     66  CG2        7.5470  -22.0990   62.3480 C.3   199  ILE199      0.0019
     67  CD1        5.7020  -24.4880   62.3920 C.3   199  ILE199      0.0001
     68  N          9.2500  -22.4570   56.0600 N.3   202  ARG202     -0.1245
     69  CA         8.2560  -23.3380   55.4740 C.3   202  ARG202      0.1563
     70  C          6.9900  -22.5590   55.1390 C.2   202  ARG202      0.2260
     71  O          6.2590  -22.9130   54.2200 O.2   202  ARG202     -0.2867
     72  CB         7.9200  -24.4570   56.4480 C.3   202  ARG202      0.0307
     73  CG         7.1240  -25.5940   55.8320 C.3   202  ARG202      0.0489
     74  CD         6.1480  -26.1620   56.8430 C.3   202  ARG202      0.2205
     75  NE         4.9780  -25.2950   57.0130 N.pl3 202  ARG202     -0.0865
     76  CZ         4.1770  -25.3090   58.0780 C.cat 202  ARG202      0.5346
     77  NH1        4.4140  -26.1460   59.0840 N.pl3 202  ARG202      0.1354
     78  NH2        3.1380  -24.4830   58.1390 N.pl3 202  ARG202      0.1354
     79  N         -1.1110  -25.0940   53.0160 N.3   247  MET247     -0.1245
     80  CA        -0.7010  -26.2830   53.7700 C.3   247  MET247      0.1570
     81  C         -0.6100  -27.5220   52.8830 C.2   247  MET247      0.2261
     82  O          0.3260  -28.3150   53.0030 O.2   247  MET247     -0.2867
     83  CB        -1.6700  -26.5580   54.9300 C.3   247  MET247      0.0387
     84  CG        -1.5410  -25.5830   56.0870 C.3   247  MET247      0.0595
     85  SD         0.1360  -25.5290   56.7500 S.3   247  MET247     -0.1393
     86  CE         0.1360  -27.0200   57.7480 C.3   247  MET247      0.0692
     87  N          2.5590  -27.9670   51.4040 N.3   250  VAL250     -0.1231
     88  CA         3.5990  -28.3540   52.3160 C.3   250  VAL250      0.1692
     89  C          3.8110  -29.8310   52.4220 C.2   250  VAL250      0.2592
     90  O          4.9300  -30.3050   52.3760 O.2   250  VAL250     -0.2718
     91  CB         3.3020  -27.8950   53.7150 C.3   250  VAL250      0.0266
     92  CG1        2.7190  -29.0430   54.4950 C.3   250  VAL250      0.0020
     93  CG2        4.5560  -27.3960   54.3840 C.3   250  VAL250      0.0020
     94  N          2.7450  -30.5860   52.5860 N.am  251  ASP251     -0.1974
     95  CA         2.9770  -31.9920   52.7880 C.3   251  ASP251      0.1709
     96  C          3.6730  -32.5350   51.5720 C.2   251  ASP251      0.2293
     97  O          4.7100  -33.1650   51.6750 O.2   251  ASP251     -0.2864
     98  CB         1.6680  -32.7070   53.0650 C.3   251  ASP251      0.1436
     99  CG         0.7200  -31.8430   53.8350 C.2   251  ASP251      0.3671
    100  OD1        1.1320  -30.7580   54.2610 O.co2 251  ASP251     -0.2456
    101  OD2       -0.4310  -32.2310   54.0200 O.co2 251  ASP251     -0.2456
    102  N          7.1370  -30.1720   50.5350 N.3   254  ILE254     -0.1231
    103  CA         8.2610  -30.4130   51.3810 C.3   254  ILE254      0.1692
    104  C          8.0320  -31.6620   52.2320 C.2   254  ILE254      0.2592
    105  O          8.7340  -31.8970   53.2080 O.2   254  ILE254     -0.2718
    106  CB         8.5510  -29.1640   52.2290 C.3   254  ILE254      0.0266
    107  CG1        7.6080  -28.0310   51.8330 C.3   254  ILE254      0.0019
    108  CG2        9.9560  -28.6760   51.9470 C.3   254  ILE254      0.0020
    109  CD1        8.2980  -26.8800   51.2050 C.3   254  ILE254      0.0001
    110  N          7.0500  -32.4740   51.8620 N.am  255  GLY255     -0.1957
    111  CA         6.8330  -33.6960   52.6120 C.3   255  GLY255      0.1869
    112  C          7.1630  -34.9040   51.7650 C.2   255  GLY255      0.2309
    113  O          7.5110  -35.9660   52.2750 O.2   255  GLY255     -0.2863
    114  N         11.2540  -36.5940   52.0000 N.3   258  GLU258     -0.1231
    115  CA        11.9310  -37.3590   53.0440 C.3   258  GLU258      0.1699
    116  C         11.5700  -38.8280   53.1200 C.2   258  GLU258      0.2592
    117  O         12.4480  -39.6990   53.1160 O.2   258  GLU258     -0.2718
    118  CB        11.6700  -36.6790   54.3920 C.3   258  GLU258      0.0402
    119  CG        12.9140  -36.2030   55.1390 C.3   258  GLU258      0.1161
    120  CD        13.6360  -37.3130   55.8740 C.2   258  GLU258      0.3649
    121  OE1       14.7190  -37.0580   56.4520 O.co2 258  GLU258     -0.2457
    122  OE2       13.1190  -38.4430   55.8770 O.co2 258  GLU258     -0.2457
    123  N         10.2690  -39.0920   53.1840 N.am  259  THR259     -0.1953
    124  CA         9.7450  -40.4520   53.2620 C.3   259  THR259      0.1897
    125  C         10.2220  -41.3750   52.1620 C.2   259  THR259      0.2313
    126  O         10.8420  -42.3910   52.4360 O.2   259  THR259     -0.2863
    127  CB         8.2240  -40.4550   53.2490 C.3   259  THR259      0.1794
    128  OG1        7.7390  -39.5970   52.2110 O.3   259  THR259     -0.2208
    129  CG2        7.7550  -40.0070   54.5290 C.3   259  THR259      0.0378
    130  N          7.6420  -45.0660   57.5710 N.3   323  VAL323     -0.1245
    131  CA         6.8970  -44.5670   58.7170 C.3   323  VAL323      0.1561
    132  C          6.4100  -45.8350   59.3510 C.2   323  VAL323      0.2260
    133  O          5.6690  -46.6040   58.7590 O.2   323  VAL323     -0.2867
    134  CB         5.7170  -43.7170   58.3360 C.3   323  VAL323      0.0252
    135  CG1        4.8580  -43.4670   59.5520 C.3   323  VAL323      0.0019
    136  CG2        6.2140  -42.4020   57.7970 C.3   323  VAL323      0.0019
    137  N          0.9680  -42.5060   62.0640 N.3   327  LEU327     -0.1245
    138  CA         0.5450  -41.3570   62.8440 C.3   327  LEU327      0.1561
    139  C         -0.5270  -41.7840   63.8560 C.2   327  LEU327      0.2260
    140  O         -1.2640  -42.7450   63.6180 O.2   327  LEU327     -0.2867
    141  CB        -0.0110  -40.2750   61.9210 C.3   327  LEU327      0.0270
    142  CG         0.9850  -39.2860   61.3260 C.3   327  LEU327      0.0019
    143  CD1        1.6190  -38.4890   62.4560 C.3   327  LEU327      0.0001
    144  CD2        2.0260  -40.0250   60.5240 C.3   327  LEU327      0.0001
    145  N          9.7410  -39.6710   63.9120 N.3   430  GLY430     -0.1210
    146  CA         8.5090  -39.7620   63.1580 C.3   430  GLY430      0.1956
    147  C          8.6280  -40.7310   62.0160 C.2   430  GLY430      0.2611
    148  O          7.7260  -41.5170   61.7740 O.2   430  GLY430     -0.2717
    149  N          9.7500  -40.6720   61.3150 N.am  431  VAL431     -0.1979
    150  CA         9.9990  -41.5570   60.1850 C.3   431  VAL431      0.1595
    151  C         11.2500  -42.3770   60.4740 C.2   431  VAL431      0.2287
    152  O         12.2700  -41.8420   60.9120 O.2   431  VAL431     -0.2864
    153  CB        10.2320  -40.7720   58.9130 C.3   431  VAL431      0.0276
    154  CG1       10.2870  -41.7050   57.7530 C.3   431  VAL431      0.0022
    155  CG2        9.1420  -39.7550   58.7260 C.3   431  VAL431      0.0022
@<TRIPOS>BOND
     1   102   103    1
     2   109   107    1
     3   103   106    1
     4   103   104    1
     5    87    88    1
     6    96    97    2
     7    96    95    1
     8   112   113    2
     9   112   111    1
    10   107   106    1
    11   110   104   am
    12   110   111    1
    13   108   106    1
    14   114   115    1
    15   125   126    2
    16   125   124    1
    17   128   127    1
    18   104   105    2
    19    88    89    1
    20    88    91    1
    21    90    89    2
    22    89    94   am
    23    94    95    1
    24    95    98    1
    25    81    82    2
    26    81    80    1
    27    79    80    1
    28   115   116    1
    29   115   118    1
    30    98    99    1
    31   117   116    2
    32   116   123   am
    33   123   124    1
    34   127   124    1
    35   127   129    1
    36    91    93    1
    37    91    92    1
    38    80    83    1
    39    99   101   ar
    40    99   100   ar
    41    71    70    2
    42   118   119    1
    43    83    84    1
    44    70    69    1
    45   119   120    1
    46    69    68    1
    47    69    72    1
    48    73    72    1
    49    73    74    1
    50   120   122   ar
    51   120   121   ar
    52    84    85    1
    53     9    10    1
    54     9    12    1
    55     9     8    1
    56    10    11    2
    57    12    13    1
    58    85    86    1
    59    74    75    1
    60    75    76    2
    61    16    17    1
    62    15    13   ar
    63   130   131    1
    64   154   153    1
    65    13    14   ar
    66   136   134    1
    67    45    44    1
    68    76    78    1
    69    76    77    1
    70    37    35    1
    71    20    21    1
    72    20    17    1
    73   134   131    1
    74   134   135    1
    75    36    35    1
    76    17    18    1
    77    34    35    1
    78    34    31    1
    79    43    44    1
    80    43    42    1
    81   131   132    1
    82   155   153    1
    83   133   132    2
    84   153   150    1
    85    63    62    2
    86    30    31    1
    87    31    32    1
    88    62    61    1
    89    18    22   am
    90    18    19    2
    91    42    39    1
    92   150   151    1
    93   150   149    1
    94    22    23    1
    95    32    38   am
    96    32    33    2
    97    38    39    1
    98   151   152    2
    99   144   142    1
   100    61    60    1
   101    61    64    1
   102    28    27    1
   103    39    40    1
   104     4     3    2
   105    65    64    1
   106    65    67    1
   107    27    26    1
   108    27    29    1
   109   149   147   am
   110     7     5    1
   111   142   141    1
   112   142   143    1
   113    23    26    1
   114    23    24    1
   115   148   147    2
   116    64    66    1
   117    24    25    2
   118   141   138    1
   119   147   146    1
   120   137   138    1
   121     3     2    1
   122     5     2    1
   123     5     6    1
   124    40    41    2
   125   138   139    1
   126     2     1    1
   127   146   145    1
   128   140   139    2
   129    58    56   ar
   130    58    59   ar
   131    56    53   ar
   132    50    51    1
   133    50    47    1
   134    59    57   ar
   135    53    51   ar
   136    53    55   ar
   137    51    52   ar
   138    57    55   ar
   139    55    54   ar
   140    46    47    1
   141    52    54   ar
   142    47    48    1
   143    48    49    2
