@<TRIPOS>MOLECULE
tmp/3qz4B01.pdb
 142 135 0 0 0
SMALL
GASTEIGER

@<TRIPOS>ATOM
      1  N         36.9420   -6.6080   62.7340 N.3    12  ASP12      -0.1239
      2  CA        36.7590   -5.1330   62.6800 C.3    12  ASP12       0.1674
      3  C         36.5320   -4.5080   64.0850 C.2    12  ASP12       0.2266
      4  O         35.5180   -3.8190   64.3200 O.2    12  ASP12      -0.2867
      5  CB        35.5180   -4.8420   61.7970 C.3    12  ASP12       0.1410
      6  CG        35.4010   -5.6800   60.5360 C.2    12  ASP12       0.3668
      7  OD1       36.4310   -5.8680   59.8430 O.co2  12  ASP12      -0.2456
      8  OD2       34.2590   -6.0640   60.1820 O.co2  12  ASP12      -0.2456
      9  N         32.7440   -6.7570   64.6910 N.3    29  THR29      -0.1218
     10  CA        31.7720   -7.3950   63.7920 C.3    29  THR29       0.1862
     11  C         31.5890   -8.8520   64.2940 C.2    29  THR29       0.2287
     12  O         32.5960   -9.4930   64.6300 O.2    29  THR29      -0.2866
     13  CB        32.3120   -7.4060   62.3560 C.3    29  THR29       0.1770
     14  OG1       32.4090   -6.0700   61.8400 O.3    29  THR29      -0.2211
     15  CG2       31.4480   -8.2910   61.3990 C.3    29  THR29       0.0375
     16  N         29.5510  -12.3210   55.2670 N.3    36  TRP36      -0.1241
     17  CA        29.5040  -11.3920   56.4070 C.3    36  TRP36       0.1605
     18  C         28.0640  -11.0950   56.7890 C.2    36  TRP36       0.2264
     19  O         27.6760   -9.9360   56.9350 O.2    36  TRP36      -0.2867
     20  CB        30.2710  -10.1090   56.0740 C.3    36  TRP36       0.0550
     21  CG        31.6320  -10.4150   55.5480 C.ar   36  TRP36       0.0003
     22  CD1       32.7200  -10.8130   56.2720 C.ar   36  TRP36       0.0946
     23  CD2       32.0390  -10.4100   54.1700 C.ar   36  TRP36       0.0152
     24  NE1       33.7970  -10.9890   55.4360 N.ar   36  TRP36      -0.2442
     25  CE2       33.3840  -10.8460   54.1340 C.ar   36  TRP36       0.0810
     26  CE3       31.3740  -10.1350   52.9510 C.ar   36  TRP36       0.0012
     27  CZ2       34.1140  -10.9090   52.9360 C.ar   36  TRP36       0.0191
     28  CZ3       32.0830  -10.2370   51.7680 C.ar   36  TRP36       0.0001
     29  CH2       33.4390  -10.6120   51.7660 C.ar   36  TRP36       0.0015
     30  N         28.1190   -4.2720   60.4800 N.3    72  TRP72      -0.1241
     31  CA        29.5830   -4.3000   60.4680 C.3    72  TRP72       0.1605
     32  C         30.2790   -3.1260   61.1490 C.2    72  TRP72       0.2264
     33  O         29.7970   -1.9900   61.1310 O.2    72  TRP72      -0.2867
     34  CB        30.0970   -4.2860   59.0050 C.3    72  TRP72       0.0550
     35  CG        29.6120   -5.3770   58.0830 C.ar   72  TRP72       0.0003
     36  CD1       29.1010   -6.5920   58.4370 C.ar   72  TRP72       0.0946
     37  CD2       29.6230   -5.3480   56.6420 C.ar   72  TRP72       0.0152
     38  NE1       28.7520   -7.3050   57.3150 N.ar   72  TRP72      -0.2442
     39  CE2       29.0940   -6.5810   56.1960 C.ar   72  TRP72       0.0810
     40  CE3       30.1270   -4.4410   55.6840 C.ar   72  TRP72       0.0012
     41  CZ2       29.0050   -6.9130   54.8380 C.ar   72  TRP72       0.0191
     42  CZ3       29.9800   -4.7450   54.3300 C.ar   72  TRP72       0.0001
     43  CH2       29.4580   -5.9820   53.9210 C.ar   72  TRP72       0.0015
     44  N         25.0390   -0.3720   51.4010 N.3   101  LYS101     -0.1245
     45  CA        25.2450   -0.1790   52.8380 C.3   101  LYS101      0.1561
     46  C         25.1960    1.3000   53.2210 C.2   101  LYS101      0.2260
     47  O         25.5530    2.1770   52.4110 O.2   101  LYS101     -0.2867
     48  CB        26.5640   -0.7890   53.3350 C.3   101  LYS101      0.0271
     49  CG        26.8090   -2.2610   52.9280 C.3   101  LYS101      0.0035
     50  CD        25.6950   -3.2290   53.3430 C.3   101  LYS101      0.0206
     51  CE        26.1450   -4.6740   53.1860 C.3   101  LYS101      0.1093
     52  NZ        26.3940   -4.9930   51.7480 N.3   101  LYS101     -0.1314
     53  N         31.8930    2.4800   49.0170 N.3   132  GLN132     -0.1245
     54  CA        30.7610    2.1220   49.8730 C.3   132  GLN132      0.1566
     55  C         30.7720    2.8710   51.1750 C.2   132  GLN132      0.2260
     56  O         31.8490    3.2170   51.6890 O.2   132  GLN132     -0.2867
     57  CB        30.7890    0.6110   50.1660 C.3   132  GLN132      0.0367
     58  CG        30.5720   -0.2440   48.9160 C.3   132  GLN132      0.0905
     59  CD        30.5240   -1.6880   49.3160 C.2   132  GLN132      0.2608
     60  OE1       31.4650   -2.4540   49.0870 O.2   132  GLN132     -0.2717
     61  NE2       29.4410   -2.0560   49.9750 N.am  132  GLN132     -0.0878
     62  N         30.7090    2.4140   54.4610 N.3   134  ILE134     -0.1231
     63  CA        31.0000    1.4590   55.5400 C.3   134  ILE134      0.1692
     64  C         32.2940    1.8490   56.2280 C.2   134  ILE134      0.2592
     65  O         32.9800    2.7400   55.7430 O.2   134  ILE134     -0.2718
     66  CB        31.0970   -0.0130   54.9860 C.3   134  ILE134      0.0266
     67  CG1       32.3390   -0.1680   54.0700 C.3   134  ILE134      0.0019
     68  CG2       29.8150   -0.4570   54.2480 C.3   134  ILE134      0.0020
     69  CD1       32.6500   -1.6730   53.6480 C.3   134  ILE134      0.0001
     70  N         32.6300    1.1970   57.3750 N.am  135  ASP135     -0.1974
     71  CA        33.8790    1.3740   58.1220 C.3   135  ASP135      0.1709
     72  C         33.9650    2.7530   58.7450 C.2   135  ASP135      0.2293
     73  O         34.9760    3.4410   58.6400 O.2   135  ASP135     -0.2864
     74  CB        35.1020    1.0850   57.2480 C.3   135  ASP135      0.1436
     75  CG        35.3160   -0.4100   57.0530 C.2   135  ASP135      0.3671
     76  OD1       34.6200   -1.2030   57.7190 O.co2 135  ASP135     -0.2456
     77  OD2       36.2030   -0.7780   56.2780 O.co2 135  ASP135     -0.2456
     78  N         34.9690    2.6900   52.1150 N.3   153  ASN153     -0.1240
     79  CA        35.6430    1.6210   51.4120 C.3   153  ASN153      0.1653
     80  C         35.8350    2.1560   50.0010 C.2   153  ASN153      0.2266
     81  O         34.8720    2.6910   49.4240 O.2   153  ASN153     -0.2867
     82  CB        34.8720    0.3070   51.4690 C.3   153  ASN153      0.1155
     83  CG        35.3020   -0.6950   50.4180 C.2   153  ASN153      0.2627
     84  OD1       35.0940   -0.4940   49.2210 O.2   153  ASN153     -0.2716
     85  ND2       35.8640   -1.8260   50.8310 N.am  153  ASN153     -0.0877
     86  N         40.1360    0.4420   52.9450 N.3   188  GLU188     -0.1245
     87  CA        39.0460    0.7210   53.8810 C.3   188  GLU188      0.1567
     88  C         39.5620    0.8900   55.2950 C.2   188  GLU188      0.2260
     89  O         40.7650    1.0180   55.5030 O.2   188  GLU188     -0.2867
     90  CB        38.0560   -0.4790   53.8380 C.3   188  GLU188      0.0388
     91  CG        38.6770   -1.8010   54.3320 C.3   188  GLU188      0.1160
     92  CD        38.0040   -3.0810   53.8580 C.2   188  GLU188      0.3649
     93  OE1       37.1400   -3.0320   52.9560 O.co2 188  GLU188     -0.2457
     94  OE2       38.3390   -4.1450   54.4160 O.co2 188  GLU188     -0.2457
     95  N         42.4860   -6.9830   50.6100 N.3   207  ASP207     -0.1225
     96  CA        41.2290   -7.6150   50.9860 C.3   207  ASP207      0.1805
     97  C         41.3530   -8.3660   52.3200 C.2   207  ASP207      0.2598
     98  O         42.3930   -8.9700   52.5690 O.2   207  ASP207     -0.2718
     99  CB        40.8150   -8.5920   49.8590 C.3   207  ASP207      0.1424
    100  CG        39.4810   -9.2260   50.1120 C.2   207  ASP207      0.3668
    101  OD1       38.4670   -8.5120   50.0130 O.co2 207  ASP207     -0.2456
    102  OD2       39.4600  -10.3660   50.5970 O.co2 207  ASP207     -0.2456
    103  N         40.2730   -8.3870   53.1350 N.am  208  THR208     -0.1953
    104  CA        40.2830   -9.0730   54.4300 C.3   208  THR208      0.1897
    105  C         40.4960  -10.6200   54.3510 C.2   208  THR208      0.2313
    106  O         40.9210  -11.2110   55.3650 O.2   208  THR208     -0.2863
    107  CB        39.0590   -8.6970   55.2910 C.3   208  THR208      0.1794
    108  OG1       39.3120   -9.1690   56.6170 O.3   208  THR208     -0.2208
    109  CG2       37.7550   -9.2590   54.7750 C.3   208  THR208      0.0378
    110  N         46.3290   -8.6030   53.9560 N.3   213  TYR213     -0.1241
    111  CA        45.5030   -7.5710   54.5990 C.3   213  TYR213      0.1605
    112  C         46.3600   -6.9040   55.6710 C.2   213  TYR213      0.2264
    113  O         46.8770   -7.6080   56.5400 O.2   213  TYR213     -0.2867
    114  CB        44.2590   -8.2020   55.2330 C.3   213  TYR213      0.0534
    115  CG        43.1530   -7.2280   55.5770 C.ar  213  TYR213     -0.0201
    116  CD1       42.6550   -6.3370   54.6220 C.ar  213  TYR213     -0.0009
    117  CD2       42.5150   -7.2790   56.8190 C.ar  213  TYR213     -0.0009
    118  CE1       41.5590   -5.5200   54.8960 C.ar  213  TYR213      0.0417
    119  CE2       41.4140   -6.4700   57.1010 C.ar  213  TYR213      0.0417
    120  CZ        40.9360   -5.5990   56.1320 C.ar  213  TYR213      0.1957
    121  OH        39.8410   -4.8190   56.4010 O.3   213  TYR213     -0.2866
    122  N         42.2780   -4.0310   59.8250 N.3   249  HIS249     -0.1241
    123  CA        41.0390   -3.3910   60.2620 C.3   249  HIS249      0.1621
    124  C         41.1720   -3.0250   61.7690 C.2   249  HIS249      0.2264
    125  O         40.5240   -3.6000   62.6520 O.2   249  HIS249     -0.2867
    126  CB        39.7590   -4.1830   59.9570 C.3   249  HIS249      0.0745
    127  CG        38.5660   -3.2710   60.1130 C.ar  249  HIS249      0.0817
    128  ND1       37.6450   -3.0990   59.1030 N.ar  249  HIS249     -0.2268
    129  CD2       38.2920   -2.3940   61.1070 C.ar  249  HIS249      0.1154
    130  CE1       36.7770   -2.2130   59.5610 C.ar  249  HIS249      0.1986
    131  NE2       37.1370   -1.7490   60.7630 N.ar  249  HIS249     -0.2212
    132  N         37.6880  -14.7750   61.1450 N.3   281  ARG281     -0.1245
    133  CA        38.7490  -13.9250   61.6810 C.3   281  ARG281      0.1563
    134  C         38.6470  -13.8770   63.1880 C.2   281  ARG281      0.2260
    135  O         37.6390  -14.2960   63.7570 O.2   281  ARG281     -0.2867
    136  CB        38.6700  -12.5260   61.0310 C.3   281  ARG281      0.0307
    137  CG        38.9790  -12.6400   59.5210 C.3   281  ARG281      0.0489
    138  CD        38.4140  -11.4970   58.7220 C.3   281  ARG281      0.2205
    139  NE        36.9680  -11.3770   58.8850 N.pl3 281  ARG281     -0.0865
    140  CZ        36.2720  -10.3140   58.5100 C.cat 281  ARG281      0.5346
    141  NH1       36.8880   -9.2610   57.9890 N.pl3 281  ARG281      0.1354
    142  NH2       34.9580  -10.2730   58.6990 N.pl3 281  ARG281      0.1354
@<TRIPOS>BOND
     1    58    59    1
     2    58    57    1
     3    53    54    1
     4    60    59    2
     5    84    83    2
     6    59    61   am
     7    81    80    2
     8    99   100    1
     9    99    96    1
    10    54    57    1
    11    54    55    1
    12    80    79    1
    13   101   100   ar
    14   100   102   ar
    15    83    85   am
    16    83    82    1
    17    95    96    1
    18    96    97    1
    19    55    56    2
    20    44    45    1
    21    79    82    1
    22    79    78    1
    23    52    51    1
    24    29    28   ar
    25    29    27   ar
    26    28    26   ar
    27    97    98    2
    28    97   103   am
    29    47    46    2
    30    45    46    1
    31    45    48    1
    32    49    48    1
    33    49    50    1
    34    27    25   ar
    35    86    87    1
    36    26    23   ar
    37    93    92   ar
    38   103   104    1
    39    51    50    1
    40    69    67    1
    41    90    87    1
    42    90    91    1
    43    92    91    1
    44    92    94   ar
    45    87    88    1
    46    43    42   ar
    47    43    41   ar
    48   110   111    1
    49    67    66    1
    50    25    23   ar
    51    25    24   ar
    52    23    21   ar
    53    68    66    1
    54    42    40   ar
    55   105   104    1
    56   105   106    2
    57   104   107    1
    58    62    63    1
    59   111   114    1
    60   111   112    1
    61   116   118   ar
    62   116   115   ar
    63   109   107    1
    64    41    39   ar
    65   118   120   ar
    66    66    63    1
    67   114   115    1
    68    16    17    1
    69   107   108    1
    70    88    89    2
    71    24    22   ar
    72    63    64    1
    73    21    20    1
    74    21    22   ar
    75   115   117   ar
    76   112   113    2
    77    40    37   ar
    78    65    64    2
    79    20    17    1
    80   120   121    1
    81   120   119   ar
    82    39    37   ar
    83    39    38   ar
    84    64    70   am
    85    77    75   ar
    86    17    18    1
    87    37    35   ar
    88    18    19    2
    89   117   119   ar
    90    75    74    1
    91    75    76   ar
    92    74    71    1
    93    38    36   ar
    94    70    71    1
    95   141   140    1
    96    35    36   ar
    97    35    34    1
    98    71    72    1
    99   140   142    1
   100   140   139    2
   101    73    72    2
   102   138   139    1
   103   138   137    1
   104    34    31    1
   105   128   130   ar
   106   128   127   ar
   107   137   136    1
   108   130   131   ar
   109   122   123    1
   110     7     6   ar
   111   126   127    1
   112   126   123    1
   113   127   129   ar
   114     8     6   ar
   115   123   124    1
   116    31    30    1
   117    31    32    1
   118     6     5    1
   119   131   129   ar
   120   136   133    1
   121    33    32    2
   122   132   133    1
   123    15    13    1
   124   133   134    1
   125   124   125    2
   126     5     2    1
   127    14    13    1
   128    13    10    1
   129     2     1    1
   130     2     3    1
   131   134   135    2
   132    10    11    1
   133    10     9    1
   134     3     4    2
   135    11    12    2
