@<TRIPOS>MOLECULE
tmp/3qzfA00.pdb
 144 138 0 0 0
SMALL
GASTEIGER

@<TRIPOS>ATOM
      1  N         92.6990  121.3990  -41.5560 N.3    10  ILE10      -0.1231
      2  CA        91.6050  120.4990  -41.8910 C.3    10  ILE10       0.1692
      3  C         91.8300  119.0360  -41.5140 C.2    10  ILE10       0.2592
      4  O         91.1260  118.1490  -41.9980 O.2    10  ILE10      -0.2718
      5  CB        91.2750  120.6010  -43.3990 C.3    10  ILE10       0.0266
      6  CG1       92.5060  120.2640  -44.2390 C.3    10  ILE10       0.0019
      7  CG2       90.8220  122.0160  -43.7290 C.3    10  ILE10       0.0020
      8  CD1       92.2960  120.4280  -45.7280 C.3    10  ILE10       0.0001
      9  N         92.7990  118.7830  -40.6390 N.am   11  GLY11      -0.1957
     10  CA        93.0690  117.4160  -40.2320 C.3    11  GLY11       0.1869
     11  C         94.5290  117.1410  -39.9310 C.2    11  GLY11       0.2309
     12  O         95.3910  117.9930  -40.1440 O.2    11  GLY11      -0.2863
     13  N         97.4710  118.4560  -42.4040 N.3    18  VAL18      -0.1245
     14  CA        96.9110  119.0730  -43.5980 C.3    18  VAL18       0.1561
     15  C         96.2300  120.3810  -43.2830 C.2    18  VAL18       0.2260
     16  O         95.4340  120.4740  -42.3570 O.2    18  VAL18      -0.2867
     17  CB        95.9010  118.1420  -44.2640 C.3    18  VAL18       0.0252
     18  CG1       95.3420  118.7940  -45.5410 C.3    18  VAL18       0.0019
     19  CG2       96.5610  116.8150  -44.5700 C.3    18  VAL18       0.0019
     20  N         94.7420  122.4090  -50.6540 N.3    31  ALA31      -0.1245
     21  CA        95.0000  121.7220  -49.4000 C.3    31  ALA31       0.1562
     22  C         96.5190  121.5610  -49.3440 C.2    31  ALA31       0.2260
     23  O         97.1400  121.0340  -50.2680 O.2    31  ALA31      -0.2867
     24  CB        94.3120  120.3750  -49.3860 C.3    31  ALA31       0.0290
     25  N         99.6580  119.9220  -47.4510 N.3    33  LYS33      -0.1245
     26  CA       100.1260  118.9030  -46.5180 C.3    33  LYS33       0.1561
     27  C        101.6210  118.9950  -46.1830 C.2    33  LYS33       0.2260
     28  O        102.4680  118.8960  -47.0660 O.2    33  LYS33      -0.2867
     29  CB        99.8250  117.5080  -47.0730 C.3    33  LYS33       0.0271
     30  CG       100.2590  116.4030  -46.1430 C.3    33  LYS33       0.0035
     31  CD        99.7550  115.0430  -46.5850 C.3    33  LYS33       0.0206
     32  CE        99.9660  114.0240  -45.4660 C.3    33  LYS33       0.1093
     33  NZ        99.6350  112.6370  -45.8870 N.3    33  LYS33      -0.1314
     34  N         92.1590  112.6640  -55.6970 N.3    60  VAL60      -0.1245
     35  CA        92.4600  114.0480  -55.3380 C.3    60  VAL60       0.1561
     36  C         93.7210  114.4600  -56.1040 C.2    60  VAL60       0.2260
     37  O         94.7630  113.8200  -55.9790 O.2    60  VAL60      -0.2867
     38  CB        92.7090  114.1980  -53.8260 C.3    60  VAL60       0.0252
     39  CG1       93.1090  115.6470  -53.4970 C.3    60  VAL60       0.0019
     40  CG2       91.4360  113.7820  -53.0520 C.3    60  VAL60       0.0019
     41  N         97.5850  119.8410  -52.8140 N.3    76  PHE76      -0.1227
     42  CA        96.4690  119.0860  -53.3920 C.3    76  PHE76       0.1736
     43  C         95.2790  120.0120  -53.6560 C.2    76  PHE76       0.2595
     44  O         95.1920  121.0960  -53.0770 O.2    76  PHE76      -0.2718
     45  CB        96.0000  117.9920  -52.4030 C.3    76  PHE76       0.0547
     46  CG        96.9560  116.8240  -52.2530 C.ar   76  PHE76      -0.0202
     47  CD1       97.0210  115.8310  -53.2210 C.ar   76  PHE76      -0.0042
     48  CD2       97.7660  116.7120  -51.1260 C.ar   76  PHE76      -0.0042
     49  CE1       97.8720  114.7490  -53.0770 C.ar   76  PHE76      -0.0003
     50  CE2       98.6270  115.6240  -50.9700 C.ar   76  PHE76      -0.0003
     51  CZ        98.6800  114.6420  -51.9450 C.ar   76  PHE76      -0.0000
     52  N         94.3690  119.5750  -54.5270 N.am   77  GLU77      -0.1965
     53  CA        93.1480  120.3400  -54.7860 C.3    77  GLU77       0.1733
     54  C         92.3860  120.2250  -53.4730 C.2    77  GLU77       0.2616
     55  O         92.5460  119.2460  -52.7510 O.2    77  GLU77      -0.2715
     56  CB        92.3130  119.7060  -55.9040 C.3    77  GLU77       0.0429
     57  CG        91.9150  118.2640  -55.6570 C.3    77  GLU77       0.1163
     58  CD        90.8860  117.7410  -56.6660 C.2    77  GLU77       0.3649
     59  OE1       89.7490  118.2700  -56.7300 O.co2  77  GLU77      -0.2457
     60  OE2       91.2090  116.7930  -57.3930 O.co2  77  GLU77      -0.2457
     61  N         91.5630  121.2080  -53.1630 N.am   78  PHE78      -0.1960
     62  CA        90.8070  121.1860  -51.9210 C.3    78  PHE78       0.1771
     63  C         89.3700  120.7100  -52.1030 C.2    78  PHE78       0.2619
     64  O         88.6910  121.1620  -53.0190 O.2    78  PHE78      -0.2715
     65  CB        90.8090  122.5900  -51.3150 C.3    78  PHE78       0.0574
     66  CG        89.8940  122.7580  -50.1440 C.ar   78  PHE78      -0.0200
     67  CD1       88.6250  123.2910  -50.3120 C.ar   78  PHE78      -0.0042
     68  CD2       90.3070  122.3910  -48.8580 C.ar   78  PHE78      -0.0042
     69  CE1       87.7810  123.4570  -49.2290 C.ar   78  PHE78      -0.0003
     70  CE2       89.4680  122.5530  -47.7710 C.ar   78  PHE78      -0.0003
     71  CZ        88.2000  123.0850  -47.9440 C.ar   78  PHE78      -0.0000
     72  N         88.9400  119.7710  -51.2530 N.am   79  LEU79      -0.1963
     73  CA        87.5530  119.2860  -51.2420 C.3    79  LEU79       0.1728
     74  C         87.0760  119.6780  -49.8430 C.2    79  LEU79       0.2616
     75  O         87.8620  119.6420  -48.8880 O.2    79  LEU79      -0.2715
     76  CB        87.4480  117.7670  -51.4880 C.3    79  LEU79       0.0311
     77  CG        87.6150  117.3780  -52.9800 C.3    79  LEU79       0.0022
     78  CD1       89.0380  116.9680  -53.2180 C.3    79  LEU79       0.0001
     79  CD2       86.6930  116.2280  -53.4010 C.3    79  LEU79       0.0001
     80  N         85.8100  120.0650  -49.7160 N.am   80  HIS80      -0.1959
     81  CA        85.2760  120.5320  -48.4340 C.3    80  HIS80       0.1787
     82  C         84.9670  119.5540  -47.3030 C.2    80  HIS80       0.2620
     83  O         84.8700  119.9770  -46.1480 O.2    80  HIS80      -0.2715
     84  CB        84.0250  121.3890  -48.6670 C.3    80  HIS80       0.0785
     85  CG        84.3000  122.6910  -49.3560 C.ar   80  HIS80       0.0821
     86  ND1       84.6310  122.7730  -50.6960 N.ar   80  HIS80      -0.2267
     87  CD2       84.3110  123.9610  -48.8850 C.ar   80  HIS80       0.1154
     88  CE1       84.8360  124.0400  -51.0180 C.ar   80  HIS80       0.1986
     89  NE2       84.6480  124.7800  -49.9380 N.ar   80  HIS80      -0.2212
     90  N         84.8160  118.2670  -47.5950 N.am   81  GLN81      -0.1963
     91  CA        84.4930  117.3380  -46.5230 C.3    81  GLN81       0.1733
     92  C         84.9550  115.9090  -46.7930 C.2    81  GLN81       0.2616
     93  O         84.9770  115.4700  -47.9370 O.2    81  GLN81      -0.2715
     94  CB        82.9790  117.3720  -46.2840 C.3    81  GLN81       0.0408
     95  CG        82.5070  116.6720  -45.0260 C.3    81  GLN81       0.0908
     96  CD        81.0750  117.0310  -44.6690 C.2    81  GLN81       0.2608
     97  OE1       80.7750  118.1870  -44.3560 O.2    81  GLN81      -0.2717
     98  NE2       80.1800  116.0490  -44.7250 N.am   81  GLN81      -0.0878
     99  N         85.3420  115.2000  -45.7280 N.am   82  ASP82      -0.1971
    100  CA        85.7670  113.8060  -45.8450 C.3    82  ASP82       0.1709
    101  C         84.5970  112.8860  -45.4560 C.2    82  ASP82       0.2293
    102  O         83.6430  113.3230  -44.7950 O.2    82  ASP82      -0.2864
    103  CB        87.0140  113.5150  -44.9840 C.3    82  ASP82       0.1436
    104  CG        86.7650  113.6630  -43.4830 C.2    82  ASP82       0.3671
    105  OD1       85.8730  113.0020  -42.9350 O.co2  82  ASP82      -0.2456
    106  OD2       87.4910  114.4350  -42.8410 O.co2  82  ASP82      -0.2456
    107  N         88.5480  108.8410  -43.5650 N.3   127  GLN127     -0.1231
    108  CA        89.1830  110.1540  -43.3960 C.3   127  GLN127      0.1698
    109  C         89.9060  110.7010  -44.6140 C.2   127  GLN127      0.2592
    110  O         90.1190  111.9160  -44.7120 O.2   127  GLN127     -0.2718
    111  CB        90.1430  110.1400  -42.1880 C.3   127  GLN127      0.0381
    112  CG        90.6100  111.5280  -41.7590 C.3   127  GLN127      0.0905
    113  CD        91.5540  111.4990  -40.5740 C.2   127  GLN127      0.2608
    114  OE1       91.2600  110.8890  -39.5470 O.2   127  GLN127     -0.2717
    115  NE2       92.6930  112.1680  -40.7070 N.am  127  GLN127     -0.0878
    116  N         90.2850  109.8350  -45.5470 N.am  128  ASN128     -0.1974
    117  CA        90.9570  110.3250  -46.7420 C.3   128  ASN128      0.1688
    118  C         90.1780  110.0620  -48.0280 C.2   128  ASN128      0.2292
    119  O         90.7420  109.9070  -49.1150 O.2   128  ASN128     -0.2864
    120  CB        92.4030  109.8100  -46.8550 C.3   128  ASN128      0.1181
    121  CG        92.5100  108.3150  -46.8490 C.2   128  ASN128      0.2629
    122  OD1       91.6320  107.6170  -47.3400 O.2   128  ASN128     -0.2716
    123  ND2       93.6220  107.8080  -46.3060 N.am  128  ASN128     -0.0877
    124  N         87.3660  111.9820  -49.9830 N.3   130  LEU130     -0.1245
    125  CA        86.7950  113.3110  -49.9820 C.3   130  LEU130      0.1561
    126  C         85.6330  113.4590  -50.9450 C.2   130  LEU130      0.2260
    127  O         85.6590  112.9320  -52.0510 O.2   130  LEU130     -0.2867
    128  CB        87.8850  114.3270  -50.3330 C.3   130  LEU130      0.0270
    129  CG        89.1910  114.2330  -49.5440 C.3   130  LEU130      0.0019
    130  CD1       90.0730  115.3190  -50.0190 C.3   130  LEU130      0.0001
    131  CD2       88.9640  114.3690  -48.0430 C.3   130  LEU130      0.0001
    132  N         92.2930  110.3020  -51.4310 N.3   140  ALA140     -0.1231
    133  CA        93.3830  111.2090  -51.0610 C.3   140  ALA140      0.1694
    134  C         94.5280  110.3570  -50.4910 C.2   140  ALA140      0.2592
    135  O         94.2930  109.2340  -50.0370 O.2   140  ALA140     -0.2718
    136  CB        92.8940  112.2350  -50.0110 C.3   140  ALA140      0.0304
    137  N         95.7480  110.8910  -50.5490 N.am  141  ASP141     -0.1974
    138  CA        96.9730  110.2410  -50.0500 C.3   141  ASP141      0.1709
    139  C         97.4070  108.9870  -50.7850 C.2   141  ASP141      0.2293
    140  O         98.0480  108.1030  -50.2140 O.2   141  ASP141     -0.2864
    141  CB        96.8550  109.9260  -48.5630 C.3   141  ASP141      0.1436
    142  CG        96.7290  111.1710  -47.7250 C.2   141  ASP141      0.3671
    143  OD1       97.4190  112.1590  -48.0380 O.co2 141  ASP141     -0.2456
    144  OD2       95.9470  111.1730  -46.7470 O.co2 141  ASP141     -0.2456
@<TRIPOS>BOND
     1    60    58   ar
     2    59    58   ar
     3    58    57    1
     4    36    37    2
     5    36    35    1
     6    56    57    1
     7    56    53    1
     8    34    35    1
     9    35    38    1
    10    53    52    1
    11    53    54    1
    12    52    43   am
    13    38    39    1
    14    38    40    1
    15    43    42    1
    16    43    44    2
    17    54    61   am
    18    54    55    2
    19    79    77    1
    20    42    41    1
    21    42    45    1
    22    47    49   ar
    23    47    46   ar
    24    78    77    1
    25    61    62    1
    26    49    51   ar
    27    64    63    2
    28    77    76    1
    29    45    46    1
    30    46    48   ar
    31    63    62    1
    32    63    72   am
    33   127   126    2
    34    51    50   ar
    35    62    65    1
    36    76    73    1
    37   132   133    1
    38    65    66    1
    39    72    73    1
    40    73    74    1
    41    48    50   ar
    42   133   134    1
    43   133   136    1
    44    88    86   ar
    45    88    89   ar
    46   126   125    1
    47   139   140    2
    48   139   138    1
    49    86    85   ar
    50    20    21    1
    51   137   134   am
    52   137   138    1
    53   134   135    2
    54   128   125    1
    55   128   129    1
    56    67    66   ar
    57    67    69   ar
    58    23    22    2
    59    66    68   ar
    60   138   141    1
    61   130   129    1
    62   124   125    1
    63    89    87   ar
    64    74    80   am
    65    74    75    2
    66    80    81    1
    67   129   131    1
    68    21    24    1
    69    21    22    1
    70    85    87   ar
    71    85    84    1
    72    69    71   ar
    73   119   118    2
    74    68    70   ar
    75    84    81    1
    76   141   142    1
    77    81    82    1
    78   143   142   ar
    79   118   117    1
    80    71    70   ar
    81    93    92    2
    82   142   144   ar
    83    90    82   am
    84    90    91    1
    85    25    26    1
    86   122   121    2
    87    82    83    2
    88    29    26    1
    89    29    30    1
    90    28    27    2
    91   120   121    1
    92   120   117    1
    93   121   123   am
    94    92    91    1
    95    92    99   am
    96   117   116    1
    97    31    30    1
    98    31    32    1
    99    91    94    1
   100    26    27    1
   101    94    95    1
   102    33    32    1
   103   100    99    1
   104   100   101    1
   105   100   103    1
   106     8     6    1
   107   116   109   am
   108    18    17    1
   109   101   102    2
   110    95    96    1
   111   103   104    1
   112    98    96   am
   113   110   109    2
   114    96    97    2
   115   109   108    1
   116    19    17    1
   117    17    14    1
   118     6     5    1
   119     7     5    1
   120    14    15    1
   121    14    13    1
   122   107   108    1
   123   104   105   ar
   124   104   106   ar
   125     5     2    1
   126   108   111    1
   127    15    16    2
   128   111   112    1
   129     4     3    2
   130     2     1    1
   131     2     3    1
   132   112   113    1
   133     3     9   am
   134   115   113   am
   135     9    10    1
   136   113   114    2
   137    10    11    1
   138    12    11    2
