@<TRIPOS>MOLECULE
tmp/3qzgA00.pdb
 136 130 0 0 0
SMALL
GASTEIGER

@<TRIPOS>ATOM
      1  N         67.6390  121.0620  -79.6100 N.3    10  ILE10      -0.1231
      2  CA        66.6460  120.1040  -80.0670 C.3    10  ILE10       0.1692
      3  C         66.5190  118.8720  -79.1750 C.2    10  ILE10       0.2592
      4  O         65.4390  118.5750  -78.6690 O.2    10  ILE10      -0.2718
      5  CB        66.9560  119.6620  -81.5150 C.3    10  ILE10       0.0266
      6  CG1       66.3690  120.6690  -82.5030 C.3    10  ILE10       0.0019
      7  CG2       66.4260  118.2800  -81.7670 C.3    10  ILE10       0.0020
      8  CD1       66.5320  120.2650  -83.9510 C.3    10  ILE10       0.0001
      9  N         67.6200  118.1520  -78.9950 N.am   11  GLY11      -0.1957
     10  CA        67.5880  116.9580  -78.1730 C.3    11  GLY11       0.1869
     11  C         68.9570  116.3270  -78.0330 C.2    11  GLY11       0.2309
     12  O         69.9740  116.9750  -78.2820 O.2    11  GLY11      -0.2863
     13  N         71.6680  117.5820  -80.5660 N.3    18  VAL18      -0.1245
     14  CA        71.0990  118.1670  -81.7730 C.3    18  VAL18       0.1561
     15  C         70.5110  119.5430  -81.4910 C.2    18  VAL18       0.2260
     16  O         69.8210  119.7440  -80.4960 O.2    18  VAL18      -0.2867
     17  CB        70.0060  117.2640  -82.3640 C.3    18  VAL18       0.0252
     18  CG1       69.4940  117.8600  -83.6700 C.3    18  VAL18       0.0019
     19  CG2       70.5630  115.8620  -82.6010 C.3    18  VAL18       0.0019
     20  N         68.9220  121.3900  -88.6980 N.3    31  ALA31      -0.1245
     21  CA        69.1630  120.6700  -87.4580 C.3    31  ALA31       0.1562
     22  C         70.6640  120.4740  -87.4860 C.2    31  ALA31       0.2260
     23  O         71.2080  120.0040  -88.4810 O.2    31  ALA31      -0.2867
     24  CB        68.4860  119.3450  -87.4740 C.3    31  ALA31       0.0290
     25  N         73.8530  118.7080  -85.5750 N.3    33  LYS33      -0.1245
     26  CA        74.2720  117.7150  -84.6060 C.3    33  LYS33       0.1561
     27  C         75.7680  117.8800  -84.3570 C.2    33  LYS33       0.2260
     28  O         76.5560  117.9960  -85.2990 O.2    33  LYS33      -0.2867
     29  CB        73.9710  116.3100  -85.1330 C.3    33  LYS33       0.0271
     30  CG        74.2970  115.1950  -84.1470 C.3    33  LYS33       0.0035
     31  CD        74.0550  113.8300  -84.7570 C.3    33  LYS33       0.0206
     32  CE        74.4000  112.7220  -83.7650 C.3    33  LYS33       0.1093
     33  NZ        74.2990  111.3700  -84.3820 N.3    33  LYS33      -0.1314
     34  N         65.9750  111.7680  -93.9240 N.3    60  VAL60      -0.1245
     35  CA        66.3120  113.1670  -93.6230 C.3    60  VAL60       0.1561
     36  C         67.6000  113.5100  -94.3930 C.2    60  VAL60       0.2260
     37  O         68.6190  112.8310  -94.2650 O.2    60  VAL60      -0.2867
     38  CB        66.5090  113.3750  -92.1080 C.3    60  VAL60       0.0252
     39  CG1       66.9780  114.8020  -91.8270 C.3    60  VAL60       0.0019
     40  CG2       65.1880  113.1200  -91.3830 C.3    60  VAL60       0.0019
     41  N         71.6380  118.8250  -91.0350 N.3    76  PHE76      -0.1227
     42  CA        70.5170  118.1150  -91.6390 C.3    76  PHE76       0.1736
     43  C         69.3680  119.0610  -91.9280 C.2    76  PHE76       0.2595
     44  O         69.2210  120.0870  -91.2690 O.2    76  PHE76      -0.2718
     45  CB        69.9360  117.0950  -90.6610 C.3    76  PHE76       0.0547
     46  CG        70.8520  115.9720  -90.3200 C.ar   76  PHE76      -0.0202
     47  CD1       70.8890  114.8330  -91.1110 C.ar   76  PHE76      -0.0042
     48  CD2       71.6340  116.0330  -89.1740 C.ar   76  PHE76      -0.0042
     49  CE1       71.6990  113.7520  -90.7570 C.ar   76  PHE76      -0.0003
     50  CE2       72.4460  114.9550  -88.8110 C.ar   76  PHE76      -0.0003
     51  CZ        72.4760  113.8170  -89.6020 C.ar   76  PHE76      -0.0000
     52  N         68.5310  118.6720  -92.8830 N.am   77  GLU77      -0.1965
     53  CA        67.3220  119.4310  -93.1700 C.3    77  GLU77       0.1733
     54  C         66.5190  119.2680  -91.8730 C.2    77  GLU77       0.2616
     55  O         66.5870  118.2210  -91.2120 O.2    77  GLU77      -0.2715
     56  CB        66.5400  118.8090  -94.3250 C.3    77  GLU77       0.0429
     57  CG        66.1300  117.3890  -94.0640 C.3    77  GLU77       0.1163
     58  CD        65.0370  116.8810  -94.9960 C.2    77  GLU77       0.3649
     59  OE1       63.9810  117.5320  -95.1150 O.co2  77  GLU77      -0.2457
     60  OE2       65.2240  115.8140  -95.5990 O.co2  77  GLU77      -0.2457
     61  N         65.7660  120.2930  -91.5140 N.am   78  PHE78      -0.1960
     62  CA        64.9870  120.2710  -90.2810 C.3    78  PHE78       0.1771
     63  C         63.5240  119.8490  -90.4350 C.2    78  PHE78       0.2619
     64  O         62.8430  120.2740  -91.3740 O.2    78  PHE78      -0.2715
     65  CB        65.0350  121.6730  -89.6450 C.3    78  PHE78       0.0574
     66  CG        64.1900  121.8250  -88.4010 C.ar   78  PHE78      -0.0200
     67  CD1       62.8980  122.3370  -88.4770 C.ar   78  PHE78      -0.0042
     68  CD2       64.6870  121.4460  -87.1480 C.ar   78  PHE78      -0.0042
     69  CE1       62.1160  122.4710  -87.3510 C.ar   78  PHE78      -0.0003
     70  CE2       63.9030  121.5780  -86.0000 C.ar   78  PHE78      -0.0003
     71  CZ        62.6100  122.0930  -86.1020 C.ar   78  PHE78      -0.0000
     72  N         63.0690  118.9750  -89.5410 N.am   79  LEU79      -0.1963
     73  CA        61.6600  118.5820  -89.4850 C.3    79  LEU79       0.1728
     74  C         61.2010  118.9770  -88.0880 C.2    79  LEU79       0.2616
     75  O         61.9720  118.9200  -87.1380 O.2    79  LEU79      -0.2715
     76  CB        61.4490  117.0870  -89.7600 C.3    79  LEU79       0.0311
     77  CG        61.3860  116.7780  -91.2660 C.3    79  LEU79       0.0022
     78  CD1       62.7910  116.5640  -91.8150 C.3    79  LEU79       0.0001
     79  CD2       60.5350  115.5260  -91.5030 C.3    79  LEU79       0.0001
     80  N         59.9370  119.3770  -87.9550 N.am   80  HIS80      -0.1959
     81  CA        59.4440  119.8790  -86.6750 C.3    80  HIS80       0.1787
     82  C         59.1320  118.9550  -85.5200 C.2    80  HIS80       0.2620
     83  O         59.1150  119.3970  -84.3610 O.2    80  HIS80      -0.2715
     84  CB        58.2080  120.7520  -86.9000 C.3    80  HIS80       0.0785
     85  CG        58.5140  122.0880  -87.4980 C.ar   80  HIS80       0.0821
     86  ND1       58.7510  122.2670  -88.8420 N.ar   80  HIS80      -0.2267
     87  CD2       58.6260  123.3140  -86.9270 C.ar   80  HIS80       0.1154
     88  CE1       58.9960  123.5450  -89.0760 C.ar   80  HIS80       0.1986
     89  NE2       58.9250  124.2010  -87.9320 N.ar   80  HIS80      -0.2212
     90  N         58.8790  117.6810  -85.7840 N.am   81  GLN81      -0.1963
     91  CA        58.5260  116.8420  -84.6460 C.3    81  GLN81       0.1733
     92  C         59.0180  115.4220  -84.8250 C.2    81  GLN81       0.2616
     93  O         59.0440  114.9290  -85.9470 O.2    81  GLN81      -0.2715
     94  CB        57.0120  116.8470  -84.4890 C.3    81  GLN81       0.0408
     95  CG        56.5240  116.2300  -83.1910 C.3    81  GLN81       0.0908
     96  CD        55.1390  116.7080  -82.8330 C.2    81  GLN81       0.2608
     97  OE1       54.9320  117.8870  -82.4950 O.2    81  GLN81      -0.2717
     98  NE2       54.1790  115.8130  -82.9110 N.am   81  GLN81      -0.0878
     99  N         59.4200  114.7850  -83.7240 N.am   82  ASP82      -0.1971
    100  CA        59.8860  113.3940  -83.7910 C.3    82  ASP82       0.1709
    101  C         58.7100  112.5030  -83.4210 C.2    82  ASP82       0.2293
    102  O         57.7440  112.9620  -82.8190 O.2    82  ASP82      -0.2864
    103  CB        61.0940  113.1490  -82.8650 C.3    82  ASP82       0.1436
    104  CG        60.7500  113.2740  -81.3810 C.2    82  ASP82       0.3671
    105  OD1       59.9580  112.4730  -80.8530 O.co2  82  ASP82      -0.2456
    106  OD2       61.2770  114.1920  -80.7370 O.co2  82  ASP82      -0.2456
    107  N         62.5980  108.4410  -81.5070 N.3   127  GLN127     -0.1245
    108  CA        63.2740  109.7420  -81.5040 C.3   127  GLN127      0.1566
    109  C         64.0490  110.0290  -82.7870 C.2   127  GLN127      0.2260
    110  O         64.3390  111.2000  -83.0760 O.2   127  GLN127     -0.2867
    111  CB        64.2070  109.8520  -80.2890 C.3   127  GLN127      0.0367
    112  CG        63.4850  109.8380  -78.9470 C.3   127  GLN127      0.0905
    113  CD        64.3810  109.3740  -77.8100 C.2   127  GLN127      0.2608
    114  OE1       64.7970  108.2160  -77.7670 O.2   127  GLN127     -0.2717
    115  NE2       64.6870  110.2790  -76.8870 N.am  127  GLN127     -0.0878
    116  N         61.3130  111.3490  -87.9140 N.3   130  LEU130     -0.1245
    117  CA        60.7770  112.7100  -87.9470 C.3   130  LEU130      0.1561
    118  C         59.5790  112.8690  -88.8750 C.2   130  LEU130      0.2260
    119  O         59.5390  112.2940  -89.9630 O.2   130  LEU130     -0.2867
    120  CB        61.8820  113.6670  -88.3710 C.3   130  LEU130      0.0270
    121  CG        63.1680  113.4520  -87.5760 C.3   130  LEU130      0.0019
    122  CD1       64.2290  114.3530  -88.1390 C.3   130  LEU130      0.0001
    123  CD2       62.9250  113.7310  -86.0900 C.3   130  LEU130      0.0001
    124  N         66.2630  109.5540  -89.6400 N.3   140  ALA140     -0.1231
    125  CA        67.4370  110.3860  -89.4270 C.3   140  ALA140      0.1694
    126  C         68.5390  109.5770  -88.7490 C.2   140  ALA140      0.2592
    127  O         68.2480  108.6780  -87.9650 O.2   140  ALA140     -0.2718
    128  CB        67.0680  111.5790  -88.5680 C.3   140  ALA140      0.0304
    129  N         69.7910  109.9170  -89.0650 N.am  141  ASP141     -0.1974
    130  CA        70.9840  109.2650  -88.4970 C.3   141  ASP141      0.1709
    131  C         71.3680  107.9140  -89.0830 C.2   141  ASP141      0.2293
    132  O         71.9610  107.0860  -88.4070 O.2   141  ASP141     -0.2864
    133  CB        70.8470  109.1690  -86.9740 C.3   141  ASP141      0.1436
    134  CG        70.9870  110.5260  -86.3040 C.2   141  ASP141      0.3671
    135  OD1       70.8090  111.5390  -87.0150 O.co2 141  ASP141     -0.2456
    136  OD2       71.2680  110.5920  -85.0840 O.co2 141  ASP141     -0.2456
@<TRIPOS>BOND
     1    60    58   ar
     2    59    58   ar
     3    58    57    1
     4    36    37    2
     5    36    35    1
     6    56    57    1
     7    56    53    1
     8    34    35    1
     9    35    38    1
    10    53    52    1
    11    53    54    1
    12    52    43   am
    13    38    39    1
    14    38    40    1
    15    43    42    1
    16    43    44    2
    17    54    61   am
    18    54    55    2
    19    78    77    1
    20    42    41    1
    21    42    45    1
    22    61    62    1
    23    79    77    1
    24    64    63    2
    25    77    76    1
    26    47    49   ar
    27    47    46   ar
    28    49    51   ar
    29    45    46    1
    30    63    62    1
    31    63    72   am
    32    46    48   ar
    33    62    65    1
    34   119   118    2
    35    76    73    1
    36    65    66    1
    37   124   125    1
    38    51    50   ar
    39    72    73    1
    40    73    74    1
    41   125   126    1
    42   125   128    1
    43    48    50   ar
    44   131   130    1
    45   131   132    2
    46    88    86   ar
    47    88    89   ar
    48   129   126   am
    49   129   130    1
    50   118   117    1
    51    86    85   ar
    52   126   127    2
    53    20    21    1
    54   130   133    1
    55    23    22    2
    56    67    66   ar
    57    67    69   ar
    58    66    68   ar
    59   120   117    1
    60   120   121    1
    61   122   121    1
    62    74    80   am
    63    74    75    2
    64    80    81    1
    65   117   116    1
    66    89    87   ar
    67   121   123    1
    68    85    87   ar
    69    85    84    1
    70    22    21    1
    71    24    21    1
    72    69    71   ar
    73    68    70   ar
    74   135   134   ar
    75   133   134    1
    76    84    81    1
    77    81    82    1
    78   134   136   ar
    79    71    70   ar
    80    93    92    2
    81    90    82   am
    82    90    91    1
    83    25    26    1
    84    82    83    2
    85    28    27    2
    86    29    26    1
    87    29    30    1
    88    92    91    1
    89    92    99   am
    90    31    30    1
    91    31    32    1
    92    91    94    1
    93    26    27    1
    94    94    95    1
    95    33    32    1
    96     8     6    1
    97   100    99    1
    98   100   101    1
    99   100   103    1
   100    18    17    1
   101   101   102    2
   102    95    96    1
   103   110   109    2
   104    98    96   am
   105   103   104    1
   106    96    97    2
   107   109   108    1
   108    19    17    1
   109     6     5    1
   110    17    14    1
   111    14    15    1
   112    14    13    1
   113     7     5    1
   114     5     2    1
   115   107   108    1
   116   108   111    1
   117    15    16    2
   118   104   105   ar
   119   104   106   ar
   120   111   112    1
   121     2     1    1
   122     2     3    1
   123     3     9   am
   124     3     4    2
   125     9    10    1
   126   112   113    1
   127    12    11    2
   128    10    11    1
   129   113   114    2
   130   113   115   am
