@<TRIPOS>MOLECULE
tmp/3qzhA00.pdb
 176 167 0 0 0
SMALL
GASTEIGER

@<TRIPOS>ATOM
      1  N        -41.2770  -56.4510   28.4100 N.3     8  GLU8       -0.1245
      2  CA       -41.0440  -55.7620   29.6760 C.3     8  GLU8        0.1567
      3  C        -41.6370  -54.3580   29.6760 C.2     8  GLU8        0.2260
      4  O        -42.0670  -53.8490   28.6410 O.2     8  GLU8       -0.2867
      5  CB       -39.5500  -55.6640   29.9830 C.3     8  GLU8        0.0388
      6  CG       -38.7270  -55.0180   28.8900 C.3     8  GLU8        0.1160
      7  CD       -37.3440  -54.6430   29.3690 C.2     8  GLU8        0.3649
      8  OE1      -37.2260  -53.6430   30.1080 O.co2   8  GLU8       -0.2457
      9  OE2      -36.3790  -55.3510   29.0190 O.co2   8  GLU8       -0.2457
     10  N        -41.1220  -50.6620   29.6970 N.3    10  ILE10      -0.1231
     11  CA       -40.1120  -49.6620   29.3640 C.3    10  ILE10       0.1692
     12  C        -40.2430  -48.4500   30.2800 C.2    10  ILE10       0.2593
     13  O        -39.3090  -47.6560   30.4230 O.2    10  ILE10      -0.2718
     14  CB       -40.2580  -49.1760   27.9040 C.3    10  ILE10       0.0266
     15  CG1      -40.0690  -50.3370   26.9310 C.3    10  ILE10       0.0019
     16  CG2      -39.2280  -48.1150   27.6110 C.3    10  ILE10       0.0020
     17  CD1      -40.1330  -49.9170   25.4750 C.3    10  ILE10       0.0001
     18  N        -41.4140  -48.3030   30.8890 N.am   11  GLY11      -0.1942
     19  CA       -41.6310  -47.1830   31.7800 C.3    11  GLY11       0.2014
     20  C        -43.0850  -46.8170   31.9850 C.2    11  GLY11       0.2639
     21  O        -43.9970  -47.5780   31.6540 O.2    11  GLY11      -0.2714
     22  N        -43.2920  -45.6350   32.5490 N.am   12  GLU12      -0.1963
     23  CA       -44.6260  -45.1280   32.8180 C.3    12  GLU12       0.1733
     24  C        -44.6490  -43.6670   32.3690 C.2    12  GLU12       0.2616
     25  O        -44.6100  -42.7390   33.1810 O.2    12  GLU12      -0.2715
     26  CB       -44.9270  -45.2780   34.3120 C.3    12  GLU12       0.0429
     27  CG       -44.6070  -46.6900   34.8210 C.3    12  GLU12       0.1163
     28  CD       -45.0970  -46.9650   36.2310 C.2    12  GLU12       0.3649
     29  OE1      -44.7690  -46.1790   37.1460 O.co2  12  GLU12      -0.2457
     30  OE2      -45.8020  -47.9810   36.4260 O.co2  12  GLU12      -0.2457
     31  N        -44.7080  -43.4950   31.0490 N.am   13  GLY13      -0.1955
     32  CA       -44.7030  -42.1820   30.4300 C.3    13  GLY13       0.1869
     33  C        -45.7330  -41.1470   30.8430 C.2    13  GLY13       0.2309
     34  O        -46.5280  -41.3430   31.7670 O.2    13  GLY13      -0.2863
     35  N        -45.7280  -47.8310   29.1940 N.3    18  VAL18      -0.1245
     36  CA       -45.0540  -48.1070   27.9290 C.3    18  VAL18       0.1561
     37  C        -44.3390  -49.4460   28.0400 C.2    18  VAL18       0.2260
     38  O        -43.5500  -49.6600   28.9590 O.2    18  VAL18      -0.2867
     39  CB       -44.0070  -47.0350   27.5990 C.3    18  VAL18       0.0252
     40  CG1      -43.4010  -47.3130   26.2190 C.3    18  VAL18       0.0019
     41  CG2      -44.6370  -45.6590   27.6360 C.3    18  VAL18       0.0019
     42  N        -42.0770  -52.6810   26.0250 N.3    20  LYS20      -0.1245
     43  CA       -41.2800  -53.1140   24.8850 C.3    20  LYS20       0.1561
     44  C        -42.0500  -54.3800   24.5580 C.2    20  LYS20       0.2260
     45  O        -42.2990  -55.2130   25.4380 O.2    20  LYS20      -0.2867
     46  CB       -39.8470  -53.4580   25.2920 C.3    20  LYS20       0.0271
     47  CG       -38.9830  -53.9690   24.1420 C.3    20  LYS20       0.0035
     48  CD       -37.5950  -54.4220   24.6530 C.3    20  LYS20       0.0206
     49  CE       -36.6640  -54.8340   23.5110 C.3    20  LYS20       0.1093
     50  NZ       -35.2840  -55.1770   23.9930 N.3    20  LYS20      -0.1314
     51  N        -42.4410  -50.3990   20.6330 N.3    31  ALA31      -0.1245
     52  CA       -42.7550  -49.7910   21.9160 C.3    31  ALA31       0.1562
     53  C        -44.2700  -49.6360   21.8800 C.2    31  ALA31       0.2260
     54  O        -44.8330  -49.0740   20.9370 O.2    31  ALA31      -0.2867
     55  CB       -42.0870  -48.4280   22.0590 C.3    31  ALA31       0.0290
     56  N        -47.5070  -48.1070   23.7960 N.3    33  LYS33      -0.1245
     57  CA       -47.9740  -47.1790   24.8180 C.3    33  LYS33       0.1561
     58  C        -49.4910  -47.3000   24.9560 C.2    33  LYS33       0.2260
     59  O        -50.2240  -47.1260   23.9880 O.2    33  LYS33      -0.2867
     60  CB       -47.5950  -45.7420   24.4440 C.3    33  LYS33       0.0271
     61  CG       -47.7190  -44.7320   25.5890 C.3    33  LYS33       0.0035
     62  CD       -47.1200  -43.3930   25.1830 C.3    33  LYS33       0.0206
     63  CE       -47.2000  -42.3320   26.2950 C.3    33  LYS33       0.1093
     64  NZ       -46.1900  -42.4820   27.3830 N.3    33  LYS33      -0.1314
     65  N        -39.5190  -40.5690   15.4980 N.3    60  VAL60      -0.1245
     66  CA       -39.8430  -41.9440   15.8600 C.3    60  VAL60       0.1561
     67  C        -41.1390  -42.3050   15.1250 C.2    60  VAL60       0.2260
     68  O        -42.1680  -41.6560   15.3090 O.2    60  VAL60      -0.2867
     69  CB       -40.0510  -42.0860   17.4050 C.3    60  VAL60       0.0252
     70  CG1      -40.5340  -43.4810   17.7570 C.3    60  VAL60       0.0019
     71  CG2      -38.7470  -41.8150   18.1250 C.3    60  VAL60       0.0019
     72  N        -45.0950  -47.7800   18.4730 N.3    76  PHE76      -0.1227
     73  CA       -43.9940  -46.9880   17.9190 C.3    76  PHE76       0.1736
     74  C        -42.7870  -47.8300   17.5700 C.2    76  PHE76       0.2595
     75  O        -42.6060  -48.9240   18.1170 O.2    76  PHE76      -0.2718
     76  CB       -43.5410  -45.9400   18.9390 C.3    76  PHE76       0.0547
     77  CG       -44.5450  -44.8540   19.2050 C.ar   76  PHE76      -0.0202
     78  CD1      -44.7030  -43.7990   18.3120 C.ar   76  PHE76      -0.0042
     79  CD2      -45.3010  -44.8610   20.3790 C.ar   76  PHE76      -0.0042
     80  CE1      -45.6020  -42.7560   18.5820 C.ar   76  PHE76      -0.0003
     81  CE2      -46.2000  -43.8300   20.6620 C.ar   76  PHE76      -0.0003
     82  CZ       -46.3520  -42.7710   19.7600 C.ar   76  PHE76      -0.0000
     83  N        -41.9500  -47.3130   16.6720 N.am   77  GLU77      -0.1965
     84  CA       -40.7230  -48.0170   16.3280 C.3    77  GLU77       0.1733
     85  C        -39.9250  -47.9600   17.6260 C.2    77  GLU77       0.2616
     86  O        -40.0310  -47.0010   18.4020 O.2    77  GLU77      -0.2715
     87  CB       -39.9480  -47.3220   15.1960 C.3    77  GLU77       0.0429
     88  CG       -39.1660  -46.1030   15.5980 C.3    77  GLU77       0.1163
     89  CD       -38.2450  -45.5810   14.4860 C.2    77  GLU77       0.3649
     90  OE1      -37.1290  -46.1300   14.2970 O.co2  77  GLU77      -0.2457
     91  OE2      -38.6360  -44.6160   13.8010 O.co2  77  GLU77      -0.2457
     92  N        -39.1350  -48.9900   17.8720 N.am   78  PHE78      -0.1960
     93  CA       -38.3740  -49.0660   19.1080 C.3    78  PHE78       0.1771
     94  C        -36.9170  -48.6530   18.9690 C.2    78  PHE78       0.2619
     95  O        -36.2670  -49.0030   17.9940 O.2    78  PHE78      -0.2715
     96  CB       -38.4510  -50.5060   19.6470 C.3    78  PHE78       0.0574
     97  CG       -37.5860  -50.7650   20.8540 C.ar   78  PHE78      -0.0200
     98  CD1      -36.3040  -51.2870   20.7120 C.ar   78  PHE78      -0.0042
     99  CD2      -38.0720  -50.5210   22.1340 C.ar   78  PHE78      -0.0042
    100  CE1      -35.5220  -51.5640   21.8280 C.ar   78  PHE78      -0.0003
    101  CE2      -37.2970  -50.7930   23.2580 C.ar   78  PHE78      -0.0003
    102  CZ       -36.0260  -51.3120   23.1130 C.ar   78  PHE78      -0.0000
    103  N        -36.4310  -47.8960   19.9500 N.am   79  LEU79      -0.1963
    104  CA       -35.0310  -47.4920   20.0090 C.3    79  LEU79       0.1728
    105  C        -34.6290  -47.8440   21.4340 C.2    79  LEU79       0.2616
    106  O        -35.4220  -47.6960   22.3680 O.2    79  LEU79      -0.2715
    107  CB       -34.8290  -45.9940   19.7140 C.3    79  LEU79       0.0311
    108  CG       -34.7200  -45.6440   18.2170 C.3    79  LEU79       0.0022
    109  CD1      -36.1060  -45.4830   17.6260 C.3    79  LEU79       0.0001
    110  CD2      -33.9440  -44.3490   18.0280 C.3    79  LEU79       0.0001
    111  N        -33.4040  -48.3330   21.5880 N.am   80  HIS80      -0.1959
    112  CA       -32.8920  -48.7920   22.8690 C.3    80  HIS80       0.1787
    113  C        -32.5570  -47.8180   23.9860 C.2    80  HIS80       0.2620
    114  O        -32.4240  -48.2390   25.1390 O.2    80  HIS80      -0.2715
    115  CB       -31.6490  -49.6560   22.6360 C.3    80  HIS80       0.0785
    116  CG       -31.9380  -50.9780   21.9970 C.ar   80  HIS80       0.0821
    117  ND1      -32.1000  -51.1290   20.6370 N.ar   80  HIS80      -0.2267
    118  CD2      -32.1180  -52.2080   22.5400 C.ar   80  HIS80       0.1154
    119  CE1      -32.3690  -52.3960   20.3680 C.ar   80  HIS80       0.1986
    120  NE2      -32.3870  -53.0710   21.5040 N.ar   80  HIS80      -0.2212
    121  N        -32.4040  -46.5350   23.6820 N.am   81  GLN81      -0.1963
    122  CA       -32.0150  -45.6070   24.7460 C.3    81  GLN81       0.1733
    123  C        -32.5090  -44.1970   24.4840 C.2    81  GLN81       0.2616
    124  O        -32.7170  -43.8180   23.3370 O.2    81  GLN81      -0.2715
    125  CB       -30.4880  -45.6090   24.8600 C.3    81  GLN81       0.0408
    126  CG       -29.8950  -44.8870   26.0800 C.3    81  GLN81       0.0908
    127  CD       -28.4500  -45.3050   26.3300 C.2    81  GLN81       0.2608
    128  OE1      -28.1700  -46.4850   26.5700 O.2    81  GLN81      -0.2717
    129  NE2      -27.5280  -44.3530   26.2630 N.am   81  GLN81      -0.0878
    130  N        -32.6890  -43.4270   25.5520 N.am   82  ASP82      -0.1971
    131  CA       -33.1330  -42.0460   25.4200 C.3    82  ASP82       0.1709
    132  C        -31.9580  -41.1440   25.7870 C.2    82  ASP82       0.2293
    133  O        -30.9920  -41.5940   26.4160 O.2    82  ASP82      -0.2864
    134  CB       -34.3450  -41.7680   26.3210 C.3    82  ASP82       0.1436
    135  CG       -34.0410  -41.9600   27.8030 C.2    82  ASP82       0.3671
    136  OD1      -33.1510  -41.2640   28.3420 O.co2  82  ASP82      -0.2456
    137  OD2      -34.6970  -42.8060   28.4310 O.co2  82  ASP82      -0.2456
    138  N        -30.8980  -40.8160   29.6780 N.3    85  LYS85      -0.1245
    139  CA       -30.0240  -41.8530   30.2030 C.3    85  LYS85       0.1561
    140  C        -28.6110  -41.6810   29.6520 C.2    85  LYS85       0.2260
    141  O        -27.6320  -41.7880   30.3900 O.2    85  LYS85      -0.2867
    142  CB       -30.5470  -43.2520   29.8620 C.3    85  LYS85       0.0271
    143  CG       -29.5320  -44.3300   30.2130 C.3    85  LYS85       0.0035
    144  CD       -30.1360  -45.7270   30.2450 C.3    85  LYS85       0.0206
    145  CE       -29.0800  -46.7470   30.6720 C.3    85  LYS85       0.1093
    146  NZ       -29.6600  -48.1120   30.7890 N.3    85  LYS85      -0.1314
    147  N        -35.7990  -37.0950   27.7780 N.3   127  GLN127     -0.1245
    148  CA       -36.4540  -38.3980   27.8150 C.3   127  GLN127      0.1566
    149  C        -37.1970  -38.7380   26.5260 C.2   127  GLN127      0.2260
    150  O        -37.3760  -39.9090   26.2240 O.2   127  GLN127     -0.2867
    151  CB       -37.4400  -38.4740   28.9880 C.3   127  GLN127      0.0367
    152  CG       -36.7960  -38.5760   30.3490 C.3   127  GLN127      0.0905
    153  CD       -37.8030  -38.4060   31.4680 C.2   127  GLN127      0.2608
    154  OE1      -38.3570  -37.3230   31.6590 O.2   127  GLN127     -0.2717
    155  NE2      -38.0520  -39.4800   32.2100 N.am  127  GLN127     -0.0878
    156  N        -34.7780  -40.1670   21.4250 N.3   130  LEU130     -0.1245
    157  CA       -34.2490  -41.5220   21.3990 C.3   130  LEU130      0.1561
    158  C        -33.0640  -41.6730   20.4690 C.2   130  LEU130      0.2260
    159  O        -33.0250  -41.0660   19.4010 O.2   130  LEU130     -0.2867
    160  CB       -35.3670  -42.4920   21.0130 C.3   130  LEU130      0.0270
    161  CG       -36.6240  -42.3490   21.8880 C.3   130  LEU130      0.0019
    162  CD1      -37.6570  -43.3980   21.4470 C.3   130  LEU130      0.0001
    163  CD2      -36.2710  -42.5390   23.4020 C.3   130  LEU130      0.0001
    164  N        -39.4720  -38.2590   19.7980 N.3   140  ALA140     -0.1231
    165  CA       -40.5940  -39.1520   20.0920 C.3   140  ALA140      0.1694
    166  C        -41.7450  -38.3180   20.6480 C.2   140  ALA140      0.2592
    167  O        -41.5040  -37.3220   21.3320 O.2   140  ALA140     -0.2718
    168  CB       -40.1890  -40.2150   21.1230 C.3   140  ALA140      0.0304
    169  N        -42.9760  -38.7360   20.3500 N.am  141  ASP141     -0.1974
    170  CA       -44.2040  -38.0700   20.8110 C.3   141  ASP141      0.1709
    171  C        -44.6480  -36.7880   20.1020 C.2   141  ASP141      0.2293
    172  O        -45.4180  -36.0200   20.6520 O.2   141  ASP141     -0.2864
    173  CB       -44.1290  -37.8140   22.3200 C.3   141  ASP141      0.1436
    174  CG       -44.0900  -39.1070   23.1190 C.2   141  ASP141      0.3671
    175  OD1      -43.8140  -39.0730   24.3330 O.co2 141  ASP141     -0.2456
    176  OD2      -44.3460  -40.1670   22.5230 O.co2 141  ASP141     -0.2456
@<TRIPOS>BOND
     1    91    89   ar
     2    90    89   ar
     3    89    88    1
     4    67    68    2
     5    67    66    1
     6    87    88    1
     7    87    84    1
     8    65    66    1
     9    66    69    1
    10    84    83    1
    11    84    85    1
    12    83    74   am
    13    69    70    1
    14    69    71    1
    15    74    73    1
    16    74    75    2
    17   109   108    1
    18    85    92   am
    19    85    86    2
    20    92    93    1
    21    73    72    1
    22    73    76    1
    23    95    94    2
    24   110   108    1
    25   108   107    1
    26    78    80   ar
    27    78    77   ar
    28    80    82   ar
    29    76    77    1
    30    94    93    1
    31    94   103   am
    32    93    96    1
    33    77    79   ar
    34   159   158    2
    35    96    97    1
    36   107   104    1
    37    82    81   ar
    38   164   165    1
    39   103   104    1
    40   104   105    1
    41   165   166    1
    42   165   168    1
    43   171   172    2
    44   171   170    1
    45   169   166   am
    46   169   170    1
    47   119   117   ar
    48   119   120   ar
    49    79    81   ar
    50   158   157    1
    51    51    52    1
    52   117   116   ar
    53   166   167    2
    54    98    97   ar
    55    98   100   ar
    56   170   173    1
    57    97    99   ar
    58    54    53    2
    59   160   157    1
    60   160   161    1
    61   157   156    1
    62   105   111   am
    63   105   106    2
    64   162   161    1
    65   120   118   ar
    66   111   112    1
    67   100   102   ar
    68    53    52    1
    69   161   163    1
    70    52    55    1
    71   116   118   ar
    72   116   115    1
    73    99   101   ar
    74   173   174    1
    75   176   174   ar
    76   115   112    1
    77   112   113    1
    78   102   101   ar
    79   174   175   ar
    80   124   123    2
    81    49    50    1
    82    49    48    1
    83   121   113   am
    84   121   122    1
    85    56    57    1
    86   113   114    2
    87    59    58    2
    88    47    48    1
    89    47    46    1
    90    60    57    1
    91    60    61    1
    92   123   122    1
    93   123   130   am
    94    44    43    1
    95    44    45    2
    96   122   125    1
    97    57    58    1
    98   125   126    1
    99    43    46    1
   100    43    42    1
   101    62    61    1
   102    62    63    1
   103   131   130    1
   104   131   132    1
   105   131   134    1
   106    17    15    1
   107   132   133    2
   108   126   127    1
   109    40    39    1
   110   150   149    2
   111   129   127   am
   112    63    64    1
   113   134   135    1
   114   127   128    2
   115   149   148    1
   116    15    14    1
   117    39    41    1
   118    39    36    1
   119    16    14    1
   120   147   148    1
   121   135   136   ar
   122   135   137   ar
   123   148   151    1
   124    14    11    1
   125    36    37    1
   126    36    35    1
   127    37    38    2
   128     1     2    1
   129     4     3    2
   130     6     7    1
   131     6     5    1
   132   151   152    1
   133     9     7   ar
   134    11    10    1
   135    11    12    1
   136     7     8   ar
   137   140   139    1
   138   140   141    2
   139     3     2    1
   140     2     5    1
   141   138   139    1
   142   142   139    1
   143   142   143    1
   144   143   144    1
   145   144   145    1
   146    12    13    2
   147    12    18   am
   148   152   153    1
   149    32    33    1
   150    32    31    1
   151   145   146    1
   152    33    34    2
   153    18    19    1
   154    31    24   am
   155   153   154    2
   156   153   155   am
   157    21    20    2
   158    19    20    1
   159    20    22   am
   160    24    23    1
   161    24    25    2
   162    22    23    1
   163    23    26    1
   164    26    27    1
   165    27    28    1
   166    28    30   ar
   167    28    29   ar
