@<TRIPOS>MOLECULE
tmp/3qzpB00.pdb
 146 143 0 0 0
SMALL
GASTEIGER

@<TRIPOS>ATOM
      1  N        -26.9380   13.0740   37.5110 N.3    16  LYS16      -0.1231
      2  CA       -26.4840   12.3420   38.6930 C.3    16  LYS16       0.1693
      3  C        -27.3900   11.1640   39.0190 C.2    16  LYS16       0.2592
      4  O        -28.5880   11.2030   38.7460 O.2    16  LYS16      -0.2718
      5  CB       -26.4110   13.2760   39.9080 C.3    16  LYS16       0.0285
      6  CG       -25.4200   14.4160   39.7670 C.3    16  LYS16       0.0035
      7  CD       -25.4290   15.3100   41.0130 C.3    16  LYS16       0.0206
      8  CE       -24.3330   16.3520   40.9330 C.3    16  LYS16       0.1093
      9  NZ       -22.9940   15.7180   41.0780 N.3    16  LYS16      -0.1314
     10  N        -26.8050   10.1260   39.6110 N.am   17  ASP17      -0.1974
     11  CA       -27.5620    8.9730   40.0930 C.3    17  ASP17       0.1709
     12  C        -28.6350    9.4240   41.0800 C.2    17  ASP17       0.2293
     13  O        -28.3370   10.1310   42.0450 O.2    17  ASP17      -0.2864
     14  CB       -26.6200    7.9860   40.7710 C.3    17  ASP17       0.1436
     15  CG       -27.2660    6.6280   41.0110 C.2    17  ASP17       0.3671
     16  OD1      -28.0330    6.1520   40.1460 O.co2  17  ASP17      -0.2456
     17  OD2      -27.0050    6.0460   42.0760 O.co2  17  ASP17      -0.2456
     18  N        -24.6540   15.8870   36.1100 N.3    23  SER23      -0.1202
     19  CA       -23.4390   15.2190   36.6120 C.3    23  SER23       0.2020
     20  C        -22.2060   15.9190   36.0520 C.2    23  SER23       0.2619
     21  O        -22.2040   16.3530   34.8930 O.2    23  SER23      -0.2717
     22  CB       -23.4020   13.7710   36.1470 C.3    23  SER23       0.2103
     23  OG       -22.1790   13.1620   36.5350 O.3    23  SER23      -0.2182
     24  N        -21.1440   16.0190   36.8520 N.am   24  HIS24      -0.1961
     25  CA       -19.9300   16.6350   36.3270 C.3    24  HIS24       0.1787
     26  C        -19.2590   15.7020   35.2800 C.2    24  HIS24       0.2620
     27  O        -18.4210   16.1430   34.4920 O.2    24  HIS24      -0.2715
     28  CB       -19.0100   17.1480   37.4540 C.3    24  HIS24       0.0785
     29  CG       -17.7780   16.3290   37.6710 C.ar   24  HIS24       0.0821
     30  ND1      -16.5380   16.7190   37.2090 N.ar   24  HIS24      -0.2267
     31  CD2      -17.5870   15.1610   38.3220 C.ar   24  HIS24       0.1154
     32  CE1      -15.6400   15.8110   37.5440 C.ar   24  HIS24       0.1986
     33  NE2      -16.2520   14.8540   38.2160 N.ar   24  HIS24      -0.2212
     34  N        -19.7150   14.4450   35.2060 N.am   25  MET25      -0.1977
     35  CA       -19.3930   13.5870   34.0330 C.3    25  MET25       0.1605
     36  C        -19.7970   14.2280   32.7030 C.2    25  MET25       0.2287
     37  O        -19.1700   13.9850   31.6710 O.2    25  MET25      -0.2864
     38  CB       -20.0600   12.2070   34.1570 C.3    25  MET25       0.0413
     39  CG       -19.9520   11.2920   32.9240 C.3    25  MET25       0.0598
     40  SD       -20.5340    9.6170   33.3690 S.3    25  MET25      -0.1393
     41  CE       -20.8700    8.9370   31.7610 C.3    25  MET25       0.0692
     42  N        -17.0910   15.8610   30.6770 N.3    28  TYR28      -0.1241
     43  CA       -16.0570   14.9940   30.0810 C.3    28  TYR28       0.1605
     44  C        -16.4850   14.2730   28.8040 C.2    28  TYR28       0.2264
     45  O        -15.8480   13.3250   28.3660 O.2    28  TYR28      -0.2867
     46  CB       -15.5830   14.0010   31.1350 C.3    28  TYR28       0.0534
     47  CG       -14.6490   14.6520   32.0990 C.ar   28  TYR28      -0.0201
     48  CD1      -13.3200   14.8710   31.7490 C.ar   28  TYR28      -0.0009
     49  CD2      -15.0910   15.0910   33.3480 C.ar   28  TYR28      -0.0009
     50  CE1      -12.4380   15.4890   32.6270 C.ar   28  TYR28       0.0417
     51  CE2      -14.2070   15.7170   34.2340 C.ar   28  TYR28       0.0417
     52  CZ       -12.8890   15.9080   33.8620 C.ar   28  TYR28       0.1957
     53  OH       -11.9970   16.5200   34.7150 O.3    28  TYR28      -0.2866
     54  N         -8.5080    8.5610   31.3390 N.3    53  PHE53      -0.1227
     55  CA        -9.1060    8.4190   32.6710 C.3    53  PHE53       0.1736
     56  C        -10.2380    7.3780   32.6950 C.2    53  PHE53       0.2595
     57  O        -10.5770    6.8420   33.7590 O.2    53  PHE53      -0.2718
     58  CB        -9.7060    9.7400   33.2030 C.3    53  PHE53       0.0547
     59  CG        -8.7200   10.8800   33.3580 C.ar   53  PHE53      -0.0202
     60  CD1       -9.2040   12.1730   33.6030 C.ar   53  PHE53      -0.0042
     61  CD2       -7.3350   10.6890   33.2660 C.ar   53  PHE53      -0.0042
     62  CE1       -8.3400   13.2620   33.7460 C.ar   53  PHE53      -0.0003
     63  CE2       -6.4580   11.7770   33.4120 C.ar   53  PHE53      -0.0003
     64  CZ        -6.9640   13.0640   33.6630 C.ar   53  PHE53      -0.0000
     65  N        -10.8600    7.1410   31.5410 N.am   54  TRP54      -0.1976
     66  CA       -12.0130    6.2460   31.4840 C.3    54  TRP54       0.1640
     67  C        -11.5600    4.7820   31.3490 C.2    54  TRP54       0.2290
     68  O        -11.3430    4.3010   30.2350 O.2    54  TRP54      -0.2864
     69  CB       -12.8790    6.5920   30.2770 C.3    54  TRP54       0.0576
     70  CG       -13.4740    7.9940   30.1800 C.ar   54  TRP54       0.0006
     71  CD1      -12.8020    9.1830   29.9520 C.ar   54  TRP54       0.0946
     72  CD2      -14.8650    8.3180   30.1830 C.ar   54  TRP54       0.0152
     73  NE1      -13.7100   10.2230   29.8440 N.ar   54  TRP54      -0.2442
     74  CE2      -14.9790    9.7130   29.9740 C.ar   54  TRP54       0.0810
     75  CE3      -16.0380    7.5590   30.3410 C.ar   54  TRP54       0.0012
     76  CZ2      -16.2180   10.3620   29.9250 C.ar   54  TRP54       0.0191
     77  CZ3      -17.2720    8.2150   30.3090 C.ar   54  TRP54       0.0001
     78  CH2      -17.3490    9.5960   30.1060 C.ar   54  TRP54       0.0015
     79  N        -19.4070    3.6770   35.0490 N.3    98  VAL98      -0.1245
     80  CA       -18.0500    3.9930   34.6220 C.3    98  VAL98       0.1561
     81  C        -17.0380    3.7160   35.7420 C.2    98  VAL98       0.2260
     82  O        -17.3800    3.7680   36.9160 O.2    98  VAL98      -0.2867
     83  CB       -17.9300    5.4690   34.1360 C.3    98  VAL98       0.0252
     84  CG1      -18.7950    5.7000   32.8810 C.3    98  VAL98       0.0019
     85  CG2      -18.3470    6.4510   35.2220 C.3    98  VAL98       0.0019
     86  N        -13.4890    5.3010   36.7080 N.3   100  ILE100     -0.1245
     87  CA       -12.6250    6.4340   36.3570 C.3   100  ILE100      0.1561
     88  C        -11.3710    6.3920   37.2250 C.2   100  ILE100      0.2260
     89  O        -11.4710    6.2920   38.4410 O.2   100  ILE100     -0.2867
     90  CB       -13.3550    7.7880   36.5220 C.3   100  ILE100      0.0252
     91  CG1      -14.6490    7.8070   35.6770 C.3   100  ILE100      0.0019
     92  CG2      -12.4340    8.9790   36.1670 C.3   100  ILE100      0.0019
     93  CD1      -14.4480    7.4690   34.1810 C.3   100  ILE100      0.0001
     94  N         -7.7190    8.4310   37.7920 N.3   102  VAL102     -0.1245
     95  CA        -6.7990    9.5510   37.5380 C.3   102  VAL102      0.1561
     96  C         -5.5490    9.2880   38.3830 C.2   102  VAL102      0.2260
     97  O         -5.5210    9.6080   39.5700 O.2   102  VAL102     -0.2867
     98  CB        -7.4590   10.9110   37.8670 C.3   102  VAL102      0.0252
     99  CG1       -6.6180   12.0700   37.3650 C.3   102  VAL102      0.0019
    100  CG2       -8.8550   10.9820   37.2480 C.3   102  VAL102      0.0019
    101  N         -3.1760   11.4980   41.0830 N.3   105  ILE105     -0.1245
    102  CA        -3.8650   11.9570   42.2970 C.3   105  ILE105      0.1561
    103  C         -4.5560   10.8070   43.0370 C.2   105  ILE105      0.2260
    104  O         -5.3290   11.0300   43.9700 O.2   105  ILE105     -0.2867
    105  CB        -4.8940   13.0890   42.0080 C.3   105  ILE105      0.0252
    106  CG1       -5.9710   12.6090   41.0260 C.3   105  ILE105      0.0019
    107  CG2       -4.1830   14.3480   41.5170 C.3   105  ILE105      0.0019
    108  CD1       -7.2450   13.4660   41.0170 C.3   105  ILE105      0.0001
    109  N         -7.0370    8.9270   42.2590 N.3   107  TYR107     -0.1241
    110  CA        -8.4890    8.9470   42.1480 C.3   107  TYR107      0.1605
    111  C         -8.9180    7.6550   41.4500 C.2   107  TYR107      0.2264
    112  O         -8.3810    7.2950   40.3930 O.2   107  TYR107     -0.2867
    113  CB        -8.8740   10.1920   41.3550 C.3   107  TYR107      0.0534
    114  CG       -10.3260   10.3890   41.0120 C.ar  107  TYR107     -0.0201
    115  CD1      -11.1320   11.2560   41.7650 C.ar  107  TYR107     -0.0009
    116  CD2      -10.8870    9.7620   39.8940 C.ar  107  TYR107     -0.0009
    117  CE1      -12.4720   11.4550   41.4250 C.ar  107  TYR107      0.0417
    118  CE2      -12.2220    9.9580   39.5420 C.ar  107  TYR107      0.0417
    119  CZ       -13.0070   10.8050   40.2990 C.ar  107  TYR107      0.1957
    120  OH       -14.3150   10.9990   39.9190 O.3   107  TYR107     -0.2866
    121  N        -18.9050    4.8220   39.2820 N.3   111  TYR111     -0.1227
    122  CA       -20.1330    5.5810   39.4240 C.3   111  TYR111      0.1736
    123  C        -21.1990    5.0570   38.4890 C.2   111  TYR111      0.2596
    124  O        -20.8790    4.5060   37.4450 O.2   111  TYR111     -0.2718
    125  CB       -19.9230    7.0260   39.0410 C.3   111  TYR111      0.0548
    126  CG       -18.8020    7.7350   39.7340 C.ar  111  TYR111     -0.0200
    127  CD1      -18.9580    8.2280   41.0270 C.ar  111  TYR111     -0.0009
    128  CD2      -17.6080    7.9780   39.0690 C.ar  111  TYR111     -0.0009
    129  CE1      -17.9250    8.9160   41.6620 C.ar  111  TYR111      0.0417
    130  CE2      -16.5760    8.6760   39.6840 C.ar  111  TYR111      0.0417
    131  CZ       -16.7390    9.1350   40.9720 C.ar  111  TYR111      0.1957
    132  OH       -15.6950    9.8070   41.5660 O.3   111  TYR111     -0.2866
    133  N        -22.4510    5.2680   38.8810 N.am  112  THR112     -0.1939
    134  CA       -23.6110    5.1110   38.0020 C.3   112  THR112      0.2028
    135  C        -24.2000    6.4930   37.7430 C.2   112  THR112      0.2642
    136  O        -24.3680    7.2780   38.6750 O.2   112  THR112     -0.2714
    137  CB       -24.6680    4.2050   38.6740 C.3   112  THR112      0.1808
    138  OG1      -24.0790    2.9250   38.9150 O.3   112  THR112     -0.2208
    139  CG2      -25.9120    4.0410   37.7840 C.3   112  THR112      0.0379
    140  N        -24.4900    6.7980   36.4750 N.am  113  THR113     -0.1950
    141  CA       -25.1830    8.0250   36.1030 C.3   113  THR113      0.1897
    142  C        -26.1940    7.6930   35.0070 C.2   113  THR113      0.2313
    143  O        -26.2020    6.5640   34.4800 O.2   113  THR113     -0.2863
    144  CB       -24.2210    9.1090   35.5340 C.3   113  THR113      0.1794
    145  OG1      -23.5810    8.6080   34.3600 O.3   113  THR113     -0.2208
    146  CG2      -23.1520    9.5230   36.5600 C.3   113  THR113      0.0378
@<TRIPOS>BOND
     1    45    44    2
     2    44    43    1
     3    73    71   ar
     4    73    74   ar
     5    76    74   ar
     6    76    78   ar
     7    71    70   ar
     8    74    72   ar
     9    43    42    1
    10    43    46    1
    11    78    77   ar
    12    70    72   ar
    13    70    69    1
    14    72    75   ar
    15    68    67    2
    16    69    66    1
    17    77    75   ar
    18    46    47    1
    19    54    55    1
    20    67    66    1
    21    66    65    1
    22    65    56   am
    23    37    36    2
    24    48    47   ar
    25    48    50   ar
    26    41    40    1
    27    47    49   ar
    28    50    52   ar
    29    55    56    1
    30    55    58    1
    31    56    57    2
    32    36    35    1
    33    84    83    1
    34    39    40    1
    35    39    38    1
    36    58    59    1
    37    61    59   ar
    38    61    63   ar
    39    49    51   ar
    40    59    60   ar
    41    63    64   ar
    42    60    62   ar
    43    64    62   ar
    44    52    51   ar
    45    52    53    1
    46    35    38    1
    47    35    34    1
    48    83    80    1
    49    83    85    1
    50    93    91    1
    51   145   144    1
    52   143   142    2
    53    27    26    2
    54    80    79    1
    55    80    81    1
    56    21    20    2
    57   142   141    1
    58    34    26   am
    59    26    25    1
    60   144   141    1
    61   144   146    1
    62    91    90    1
    63    81    82    2
    64    20    19    1
    65    20    24   am
    66   141   140    1
    67    18    19    1
    68    22    23    1
    69    22    19    1
    70    92    90    1
    71    25    24    1
    72    25    28    1
    73    87    90    1
    74    87    86    1
    75    87    88    1
    76   140   135   am
    77    30    32   ar
    78    30    29   ar
    79    88    89    2
    80   100    98    1
    81    99    98    1
    82   124   123    2
    83    28    29    1
    84     1     2    1
    85    95    94    1
    86    95    98    1
    87    95    96    1
    88    32    33   ar
    89    29    31   ar
    90   135   134    1
    91   135   136    2
    92   139   137    1
    93   134   137    1
    94   134   133    1
    95    33    31   ar
    96    96    97    2
    97   123   133   am
    98   123   122    1
    99   137   138    1
   100     2     3    1
   101     2     5    1
   102     4     3    2
   103     3    10   am
   104   125   122    1
   105   125   126    1
   106   128   130   ar
   107   128   126   ar
   108   121   122    1
   109   118   116   ar
   110   118   119   ar
   111    10    11    1
   112   130   131   ar
   113   126   127   ar
   114     6     5    1
   115     6     7    1
   116   116   114   ar
   117   120   119    1
   118    11    14    1
   119    11    12    1
   120    16    15   ar
   121   119   117   ar
   122   112   111    2
   123    14    15    1
   124     8     7    1
   125     8     9    1
   126   131   132    1
   127   131   129   ar
   128    15    17   ar
   129   114   113    1
   130   114   115   ar
   131   108   106    1
   132   106   105    1
   133   127   129   ar
   134    12    13    2
   135   101   102    1
   136   113   110    1
   137   117   115   ar
   138   111   110    1
   139   107   105    1
   140   105   102    1
   141   110   109    1
   142   102   103    1
   143   103   104    2
