@<TRIPOS>MOLECULE
tmp/3qztA00.pdb
 155 157 0 0 0
SMALL
GASTEIGER

@<TRIPOS>ATOM
      1  N         21.5640   -8.8570   21.2300 N.3    23  LYS23      -0.1245
      2  CA        22.9910   -8.5460   21.2670 C.3    23  LYS23       0.1561
      3  C         23.4150   -7.7470   20.0370 C.2    23  LYS23       0.2260
      4  O         24.3980   -7.0220   20.1280 O.2    23  LYS23      -0.2867
      5  CB        23.8460   -9.8280   21.3630 C.3    23  LYS23       0.0271
      6  CG        24.1030  -10.6080   20.1300 C.3    23  LYS23       0.0035
      7  CD        25.2800  -11.5900   20.4820 C.3    23  LYS23       0.0206
      8  CE        25.6750  -12.5030   19.3160 C.3    23  LYS23       0.1093
      9  NZ        26.9400  -13.2480   19.6820 N.3    23  LYS23      -0.1314
     10  N         22.9110   -3.0930   19.1620 N.3    26  TRP26      -0.1228
     11  CA        23.7220   -1.9470   19.6390 C.3    26  TRP26       0.1722
     12  C         23.8080   -0.7260   18.6540 C.2    26  TRP26       0.2437
     13  O         23.8160    0.4100   19.0980 O.2    26  TRP26      -0.2733
     14  CB        25.1350   -2.4190   20.1580 C.3    26  TRP26       0.0563
     15  CG        26.0080   -3.0890   19.0900 C.ar   26  TRP26       0.0003
     16  CD1       26.0890   -4.4380   18.7720 C.ar   26  TRP26       0.0946
     17  CD2       26.8810   -2.4260   18.1630 C.ar   26  TRP26       0.0152
     18  NE1       26.9690   -4.6280   17.7330 N.ar   26  TRP26      -0.2442
     19  CE2       27.4570   -3.4240   17.3300 C.ar   26  TRP26       0.0810
     20  CE3       27.2170   -1.0870   17.9510 C.ar   26  TRP26       0.0012
     21  CZ2       28.3430   -3.1260   16.2660 C.ar   26  TRP26       0.0191
     22  CZ3       28.1240   -0.7930   16.9250 C.ar   26  TRP26       0.0001
     23  CH2       28.6910   -1.8050   16.1060 C.ar   26  TRP26       0.0015
     24  N         23.8500   -0.9480   17.3300 N.am   27  PRO27      -0.2718
     25  CA        23.9690    0.2530   16.4960 C.3    27  PRO27       0.1535
     26  C         22.6950    1.0940   16.4310 C.2    27  PRO27       0.2598
     27  O         22.7280    2.1920   15.9420 O.2    27  PRO27      -0.2715
     28  CB        24.2050   -0.3020   15.1120 C.3    27  PRO27       0.0310
     29  CG        24.7190   -1.7370   15.3140 C.3    27  PRO27       0.0237
     30  CD        23.9540   -2.1900   16.5460 C.3    27  PRO27       0.0939
     31  N         21.5760    0.5080   16.8970 N.am   28  PHE28      -0.1974
     32  CA        20.2480    1.0620   16.5840 C.3    28  PHE28       0.1639
     33  C         19.5010    1.6220   17.7650 C.2    28  PHE28       0.2290
     34  O         18.3400    2.0630   17.6020 O.2    28  PHE28      -0.2864
     35  CB        19.3570   -0.0580   15.9340 C.3    28  PHE28       0.0560
     36  CG        20.0330   -0.7890   14.7630 C.ar   28  PHE28      -0.0200
     37  CD1       20.3520   -2.1380   14.9020 C.ar   28  PHE28      -0.0042
     38  CD2       20.4620   -0.1080   13.6470 C.ar   28  PHE28      -0.0042
     39  CE1       20.9730   -2.8230   13.8580 C.ar   28  PHE28      -0.0003
     40  CE2       21.1020   -0.8050   12.6070 C.ar   28  PHE28      -0.0003
     41  CZ        21.3510   -2.1610   12.7430 C.ar   28  PHE28      -0.0000
     42  N         21.6360    7.8240   15.0330 N.3    32  VAL32      -0.1245
     43  CA        23.0070    7.8590   14.5700 C.3    32  VAL32       0.1561
     44  C         23.6320    9.1690   14.9570 C.2    32  VAL32       0.2260
     45  O         23.0620   10.2460   14.7930 O.2    32  VAL32      -0.2867
     46  CB        23.0600    7.6550   13.0290 C.3    32  VAL32       0.0252
     47  CG1       24.4440    7.9210   12.5010 C.3    32  VAL32       0.0019
     48  CG2       22.6460    6.2010   12.7040 C.3    32  VAL32       0.0019
     49  N         28.7730   12.5490   14.6430 N.3    35  ASN35      -0.1225
     50  CA        30.2270   12.4300   14.8760 C.3    35  ASN35       0.1785
     51  C         30.7930   11.0840   14.4970 C.2    35  ASN35       0.2597
     52  O         31.9850   10.9240   14.2980 O.2    35  ASN35      -0.2718
     53  CB        30.5610   12.7060   16.3130 C.3    35  ASN35       0.1169
     54  CG        30.5660   14.1510   16.6150 C.2    35  ASN35       0.2627
     55  OD1       30.7530   14.9930   15.7220 O.2    35  ASN35      -0.2716
     56  ND2       30.2860   14.4670   17.8680 N.am   35  ASN35      -0.0877
     57  N         29.9110   10.0930   14.3330 N.am   36  ASP36      -0.1960
     58  CA        30.3390    8.7680   13.8760 C.3    36  ASP36       0.1840
     59  C         30.1890    8.5590   12.3700 C.2    36  ASP36       0.2622
     60  O         30.6870    7.5780   11.7740 O.2    36  ASP36      -0.2715
     61  CB        29.4570    7.7050   14.5550 C.3    36  ASP36       0.1450
     62  CG        29.6410    7.6370   16.0550 C.2    36  ASP36       0.3671
     63  OD1       28.8250    6.9010   16.6560 O.co2  36  ASP36      -0.2456
     64  OD2       30.5730    8.2920   16.6380 O.co2  36  ASP36      -0.2456
     65  N         29.4480    9.4580   11.7210 N.am   37  ALA37      -0.1964
     66  CA        29.0370    9.3190   10.2960 C.3    37  ALA37       0.1713
     67  C         28.7370   10.7420    9.7660 C.2    37  ALA37       0.2458
     68  O         27.6110   11.1760    9.7610 O.2    37  ALA37      -0.2730
     69  CB        27.7510    8.4830   10.2170 C.3    37  ALA37       0.0333
     70  N         29.7750   11.5540    9.4480 N.am   38  PRO38      -0.2716
     71  CA        29.5210   12.9950    9.3450 C.3    38  PRO38       0.1536
     72  C         28.5010   13.4420    8.2690 C.2    38  PRO38       0.2599
     73  O         27.8100   14.4630    8.5110 O.2    38  PRO38      -0.2715
     74  CB        30.9150   13.5680    9.0140 C.3    38  PRO38       0.0310
     75  CG        31.8570   12.5740    9.6120 C.3    38  PRO38       0.0237
     76  CD        31.2140   11.2430    9.3090 C.3    38  PRO38       0.0939
     77  N         28.3880   12.7010    7.1440 N.am   39  ASP39      -0.1958
     78  CA        27.4300   13.0340    6.0870 C.3    39  ASP39       0.1840
     79  C         26.1300   12.2940    6.2090 C.2    39  ASP39       0.2622
     80  O         25.2790   12.3980    5.3420 O.2    39  ASP39      -0.2715
     81  CB        28.0150   12.6820    4.7170 C.3    39  ASP39       0.1450
     82  CG        28.3510   11.2120    4.6120 C.2    39  ASP39       0.3671
     83  OD1       28.5320   10.5810    5.6960 O.co2  39  ASP39      -0.2456
     84  OD2       28.4620   10.7000    3.4570 O.co2  39  ASP39      -0.2456
     85  N         25.9540   11.5730    7.3150 N.am   40  TYR40      -0.1974
     86  CA        24.7660   10.6850    7.4080 C.3    40  TYR40       0.1639
     87  C         23.4600   11.3980    7.1480 C.2    40  TYR40       0.2290
     88  O         22.5780   10.8470    6.4440 O.2    40  TYR40      -0.2864
     89  CB        24.6980   10.0400    8.7860 C.3    40  TYR40       0.0560
     90  CG        23.6640    8.9780    8.9590 C.ar   40  TYR40      -0.0198
     91  CD1       22.3970    9.2940    9.3960 C.ar   40  TYR40      -0.0009
     92  CD2       23.9750    7.6470    8.6360 C.ar   40  TYR40      -0.0009
     93  CE1       21.4430    8.3130    9.5650 C.ar   40  TYR40       0.0417
     94  CE2       23.0510    6.6490    8.7900 C.ar   40  TYR40       0.0417
     95  CZ        21.7890    6.9930    9.2240 C.ar   40  TYR40       0.1957
     96  OH        20.8550    5.9720    9.3380 O.3    40  TYR40      -0.2866
     97  N         14.9620    1.4310    9.7450 N.3    75  ILE75      -0.1245
     98  CA        16.2040    1.2180   10.4940 C.3    75  ILE75       0.1561
     99  C         17.1360    0.3130    9.7190 C.2    75  ILE75       0.2260
    100  O         18.3300    0.6110    9.5880 O.2    75  ILE75      -0.2867
    101  CB        15.9070    0.6380   11.9140 C.3    75  ILE75       0.0252
    102  CG1       15.0130    1.6500   12.6820 C.3    75  ILE75       0.0019
    103  CG2       17.2490    0.3060   12.6470 C.3    75  ILE75       0.0019
    104  CD1       14.6010    1.1300   14.0200 C.3    75  ILE75       0.0001
    105  N         20.5490    1.3800    7.3330 N.3    79  CYS79      -0.1235
    106  CA        21.8900    0.9300    7.7250 C.3    79  CYS79       0.1677
    107  C         22.5600    0.1980    6.5710 C.2    79  CYS79       0.2270
    108  O         23.7270    0.4000    6.2990 O.2    79  CYS79      -0.2867
    109  CB        21.6680   -0.0350    8.8600 C.3    79  CYS79       0.0956
    110  SG        23.2230   -0.6760    9.5360 S.3    79  CYS79      -0.0801
    111  N         23.7170    2.8980    3.9550 N.3    82  TYR82      -0.1227
    112  CA        24.8160    3.8100    4.2890 C.3    82  TYR82       0.1736
    113  C         26.1330    3.0460    4.3830 C.2    82  TYR82       0.2595
    114  O         27.1780    3.6160    4.0550 O.2    82  TYR82      -0.2718
    115  CB        24.5070    4.5310    5.6290 C.3    82  TYR82       0.0548
    116  CG        25.5370    5.5330    5.9400 C.ar   82  TYR82      -0.0200
    117  CD1       26.5380    5.2350    6.8320 C.ar   82  TYR82      -0.0009
    118  CD2       25.4870    6.7830    5.3250 C.ar   82  TYR82      -0.0009
    119  CE1       27.5420    6.1670    7.1190 C.ar   82  TYR82       0.0417
    120  CE2       26.5060    7.7030    5.5960 C.ar   82  TYR82       0.0417
    121  CZ        27.4760    7.3640    6.5080 C.ar   82  TYR82       0.1957
    122  OH        28.5330    8.2290    6.7960 O.3    82  TYR82      -0.2866
    123  N         26.0820    1.8050    4.8850 N.am   83  ASN83      -0.1961
    124  CA        27.3060    1.0580    5.2210 C.3    83  ASN83       0.1804
    125  C         27.6590    0.0260    4.1550 C.2    83  ASN83       0.2463
    126  O         26.7750   -0.5630    3.5050 O.2    83  ASN83      -0.2730
    127  CB        27.1110    0.3650    6.5960 C.3    83  ASN83       0.1195
    128  CG        26.9150    1.3820    7.6990 C.2    83  ASN83       0.2630
    129  OD1       27.8860    2.0560    8.1280 O.2    83  ASN83      -0.2716
    130  ND2       25.6750    1.5380    8.1670 N.am   83  ASN83      -0.0877
    131  N         28.9530   -0.3080    4.0240 N.am   84  PRO84      -0.2727
    132  CA        29.3350   -1.4110    3.1550 C.3    84  PRO84       0.1402
    133  C         28.9100   -2.7550    3.6640 C.2    84  PRO84       0.2269
    134  O         28.6970   -2.9220    4.8610 O.2    84  PRO84      -0.2865
    135  CB        30.8790   -1.3000    3.1080 C.3    84  PRO84       0.0296
    136  CG        31.2220   -0.6120    4.3240 C.3    84  PRO84       0.0237
    137  CD        30.1000    0.3480    4.6560 C.3    84  PRO84       0.0939
    138  N         30.4580   -4.2430   10.3250 N.3    88  PRO88      -0.2102
    139  CA        29.7400   -4.8730   11.4480 C.3    88  PRO88       0.1504
    140  C         28.3070   -4.3090   11.5170 C.2    88  PRO88       0.2575
    141  O         27.4000   -5.0180   11.9040 O.2    88  PRO88      -0.2718
    142  CB        30.5280   -4.4690   12.6990 C.3    88  PRO88       0.0282
    143  CG        31.8170   -4.0090   12.1680 C.3    88  PRO88       0.0208
    144  CD        31.7270   -3.6480   10.7560 C.3    88  PRO88       0.0893
    145  N         28.0960   -3.0680   11.0870 N.am   89  PHE89      -0.1977
    146  CA        26.7770   -2.4530   11.1110 C.3    89  PHE89       0.1639
    147  C         25.8230   -3.1540   10.1450 C.2    89  PHE89       0.2290
    148  O         24.6910   -3.4450   10.5120 O.2    89  PHE89      -0.2864
    149  CB        26.8960   -0.9920   10.7500 C.3    89  PHE89       0.0560
    150  CG        27.7890   -0.2440   11.6880 C.ar   89  PHE89      -0.0200
    151  CD1       27.3480   -0.0170   12.9730 C.ar   89  PHE89      -0.0042
    152  CD2       29.0640    0.1260   11.3320 C.ar   89  PHE89      -0.0042
    153  CE1       28.1680    0.6490   13.9070 C.ar   89  PHE89      -0.0003
    154  CE2       29.8920    0.7680   12.3290 C.ar   89  PHE89      -0.0003
    155  CZ        29.4140    1.0240   13.5380 C.ar   89  PHE89      -0.0000
@<TRIPOS>BOND
     1   135   132    1
     2   135   136    1
     3   132   133    1
     4   132   131    1
     5    84    82   ar
     6   126   125    2
     7   133   134    2
     8   111   112    1
     9   131   125   am
    10   131   137    1
    11   114   113    2
    12   125   124    1
    13   112   113    1
    14   112   115    1
    15   136   137    1
    16   113   123   am
    17    82    81    1
    18    82    83   ar
    19    81    78    1
    20   123   124    1
    21   124   127    1
    22   118   120   ar
    23   118   116   ar
    24    80    79    2
    25   120   121   ar
    26   115   116    1
    27   116   117   ar
    28    78    79    1
    29    78    77    1
    30    79    85   am
    31   108   107    2
    32    88    87    2
    33   121   122    1
    34   121   119   ar
    35   107   106    1
    36   127   128    1
    37   117   119   ar
    38    77    72   am
    39    87    86    1
    40    85    86    1
    41   105   106    1
    42    86    89    1
    43   128   129    2
    44   128   130   am
    45   106   109    1
    46    72    73    2
    47    72    71    1
    48    92    94   ar
    49    92    90   ar
    50    89    90    1
    51    94    95   ar
    52   109   110    1
    53    90    91   ar
    54    74    71    1
    55    74    75    1
    56    95    96    1
    57    95    93   ar
    58    76    70    1
    59    76    75    1
    60    71    70    1
    61    91    93   ar
    62    70    67   am
    63   100    99    2
    64    99    98    1
    65    97    98    1
    66    68    67    2
    67    67    66    1
    68   147   148    2
    69   147   146    1
    70    69    66    1
    71    66    65    1
    72   138   144    1
    73   138   139    1
    74    98   101    1
    75   149   146    1
    76   149   150    1
    77   144   143    1
    78   145   146    1
    79   145   140   am
    80   152   150   ar
    81   152   154   ar
    82   139   140    1
    83   139   142    1
    84   140   141    2
    85   150   151   ar
    86    65    59   am
    87    60    59    2
    88   101   103    1
    89   101   102    1
    90   143   142    1
    91   154   155   ar
    92    59    58    1
    93    47    46    1
    94    40    41   ar
    95    40    38   ar
    96   102   104    1
    97    48    46    1
    98    41    39   ar
    99   151   153   ar
   100    46    43    1
   101   155   153   ar
   102    38    36   ar
   103    39    37   ar
   104    58    57    1
   105    58    61    1
   106    52    51    2
   107    57    51   am
   108    51    50    1
   109    61    62    1
   110    43    44    1
   111    43    42    1
   112    49    50    1
   113    36    37   ar
   114    36    35    1
   115    45    44    2
   116    50    53    1
   117    28    29    1
   118    28    25    1
   119    29    30    1
   120    55    54    2
   121    35    32    1
   122    27    26    2
   123    62    64   ar
   124    62    63   ar
   125    23    21   ar
   126    23    22   ar
   127    21    19   ar
   128    53    54    1
   129    26    25    1
   130    26    31   am
   131    25    24    1
   132    30    24    1
   133    32    31    1
   134    32    33    1
   135    54    56   am
   136    22    20   ar
   137    24    12   am
   138    19    18   ar
   139    19    17   ar
   140    34    33    2
   141    18    16   ar
   142    20    17   ar
   143    17    15   ar
   144    12    13    2
   145    12    11    1
   146    16    15   ar
   147    15    14    1
   148    10    11    1
   149     8     9    1
   150     8     7    1
   151    11    14    1
   152     3     4    2
   153     3     2    1
   154     6     7    1
   155     6     5    1
   156     1     2    1
   157     2     5    1
