@<TRIPOS>MOLECULE
tmp/3r00A00.pdb
 142 133 0 0 0
SMALL
GASTEIGER

@<TRIPOS>ATOM
      1  N        -24.9770  -33.9710    4.7510 N.3    12  LEU12      -0.1245
      2  CA       -24.1120  -35.0890    5.1770 C.3    12  LEU12       0.1561
      3  C        -22.9110  -34.5600    5.9400 C.2    12  LEU12       0.2260
      4  O        -22.4070  -35.2310    6.8220 O.2    12  LEU12      -0.2867
      5  CB       -23.6570  -35.9440    3.9740 C.3    12  LEU12       0.0270
      6  CG       -24.7590  -36.7120    3.2350 C.3    12  LEU12       0.0019
      7  CD1      -24.2940  -37.4000    1.8710 C.3    12  LEU12       0.0001
      8  CD2      -25.3870  -37.7610    4.1920 C.3    12  LEU12       0.0001
      9  N        -13.8360  -28.5070    2.4870 N.3    17  PHE17      -0.1241
     10  CA       -14.3310  -28.9040    1.1260 C.3    17  PHE17       0.1605
     11  C        -15.6400  -28.1720    0.7040 C.2    17  PHE17       0.2264
     12  O        -15.9670  -28.2110   -0.4730 O.2    17  PHE17      -0.2867
     13  CB       -14.5960  -30.4470    1.0210 C.3    17  PHE17       0.0534
     14  CG       -15.4890  -30.9810    2.1220 C.ar   17  PHE17      -0.0203
     15  CD1      -16.8860  -31.0750    1.9440 C.ar   17  PHE17      -0.0042
     16  CD2      -14.9220  -31.4290    3.3470 C.ar   17  PHE17      -0.0042
     17  CE1      -17.7100  -31.5880    2.9860 C.ar   17  PHE17      -0.0003
     18  CE2      -15.7470  -31.9280    4.3940 C.ar   17  PHE17      -0.0003
     19  CZ       -17.1470  -32.0160    4.1920 C.ar   17  PHE17      -0.0000
     20  N        -22.0040  -30.8050    1.7760 N.3    20  VAL20      -0.1245
     21  CA       -22.4240  -31.8970    0.9160 C.3    20  VAL20       0.1561
     22  C        -23.7170  -32.4270    1.4320 C.2    20  VAL20       0.2260
     23  O        -23.8210  -32.7320    2.6230 O.2    20  VAL20      -0.2867
     24  CB       -21.3630  -33.0880    0.9120 C.3    20  VAL20       0.0252
     25  CG1      -21.7720  -34.1810   -0.0180 C.3    20  VAL20       0.0019
     26  CG2      -20.0310  -32.5840    0.4750 C.3    20  VAL20       0.0019
     27  N        -24.8900  -37.3260   -4.2540 N.3    33  ALA33      -0.1245
     28  CA       -24.4370  -36.3700   -3.2470 C.3    33  ALA33       0.1562
     29  C        -24.2990  -35.0450   -3.9700 C.2    33  ALA33       0.2260
     30  O        -23.7810  -34.9970   -5.0750 O.2    33  ALA33      -0.2867
     31  CB       -23.0580  -36.8420   -2.5990 C.3    33  ALA33       0.0290
     32  N        -22.6730  -31.4720   -3.7550 N.3    35  LYS35      -0.1245
     33  CA       -21.6110  -30.7670   -3.0630 C.3    35  LYS35       0.1561
     34  C        -21.5220  -29.3390   -3.5090 C.2    35  LYS35       0.2260
     35  O        -21.3710  -29.0760   -4.7320 O.2    35  LYS35      -0.2867
     36  CB       -20.2710  -31.4740   -3.3550 C.3    35  LYS35       0.0271
     37  CG       -19.0490  -30.7020   -2.7650 C.3    35  LYS35       0.0035
     38  CD       -17.8040  -31.6200   -2.8920 C.3    35  LYS35       0.0206
     39  CE       -16.5490  -31.0250   -2.1720 C.3    35  LYS35       0.1093
     40  NZ       -15.2820  -31.8620   -2.4720 N.3    35  LYS35      -0.1314
     41  N        -10.9570  -28.7340   -9.1630 N.3    57  GLU57      -0.1245
     42  CA       -11.6320  -29.9590   -8.6890 C.3    57  GLU57       0.1567
     43  C        -12.5210  -30.5750   -9.7720 C.2    57  GLU57       0.2260
     44  O        -12.5330  -31.7870   -9.9380 O.2    57  GLU57      -0.2867
     45  CB       -12.4490  -29.6820   -7.3970 C.3    57  GLU57       0.0388
     46  CG       -13.3120  -30.9050   -6.9020 C.3    57  GLU57       0.1160
     47  CD       -13.9880  -30.5920   -5.5400 C.2    57  GLU57       0.3649
     48  OE1      -13.8500  -29.4560   -5.0370 O.co2  57  GLU57      -0.2457
     49  OE2      -14.6550  -31.4690   -4.9800 O.co2  57  GLU57      -0.2457
     50  N        -11.9220  -34.2190  -11.5380 N.3    61  LEU61      -0.1245
     51  CA       -12.9920  -35.2670  -11.4850 C.3    61  LEU61       0.1561
     52  C        -13.3540  -35.8120  -12.8650 C.2    61  LEU61       0.2260
     53  O        -13.6700  -37.0240  -13.0630 O.2    61  LEU61      -0.2867
     54  CB       -14.2590  -34.7080  -10.7880 C.3    61  LEU61       0.0270
     55  CG       -14.2200  -34.6770   -9.2440 C.3    61  LEU61       0.0019
     56  CD1      -15.2700  -33.6390   -8.6220 C.3    61  LEU61       0.0001
     57  CD2      -14.3980  -36.0550   -8.6850 C.3    61  LEU61       0.0001
     58  N        -14.6500  -41.9220   -7.0460 N.3    72  ILE72      -0.1245
     59  CA       -15.9920  -41.3760   -7.1370 C.3    72  ILE72       0.1561
     60  C        -16.2550  -40.8400   -8.5770 C.2    72  ILE72       0.2260
     61  O        -15.3070  -40.2810   -9.2240 O.2    72  ILE72      -0.2867
     62  CB       -16.1940  -40.2830   -6.0340 C.3    72  ILE72       0.0252
     63  CG1      -17.6180  -40.4160   -5.4100 C.3    72  ILE72       0.0019
     64  CG2      -15.6390  -38.8960   -6.4730 C.3    72  ILE72       0.0019
     65  CD1      -18.5490  -39.5890   -6.0530 C.3    72  ILE72       0.0001
     66  N        -22.5410  -35.9120   -7.4340 N.3    88  LEU88      -0.1231
     67  CA       -21.5890  -36.9930   -7.3630 C.3    88  LEU88       0.1693
     68  C        -22.3590  -38.2460   -7.1140 C.2    88  LEU88       0.2592
     69  O        -23.4000  -38.2340   -6.4740 O.2    88  LEU88      -0.2718
     70  CB       -20.5800  -36.7300   -6.2040 C.3    88  LEU88       0.0284
     71  CG       -19.6680  -35.5490   -6.5200 C.3    88  LEU88       0.0019
     72  CD1      -19.3760  -34.6170   -5.3850 C.3    88  LEU88       0.0001
     73  CD2      -18.3460  -36.1140   -7.1350 C.3    88  LEU88       0.0001
     74  N        -21.8230  -39.3580   -7.5620 N.am   89  GLU89      -0.1966
     75  CA       -22.4130  -40.6380   -7.1990 C.3    89  GLU89       0.1733
     76  C        -22.4520  -40.8880   -5.7000 C.2    89  GLU89       0.2616
     77  O        -21.6190  -40.3620   -4.9330 O.2    89  GLU89      -0.2715
     78  CB       -21.6510  -41.7490   -7.9610 C.3    89  GLU89       0.0429
     79  CG       -20.9460  -42.6930   -7.0860 C.3    89  GLU89       0.1163
     80  CD       -20.0230  -43.6220   -7.8830 C.2    89  GLU89       0.3649
     81  OE1      -18.8830  -43.2070   -8.1870 O.co2  89  GLU89      -0.2457
     82  OE2      -20.4450  -44.7670   -8.2040 O.co2  89  GLU89      -0.2457
     83  N        -23.4770  -41.5960   -5.2270 N.am   90  ARG90      -0.1964
     84  CA       -23.6000  -41.8670   -3.7560 C.3    90  ARG90       0.1714
     85  C        -23.9710  -43.3280   -3.5580 C.2    90  ARG90       0.2458
     86  O        -25.0190  -43.7180   -3.9670 O.2    90  ARG90      -0.2730
     87  CB       -24.6670  -40.9830   -3.0700 C.3    90  ARG90       0.0347
     88  CG       -25.0250  -41.4010   -1.5780 C.3    90  ARG90       0.0492
     89  CD       -25.8620  -40.3470   -0.8390 C.3    90  ARG90       0.2205
     90  NE       -27.2080  -40.1330   -1.4310 N.pl3  90  ARG90      -0.0865
     91  CZ       -28.2690  -40.8870   -1.1420 C.cat  90  ARG90       0.5346
     92  NH1      -28.1380  -41.9210   -0.3010 N.pl3  90  ARG90       0.1354
     93  NH2      -29.4570  -40.6260   -1.7230 N.pl3  90  ARG90       0.1354
     94  N        -23.0920  -44.1450   -2.9560 N.am   91  PRO91      -0.2727
     95  CA       -23.4520  -45.5380   -2.6550 C.3    91  PRO91       0.1402
     96  C        -24.3780  -45.5360   -1.4910 C.2    91  PRO91       0.2269
     97  O        -24.3540  -44.6050   -0.6590 O.2    91  PRO91      -0.2865
     98  CB       -22.1080  -46.1710   -2.2080 C.3    91  PRO91       0.0296
     99  CG       -21.0370  -45.2340   -2.8860 C.3    91  PRO91       0.0237
    100  CD       -21.6480  -43.8830   -2.7060 C.3    91  PRO91       0.0939
    101  N        -23.6460  -46.5070    2.8280 N.3    94  VAL94      -0.1245
    102  CA       -22.2600  -46.0710    2.6830 C.3    94  VAL94       0.1561
    103  C        -21.7770  -45.6970    4.0910 C.2    94  VAL94       0.2260
    104  O        -22.6110  -45.3440    4.9620 O.2    94  VAL94      -0.2867
    105  CB       -22.1600  -44.8840    1.6450 C.3    94  VAL94       0.0252
    106  CG1      -22.6780  -43.5200    2.3040 C.3    94  VAL94       0.0019
    107  CG2      -20.7410  -44.6820    1.1420 C.3    94  VAL94       0.0019
    108  N        -14.7660  -43.7080    0.9090 N.3   142  LEU142     -0.1245
    109  CA       -16.0930  -44.1930    1.2300 C.3   142  LEU142      0.1561
    110  C        -16.0790  -45.6710    1.0470 C.2   142  LEU142      0.2260
    111  O        -15.4380  -46.1880    0.1080 O.2   142  LEU142     -0.2867
    112  CB       -17.1790  -43.6190    0.3250 C.3   142  LEU142      0.0270
    113  CG       -17.3400  -42.1040    0.4040 C.3   142  LEU142      0.0019
    114  CD1      -18.4800  -41.7170   -0.5550 C.3   142  LEU142      0.0001
    115  CD2      -17.6140  -41.6600    1.8700 C.3   142  LEU142      0.0001
    116  N        -12.7740  -40.1020   -2.6230 N.3   153  ILE153     -0.1231
    117  CA       -13.5640  -38.9110   -2.9380 C.3   153  ILE153      0.1692
    118  C        -12.7510  -37.6600   -2.6220 C.2   153  ILE153      0.2592
    119  O        -11.6020  -37.7280   -2.1260 O.2   153  ILE153     -0.2718
    120  CB       -14.8800  -38.8050   -2.0050 C.3   153  ILE153      0.0266
    121  CG1      -14.4550  -38.9120   -0.5220 C.3   153  ILE153      0.0019
    122  CG2      -15.8330  -40.0050   -2.3450 C.3   153  ILE153      0.0020
    123  CD1      -15.4730  -38.2140    0.6140 C.3   153  ILE153      0.0001
    124  N        -13.3810  -36.5070   -2.8750 N.am  154  ASP154     -0.1960
    125  CA       -12.8150  -35.1940   -2.4920 C.3   154  ASP154      0.1840
    126  C        -11.4830  -34.7970   -3.1500 C.2   154  ASP154      0.2622
    127  O        -10.4240  -34.8220   -2.5440 O.2   154  ASP154     -0.2715
    128  CB       -12.7670  -34.9970   -1.0030 C.3   154  ASP154      0.1450
    129  CG       -12.6570  -33.4850   -0.6200 C.2   154  ASP154      0.3671
    130  OD1      -12.5510  -32.6350   -1.5390 O.co2 154  ASP154     -0.2456
    131  OD2      -12.6380  -33.1640    0.6040 O.co2 154  ASP154     -0.2456
    132  N        -11.5990  -34.3480   -4.3890 N.am  155  PHE155     -0.1974
    133  CA       -10.4780  -33.9070   -5.1490 C.3   155  PHE155      0.1639
    134  C        -10.2610  -32.4330   -5.0100 C.2   155  PHE155      0.2290
    135  O         -9.5040  -31.8360   -5.8130 O.2   155  PHE155     -0.2864
    136  CB       -10.6800  -34.2810   -6.6260 C.3   155  PHE155      0.0560
    137  CG       -10.4600  -35.7430   -6.8720 C.ar  155  PHE155     -0.0200
    138  CD1      -11.4450  -36.7000   -6.5150 C.ar  155  PHE155     -0.0042
    139  CD2       -9.2580  -36.1650   -7.4430 C.ar  155  PHE155     -0.0042
    140  CE1      -11.2280  -38.0720   -6.7150 C.ar  155  PHE155     -0.0003
    141  CE2       -9.0160  -37.5450   -7.6410 C.ar  155  PHE155     -0.0003
    142  CZ        -9.9990  -38.5070   -7.3040 C.ar  155  PHE155     -0.0000
@<TRIPOS>BOND
     1    53    52    2
     2    52    51    1
     3    50    51    1
     4    51    54    1
     5    54    55    1
     6    44    43    2
     7    43    42    1
     8    55    57    1
     9    55    56    1
    10    61    60    2
    11    41    42    1
    12    42    45    1
    13    60    59    1
    14    82    80   ar
    15    81    80   ar
    16    78    75    1
    17    78    79    1
    18    80    79    1
    19   141   139   ar
    20   141   142   ar
    21    74    75    1
    22    74    68   am
    23   139   137   ar
    24    66    67    1
    25    45    46    1
    26    67    68    1
    27    67    70    1
    28   142   140   ar
    29    75    76    1
    30    59    58    1
    31    59    62    1
    32    73    71    1
    33    68    69    2
    34    46    47    1
    35   137   136    1
    36   137   138   ar
    37   140   138   ar
    38   136   133    1
    39    71    70    1
    40    71    72    1
    41    64    62    1
    42    65    63    1
    43    62    63    1
    44   135   134    2
    45    76    83   am
    46    76    77    2
    47    47    48   ar
    48    47    49   ar
    49    83    84    1
    50   133   134    1
    51   133   132    1
    52    30    29    2
    53    35    34    2
    54   132   126   am
    55    27    28    1
    56    29    28    1
    57    86    85    2
    58    84    85    1
    59    84    87    1
    60    32    33    1
    61    85    94   am
    62    34    33    1
    63    36    33    1
    64    36    37    1
    65    28    31    1
    66   126   127    2
    67   126   125    1
    68    87    88    1
    69    94   100    1
    70    94    95    1
    71   117   116    1
    72   117   118    1
    73   117   120    1
    74    38    37    1
    75    38    39    1
    76    99   100    1
    77    99    98    1
    78   124   118   am
    79   124   125    1
    80    95    98    1
    81    95    96    1
    82   118   119    2
    83   125   128    1
    84    40    39    1
    85   122   120    1
    86   120   121    1
    87    93    91    1
    88    88    89    1
    89   130   129   ar
    90    96    97    2
    91    90    91    2
    92    90    89    1
    93    91    92    1
    94   128   129    1
    95   129   131   ar
    96   114   113    1
    97   121   123    1
    98    12    11    2
    99    25    24    1
   100   111   110    2
   101   112   113    1
   102   112   109    1
   103   113   115    1
   104    26    24    1
   105    11    10    1
   106   108   109    1
   107    24    21    1
   108    21    22    1
   109    21    20    1
   110    13    10    1
   111    13    14    1
   112   110   109    1
   113    10     9    1
   114   107   105    1
   115    22    23    2
   116   105   106    1
   117   105   102    1
   118     7     6    1
   119    15    14   ar
   120    15    17   ar
   121    14    16   ar
   122   102   101    1
   123   102   103    1
   124    17    19   ar
   125     6     5    1
   126     6     8    1
   127    16    18   ar
   128     5     2    1
   129   103   104    2
   130    19    18   ar
   131     1     2    1
   132     2     3    1
   133     3     4    2
