@<TRIPOS>MOLECULE
tmp/3r01A00.pdb
 146 137 0 0 0
SMALL
GASTEIGER

@<TRIPOS>ATOM
      1  N         17.1230   38.6960   -4.4940 N.3    12  LEU12      -0.1231
      2  CA        18.5380   38.5430   -4.8910 C.3    12  LEU12       0.1693
      3  C         18.8130   37.2790   -5.6810 C.2    12  LEU12       0.2592
      4  O         19.6420   37.2900   -6.6080 O.2    12  LEU12      -0.2718
      5  CB        19.4750   38.6630   -3.7060 C.3    12  LEU12       0.0284
      6  CG        19.5410   40.0910   -3.1030 C.3    12  LEU12       0.0019
      7  CD1       20.2420   40.1930   -1.7730 C.3    12  LEU12       0.0001
      8  CD2       20.1850   41.0250   -4.0750 C.3    12  LEU12       0.0001
      9  N         18.1080   36.1980   -5.3480 N.am   13  GLY13      -0.1957
     10  CA        18.2650   34.9480   -6.0520 C.3    13  GLY13       0.1869
     11  C         17.2100   33.9840   -5.5570 C.2    13  GLY13       0.2309
     12  O         16.5410   34.2570   -4.5330 O.2    13  GLY13      -0.2863
     13  N         17.9640   26.5360   -2.6400 N.3    17  PHE17      -0.1241
     14  CA        18.0760   27.1340   -1.2990 C.3    17  PHE17       0.1605
     15  C         16.8290   27.9390   -0.9110 C.2    17  PHE17       0.2264
     16  O         16.7550   28.4200    0.2370 O.2    17  PHE17      -0.2867
     17  CB        19.2900   28.0760   -1.2320 C.3    17  PHE17       0.0534
     18  CG        19.4040   29.0270   -2.4100 C.ar   17  PHE17      -0.0203
     19  CD1       18.9140   30.3320   -2.3100 C.ar   17  PHE17      -0.0042
     20  CD2       19.9990   28.6010   -3.6230 C.ar   17  PHE17      -0.0042
     21  CE1       19.0140   31.2500   -3.4130 C.ar   17  PHE17      -0.0003
     22  CE2       20.1150   29.4850   -4.7360 C.ar   17  PHE17      -0.0003
     23  CZ        19.6240   30.8340   -4.6280 C.ar   17  PHE17      -0.0000
     24  N         15.8900   34.4660   -1.6970 N.3    20  VAL20      -0.1245
     25  CA        16.6170   35.3910   -0.8220 C.3    20  VAL20       0.1561
     26  C         16.3950   36.8270   -1.2760 C.2    20  VAL20       0.2260
     27  O         16.7120   37.1170   -2.4160 O.2    20  VAL20      -0.2867
     28  CB        18.1490   35.0520   -0.7740 C.3    20  VAL20       0.0252
     29  CG1       18.9440   36.0420    0.0530 C.3    20  VAL20       0.0019
     30  CG2       18.3630   33.6590   -0.2240 C.3    20  VAL20       0.0019
     31  N         20.0870   40.0350    4.4570 N.3    33  ALA33      -0.1245
     32  CA        19.5320   39.2230    3.3820 C.3    33  ALA33       0.1562
     33  C         18.5060   38.4040    4.0820 C.2    33  ALA33       0.2260
     34  O         18.7930   37.9080    5.1440 O.2    33  ALA33      -0.2867
     35  CB        20.5850   38.3240    2.6690 C.3    33  ALA33       0.0290
     36  N         15.9740   35.2450    3.9370 N.3    35  LYS35      -0.1245
     37  CA        15.9210   33.9790    3.2340 C.3    35  LYS35       0.1561
     38  C         14.6770   33.1880    3.6090 C.2    35  LYS35       0.2260
     39  O         14.4000   32.9560    4.7850 O.2    35  LYS35      -0.2867
     40  CB        17.1790   33.1800    3.5580 C.3    35  LYS35       0.0271
     41  CG        17.2530   31.8580    2.8690 C.3    35  LYS35       0.0035
     42  CD        18.5590   31.1160    3.2070 C.3    35  LYS35       0.0206
     43  CE        18.7270   29.9430    2.2670 C.3    35  LYS35       0.1093
     44  NZ        20.0320   29.3020    2.3360 N.3    35  LYS35      -0.1314
     45  N         19.6020   23.7480    9.0240 N.3    57  GLU57      -0.1245
     46  CA        20.2660   24.9750    8.6390 C.3    57  GLU57       0.1567
     47  C         20.4580   25.9480    9.7800 C.2    57  GLU57       0.2260
     48  O         21.5050   26.5670    9.9150 O.2    57  GLU57      -0.2867
     49  CB        19.5370   25.6530    7.4670 C.3    57  GLU57       0.0388
     50  CG        20.3290   26.7730    6.8270 C.3    57  GLU57       0.1160
     51  CD        19.7650   27.2800    5.4910 C.2    57  GLU57       0.3649
     52  OE1       18.9290   26.5800    4.8480 O.co2  57  GLU57      -0.2457
     53  OE2       20.2030   28.3880    5.0650 O.co2  57  GLU57      -0.2457
     54  N         23.8380   27.2920   11.5040 N.3    61  LEU61      -0.1245
     55  CA        24.1800   28.7180   11.5830 C.3    61  LEU61       0.1561
     56  C         24.3690   29.1940   13.0150 C.2    61  LEU61       0.2260
     57  O         25.2040   30.0480   13.2730 O.2    61  LEU61      -0.2867
     58  CB        23.1650   29.6280   10.8630 C.3    61  LEU61       0.0270
     59  CG        23.0850   29.6130    9.3270 C.3    61  LEU61       0.0019
     60  CD1       21.6910   30.0920    8.8170 C.3    61  LEU61       0.0001
     61  CD2       24.2500   30.3380    8.6490 C.3    61  LEU61       0.0001
     62  N         29.0680   33.5630    7.0450 N.3    72  ILE72      -0.1245
     63  CA        27.9160   34.4330    7.2120 C.3    72  ILE72       0.1561
     64  C         27.3100   34.2750    8.6390 C.2    72  ILE72       0.2260
     65  O         27.2370   33.1230    9.1210 O.2    72  ILE72      -0.2867
     66  CB        26.8540   34.1160    6.1490 C.3    72  ILE72       0.0252
     67  CG1       25.9990   35.3450    5.9260 C.3    72  ILE72       0.0019
     68  CG2       26.0180   32.8650    6.5190 C.3    72  ILE72       0.0019
     69  CD1       26.5830   36.1990    4.7600 C.3    72  ILE72       0.0001
     70  N         19.9680   37.1500    7.5730 N.3    88  LEU88      -0.1231
     71  CA        21.4040   36.9290    7.5510 C.3    88  LEU88       0.1693
     72  C         22.0850   38.2140    7.2320 C.2    88  LEU88       0.2592
     73  O         21.4650   39.1150    6.6950 O.2    88  LEU88      -0.2718
     74  CB        21.7780   35.8890    6.4770 C.3    88  LEU88       0.0284
     75  CG        21.1020   34.5600    6.7260 C.3    88  LEU88       0.0019
     76  CD1       20.5600   34.0410    5.4510 C.3    88  LEU88       0.0001
     77  CD2       22.1310   33.5960    7.3430 C.3    88  LEU88       0.0001
     78  N         23.3750   38.2940    7.5070 N.am   89  GLU89      -0.1966
     79  CA        24.0900   39.5080    7.1710 C.3    89  GLU89       0.1733
     80  C         24.2230   39.7030    5.6800 C.2    89  GLU89       0.2616
     81  O         24.0970   38.7250    4.9010 O.2    89  GLU89      -0.2715
     82  CB        25.4380   39.5190    7.8510 C.3    89  GLU89       0.0429
     83  CG        26.5430   38.9490    7.0670 C.3    89  GLU89       0.1163
     84  CD        27.8090   38.9410    7.9020 C.2    89  GLU89       0.3649
     85  OE1       28.1250   37.8850    8.4950 O.co2  89  GLU89      -0.2457
     86  OE2       28.4640   40.0120    7.9920 O.co2  89  GLU89      -0.2457
     87  N         24.3900   40.9540    5.2700 N.am   90  ARG90      -0.1964
     88  CA        24.6040   41.2670    3.8660 C.3    90  ARG90       0.1717
     89  C         25.6730   42.3410    3.7030 C.2    90  ARG90       0.2495
     90  O         25.4440   43.4890    4.0170 O.2    90  ARG90      -0.2727
     91  CB        23.2970   41.7240    3.1800 C.3    90  ARG90       0.0348
     92  CG        23.4520   42.3580    1.7450 C.3    90  ARG90       0.0492
     93  CD        22.0710   42.4730    1.0450 C.3    90  ARG90       0.2205
     94  NE        21.2720   43.5530    1.6380 N.pl3  90  ARG90      -0.0865
     95  CZ        21.4390   44.8350    1.3080 C.cat  90  ARG90       0.5346
     96  NH1       22.3910   45.1550    0.4170 N.pl3  90  ARG90       0.1354
     97  NH2       20.7060   45.7900    1.8780 N.pl3  90  ARG90       0.1354
     98  N         26.8490   41.9460    3.2350 N.am   91  PRO91      -0.2504
     99  CA        27.9130   42.8930    2.9020 C.3    91  PRO91       0.1487
    100  C         27.5020   43.7290    1.6960 C.2    91  PRO91       0.2276
    101  O         26.6350   43.3350    0.9170 O.2    91  PRO91      -0.2865
    102  CB        29.1220   41.9990    2.5490 C.3    91  PRO91       0.0556
    103  CG        28.6430   40.5900    2.4930 C.2    91  PRO91      -0.0078
    104  CD        27.1760   40.5360    2.9040 C.2    91  PRO91       0.0634
    105  N         28.6560   43.5970   -2.8860 N.3    94  VAL94      -0.1245
    106  CA        28.9170   42.1940   -2.7480 C.3    94  VAL94       0.1561
    107  C         28.7550   41.5150   -4.1200 C.2    94  VAL94       0.2260
    108  O         28.0320   42.0000   -4.9880 O.2    94  VAL94      -0.2867
    109  CB        27.8950   41.5820   -1.7530 C.3    94  VAL94       0.0252
    110  CG1       26.4790   41.6370   -2.3760 C.3    94  VAL94       0.0019
    111  CG2       28.2450   40.1480   -1.3980 C.3    94  VAL94       0.0019
    112  N         30.6210   34.4800   -0.9410 N.3   142  LEU142     -0.1245
    113  CA        30.3990   35.8850   -1.2650 C.3   142  LEU142      0.1561
    114  C         31.6570   36.6590   -1.0290 C.2   142  LEU142      0.2260
    115  O         32.3500   36.4460   -0.0490 O.2   142  LEU142     -0.2867
    116  CB        29.3410   36.5000   -0.3700 C.3   142  LEU142      0.0270
    117  CG        27.9670   35.8660   -0.3770 C.3   142  LEU142      0.0019
    118  CD1       27.0390   36.7170    0.5740 C.3   142  LEU142      0.0001
    119  CD2       27.4150   35.7540   -1.8450 C.3   142  LEU142      0.0001
    120  N         28.4960   30.7950    2.6370 N.3   153  ILE153     -0.1231
    121  CA        27.0780   30.9730    2.8560 C.3   153  ILE153      0.1692
    122  C         26.3550   29.6600    2.5450 C.2   153  ILE153      0.2592
    123  O         26.9570   28.7320    1.9800 O.2   153  ILE153     -0.2718
    124  CB        26.4620   32.0980    1.9510 C.3   153  ILE153      0.0266
    125  CG1       26.6280   31.7540    0.4790 C.3   153  ILE153      0.0019
    126  CG2       27.0750   33.5140    2.2490 C.3   153  ILE153      0.0020
    127  CD1       25.6720   32.5110   -0.4060 C.3   153  ILE153      0.0001
    128  N         25.0790   29.5790    2.9380 N.am  154  ASP154     -0.1960
    129  CA        24.2030   28.5130    2.4970 C.3   154  ASP154      0.1840
    130  C         24.5470   27.1600    3.1020 C.2   154  ASP154      0.2622
    131  O         25.0720   26.2400    2.4330 O.2   154  ASP154     -0.2715
    132  CB        24.1040   28.4560    0.9670 C.3   154  ASP154      0.1450
    133  CG        22.9200   27.5990    0.4700 C.2   154  ASP154      0.3671
    134  OD1       22.1880   26.9430    1.2680 O.co2 154  ASP154     -0.2456
    135  OD2       22.7450   27.5520   -0.7900 O.co2 154  ASP154     -0.2456
    136  N         24.1640   27.0540    4.3600 N.am  155  PHE155     -0.1974
    137  CA        24.3070   25.8560    5.1580 C.3   155  PHE155      0.1639
    138  C         23.1570   24.8600    4.9750 C.2   155  PHE155      0.2290
    139  O         22.9740   23.9020    5.7400 O.2   155  PHE155     -0.2864
    140  CB        24.5490   26.2660    6.6150 C.3   155  PHE155      0.0560
    141  CG        25.9610   26.8070    6.8570 C.ar  155  PHE155     -0.0200
    142  CD1       26.2790   28.1500    6.6090 C.ar  155  PHE155     -0.0042
    143  CD2       26.9570   25.9750    7.3530 C.ar  155  PHE155     -0.0042
    144  CE1       27.5590   28.6730    6.8410 C.ar  155  PHE155     -0.0003
    145  CE2       28.2630   26.4810    7.5970 C.ar  155  PHE155     -0.0003
    146  CZ        28.5630   27.8390    7.3290 C.ar  155  PHE155     -0.0000
@<TRIPOS>BOND
     1     4     3    2
     2    10    11    1
     3    10     9    1
     4     3     9   am
     5     3     2    1
     6    11    12    2
     7   108   107    2
     8     2     1    1
     9     2     5    1
    10    22    23   ar
    11    22    20   ar
    12    23    21   ar
    13   107   106    1
    14     8     6    1
    15     5     6    1
    16    20    18   ar
    17    21    19   ar
    18     6     7    1
    19   105   106    1
    20   106   109    1
    21    13    14    1
    22    27    26    2
    23    18    19   ar
    24    18    17    1
    25   110   109    1
    26   119   117    1
    27   109   111    1
    28    24    25    1
    29    14    17    1
    30    14    15    1
    31    26    25    1
    32   113   114    1
    33   113   112    1
    34   113   116    1
    35   114   115    2
    36    15    16    2
    37    25    28    1
    38   135   133   ar
    39    28    30    1
    40    28    29    1
    41   127   125    1
    42   117   116    1
    43   117   118    1
    44    96    95    1
    45   133   132    1
    46   133   134   ar
    47   125   124    1
    48   101   100    2
    49   132   129    1
    50    93    94    1
    51    93    92    1
    52    95    94    2
    53    95    97    1
    54   100    99    1
    55    92    91    1
    56   124   126    1
    57   124   121    1
    58   123   122    2
    59    43    44    1
    60    43    42    1
    61   131   130    2
    62   103   102    1
    63   103   104    2
    64   129   128    1
    65   129   130    1
    66   122   121    1
    67   122   128   am
    68   102    99    1
    69   120   121    1
    70    35    32    1
    71    41    42    1
    72    41    40    1
    73    99    98    1
    74   104    98    1
    75   130   136   am
    76    91    88    1
    77    37    40    1
    78    37    38    1
    79    37    36    1
    80    98    89   am
    81    32    33    1
    82    32    31    1
    83    38    39    2
    84    89    88    1
    85    89    90    2
    86    88    87    1
    87    33    34    2
    88   136   137    1
    89    69    67    1
    90    52    51   ar
    91    81    80    2
    92   138   137    1
    93   138   139    2
    94    53    51   ar
    95   137   140    1
    96    87    80   am
    97    76    75    1
    98    51    50    1
    99    80    79    1
   100    67    66    1
   101    66    68    1
   102    66    63    1
   103    74    75    1
   104    74    71    1
   105   142   144   ar
   106   142   141   ar
   107   140   141    1
   108    73    72    2
   109    75    77    1
   110    50    49    1
   111   144   146   ar
   112   141   143   ar
   113    62    63    1
   114    83    82    1
   115    83    84    1
   116    79    78    1
   117    79    82    1
   118    63    64    1
   119    72    78   am
   120    72    71    1
   121   146   145   ar
   122   143   145   ar
   123    49    46    1
   124    71    70    1
   125    84    86   ar
   126    84    85   ar
   127    46    45    1
   128    46    47    1
   129    64    65    2
   130    61    59    1
   131    60    59    1
   132    59    58    1
   133    47    48    2
   134    58    55    1
   135    54    55    1
   136    55    56    1
   137    56    57    2
