@<TRIPOS>MOLECULE
tmp/3r02A00.pdb
 171 160 0 0 0
SMALL
GASTEIGER

@<TRIPOS>ATOM
      1  N         24.8070  -34.0340   -4.5220 N.3    10  LEU10      -0.1231
      2  CA        23.9590  -35.1430   -4.9540 C.3    10  LEU10       0.1693
      3  C         22.7100  -34.6370   -5.6970 C.2    10  LEU10       0.2592
      4  O         22.2040  -35.3290   -6.5550 O.2    10  LEU10      -0.2718
      5  CB        23.5080  -36.0200   -3.7400 C.3    10  LEU10       0.0284
      6  CG        24.6650  -36.6970   -2.9520 C.3    10  LEU10       0.0019
      7  CD1       24.1860  -37.4740   -1.7180 C.3    10  LEU10       0.0001
      8  CD2       25.4960  -37.6470   -3.9070 C.3    10  LEU10       0.0001
      9  N         22.1580  -33.4820   -5.3400 N.am   11  GLY11      -0.1957
     10  CA        20.9880  -32.9280   -6.0560 C.3    11  GLY11       0.1869
     11  C         20.6030  -31.6140   -5.4600 C.2    11  GLY11       0.2309
     12  O         21.0560  -31.2880   -4.3550 O.2    11  GLY11      -0.2863
     13  N         13.8250  -28.4500   -2.3830 N.3    15  PHE15      -0.1241
     14  CA        14.2500  -28.8250   -0.9940 C.3    15  PHE15       0.1605
     15  C         15.5640  -28.1330   -0.5370 C.2    15  PHE15       0.2264
     16  O         15.9270  -28.2400    0.6730 O.2    15  PHE15      -0.2867
     17  CB        14.4830  -30.3500   -0.8580 C.3    15  PHE15       0.0534
     18  CG        15.4090  -30.9110   -1.9010 C.ar   15  PHE15      -0.0203
     19  CD1       16.8060  -30.9200   -1.6710 C.ar   15  PHE15      -0.0042
     20  CD2       14.9030  -31.4860   -3.0750 C.ar   15  PHE15      -0.0042
     21  CE1       17.6720  -31.4080   -2.6470 C.ar   15  PHE15      -0.0003
     22  CE2       15.7780  -31.9720   -4.1180 C.ar   15  PHE15      -0.0003
     23  CZ        17.1840  -31.9680   -3.8560 C.ar   15  PHE15      -0.0000
     24  N         21.7550  -30.7770   -1.5640 N.3    18  VAL18      -0.1245
     25  CA        22.2110  -31.8910   -0.7260 C.3    18  VAL18       0.1561
     26  C         23.5780  -32.3920   -1.2530 C.2    18  VAL18       0.2260
     27  O         23.7180  -32.7680   -2.4510 O.2    18  VAL18      -0.2867
     28  CB        21.1830  -33.0790   -0.6540 C.3    18  VAL18       0.0252
     29  CG1       21.7460  -34.2870    0.1670 C.3    18  VAL18       0.0019
     30  CG2       19.8720  -32.6500   -0.0750 C.3    18  VAL18       0.0019
     31  N         24.8130  -37.2530    4.5520 N.3    31  ALA31      -0.1245
     32  CA        24.3800  -36.2920    3.5710 C.3    31  ALA31       0.1562
     33  C         24.2770  -34.9780    4.2650 C.2    31  ALA31       0.2260
     34  O         23.7330  -34.8870    5.3840 O.2    31  ALA31      -0.2867
     35  CB        22.9580  -36.6940    2.9180 C.3    31  ALA31       0.0290
     36  N         22.6630  -31.3190    4.0060 N.3    33  LYS33      -0.1245
     37  CA        21.5400  -30.6250    3.3290 C.3    33  LYS33       0.1561
     38  C         21.4230  -29.1800    3.7670 C.2    33  LYS33       0.2260
     39  O         21.3190  -28.8960    4.9910 O.2    33  LYS33      -0.2867
     40  CB        20.2560  -31.3710    3.6250 C.3    33  LYS33       0.0271
     41  CG        18.9470  -30.6150    3.0500 C.3    33  LYS33       0.0035
     42  CD        17.7080  -31.5700    3.3570 C.3    33  LYS33       0.0206
     43  CE        16.4880  -31.0050    2.6120 C.3    33  LYS33       0.1093
     44  NZ        15.2250  -31.8170    2.8860 N.3    33  LYS33      -0.1314
     45  N         10.9460  -28.5250    9.4590 N.3    55  GLU55      -0.1245
     46  CA        11.6220  -29.7350    8.9950 C.3    55  GLU55       0.1567
     47  C         12.4990  -30.3920   10.0580 C.2    55  GLU55       0.2260
     48  O         12.4590  -31.6330   10.2380 O.2    55  GLU55      -0.2867
     49  CB        12.4530  -29.4150    7.7230 C.3    55  GLU55       0.0388
     50  CG        13.0970  -30.6970    7.1170 C.3    55  GLU55       0.1160
     51  CD        13.8450  -30.4210    5.8170 C.2    55  GLU55       0.3649
     52  OE1       13.7390  -29.3020    5.1970 O.co2  55  GLU55      -0.2457
     53  OE2       14.4820  -31.3750    5.3740 O.co2  55  GLU55      -0.2457
     54  N         11.8120  -33.9900   11.7110 N.3    59  LEU59      -0.1245
     55  CA        12.8760  -35.0090   11.6930 C.3    59  LEU59       0.1561
     56  C         13.2030  -35.5480   13.0870 C.2    59  LEU59       0.2260
     57  O         13.4830  -36.7600   13.2610 O.2    59  LEU59      -0.2867
     58  CB        14.1690  -34.4930   11.0490 C.3    59  LEU59       0.0270
     59  CG        14.1200  -34.4480    9.5000 C.3    59  LEU59       0.0019
     60  CD1       15.2040  -33.4500    8.9270 C.3    59  LEU59       0.0001
     61  CD2       14.2910  -35.8700    8.8680 C.3    59  LEU59       0.0001
     62  N         14.6590  -41.6870    7.2240 N.3    70  ILE70      -0.1245
     63  CA        15.9760  -41.0930    7.2930 C.3    70  ILE70       0.1561
     64  C         16.2330  -40.6050    8.7420 C.2    70  ILE70       0.2260
     65  O         15.2970  -40.1480    9.4190 O.2    70  ILE70      -0.2867
     66  CB        16.1550  -39.9110    6.2300 C.3    70  ILE70       0.0252
     67  CG1       17.6500  -39.6680    6.0350 C.3    70  ILE70       0.0019
     68  CG2       15.3980  -38.6220    6.6300 C.3    70  ILE70       0.0019
     69  CD1       18.2770  -40.7980    5.2010 C.3    70  ILE70       0.0001
     70  N         22.4440  -35.6990    7.6910 N.3    86  LEU86      -0.1231
     71  CA        21.5210  -36.8290    7.6340 C.3    86  LEU86       0.1693
     72  C         22.3160  -38.0770    7.3380 C.2    86  LEU86       0.2592
     73  O         23.3530  -38.0540    6.7030 O.2    86  LEU86      -0.2718
     74  CB        20.4540  -36.6050    6.5220 C.3    86  LEU86       0.0284
     75  CG        19.5340  -35.4340    6.9730 C.3    86  LEU86       0.0019
     76  CD1       19.3290  -34.3770    5.8510 C.3    86  LEU86       0.0001
     77  CD2       18.1380  -35.9610    7.5760 C.3    86  LEU86       0.0001
     78  N         21.7330  -39.2000    7.7130 N.am   87  GLU87      -0.1966
     79  CA        22.2420  -40.4830    7.3000 C.3    87  GLU87       0.1733
     80  C         22.4170  -40.6670    5.8130 C.2    87  GLU87       0.2616
     81  O         21.6470  -40.1240    5.0020 O.2    87  GLU87      -0.2715
     82  CB        21.1600  -41.4600    7.8190 C.3    87  GLU87       0.0429
     83  CG        21.0920  -42.7360    7.1860 C.3    87  GLU87       0.1163
     84  CD        20.0900  -43.5860    7.9580 C.2    87  GLU87       0.3649
     85  OE1       18.9470  -43.1240    8.2670 O.co2  87  GLU87      -0.2457
     86  OE2       20.4860  -44.7000    8.2970 O.co2  87  GLU87      -0.2457
     87  N         23.4420  -41.4020    5.4130 N.am   88  ARG88      -0.1964
     88  CA        23.6070  -41.7210    3.9730 C.3    88  ARG88       0.1714
     89  C         23.9270  -43.1750    3.8360 C.2    88  ARG88       0.2458
     90  O         25.0440  -43.5720    4.0930 O.2    88  ARG88      -0.2730
     91  CB        24.8000  -40.9350    3.3430 C.3    88  ARG88       0.0347
     92  CG        25.1390  -41.3440    1.8790 C.3    88  ARG88       0.0492
     93  CD        25.9880  -40.2390    1.1470 C.3    88  ARG88       0.2205
     94  NE        27.3350  -39.9930    1.6860 N.pl3  88  ARG88      -0.0865
     95  CZ        28.4100  -40.7350    1.4120 C.cat  88  ARG88       0.5346
     96  NH1       28.3020  -41.7780    0.5980 N.pl3  88  ARG88       0.1354
     97  NH2       29.6110  -40.4150    1.9200 N.pl3  88  ARG88       0.1354
     98  N         23.0060  -43.9610    3.3070 N.am   89  PRO89      -0.2727
     99  CA        23.3800  -45.3860    2.9770 C.3    89  PRO89       0.1402
    100  C         24.2870  -45.4060    1.7570 C.2    89  PRO89       0.2269
    101  O         24.3270  -44.4290    0.9270 O.2    89  PRO89      -0.2865
    102  CB        22.0110  -46.0140    2.5880 C.3    89  PRO89       0.0296
    103  CG        20.9430  -44.9900    2.8980 C.3    89  PRO89       0.0237
    104  CD        21.6020  -43.6280    2.9670 C.3    89  PRO89       0.0939
    105  N         23.6800  -46.1710   -2.6680 N.3    92  VAL92      -0.1245
    106  CA        22.2430  -45.7640   -2.5250 C.3    92  VAL92       0.1561
    107  C         21.7700  -45.3380   -3.9110 C.2    92  VAL92       0.2260
    108  O         22.6180  -44.9060   -4.7690 O.2    92  VAL92      -0.2867
    109  CB        22.1500  -44.6290   -1.4670 C.3    92  VAL92       0.0252
    110  CG1       22.8190  -43.2710   -1.9750 C.3    92  VAL92       0.0019
    111  CG2       20.6820  -44.3500   -1.0490 C.3    92  VAL92       0.0019
    112  N         17.9700  -43.2280   -5.4580 N.3    94  ASP94      -0.1239
    113  CA        16.5620  -42.9420   -5.1510 C.3    94  ASP94       0.1674
    114  C         15.6430  -43.7620   -6.0380 C.2    94  ASP94       0.2266
    115  O         16.0490  -44.2950   -7.0930 O.2    94  ASP94      -0.2867
    116  CB        16.2100  -41.4320   -5.0340 C.3    94  ASP94       0.1410
    117  CG        16.1320  -40.6590   -6.4050 C.2    94  ASP94       0.3668
    118  OD1       16.0380  -41.3090   -7.4970 O.co2  94  ASP94      -0.2456
    119  OD2       16.1210  -39.3650   -6.3540 O.co2  94  ASP94      -0.2456
    120  N         10.8750  -39.6930   -5.8410 N.3   137  GLU137     -0.1231
    121  CA        12.0770  -38.8650   -5.6480 C.3   137  GLU137      0.1699
    122  C         12.4810  -38.7630   -4.1710 C.2   137  GLU137      0.2592
    123  O         13.6820  -38.4690   -3.8630 O.2   137  GLU137     -0.2718
    124  CB        11.7970  -37.4410   -6.1420 C.3   137  GLU137      0.0402
    125  CG        11.5740  -37.3760   -7.6870 C.3   137  GLU137      0.1161
    126  CD        11.3080  -35.9450   -8.1100 C.2   137  GLU137      0.3649
    127  OE1       10.1530  -35.5610   -8.2970 O.co2 137  GLU137     -0.2457
    128  OE2       12.3090  -35.2180   -8.1940 O.co2 137  GLU137     -0.2457
    129  N         11.5230  -39.0150   -3.2690 N.am  138  ASN138     -0.1974
    130  CA        11.7850  -38.8890   -1.8170 C.3   138  ASN138      0.1688
    131  C         11.9260  -40.2020   -1.0970 C.2   138  ASN138      0.2292
    132  O         11.6130  -40.3250    0.0870 O.2   138  ASN138     -0.2864
    133  CB        10.6750  -38.0320   -1.1780 C.3   138  ASN138      0.1181
    134  CG        10.7670  -36.5350   -1.5810 C.2   138  ASN138      0.2629
    135  OD1       11.8420  -36.0880   -1.9430 O.2   138  ASN138     -0.2716
    136  ND2        9.6590  -35.7400   -1.4090 N.am  138  ASN138     -0.0877
    137  N         14.7340  -43.4310   -0.7770 N.3   140  LEU140     -0.1245
    138  CA        16.0990  -43.8990   -1.0990 C.3   140  LEU140      0.1561
    139  C         16.0930  -45.4190   -0.9330 C.2   140  LEU140      0.2260
    140  O         15.4570  -45.9960   -0.0300 O.2   140  LEU140     -0.2867
    141  CB        17.1870  -43.3750   -0.1180 C.3   140  LEU140      0.0270
    142  CG        17.3620  -41.8490   -0.0760 C.3   140  LEU140      0.0019
    143  CD1       18.5190  -41.6150    0.9050 C.3   140  LEU140      0.0001
    144  CD2       17.6510  -41.4070   -1.5410 C.3   140  LEU140      0.0001
    145  N         12.6640  -39.8950    2.7960 N.3   151  ILE151     -0.1231
    146  CA        13.4420  -38.6790    3.0640 C.3   151  ILE151      0.1692
    147  C         12.6540  -37.3760    2.6900 C.2   151  ILE151      0.2592
    148  O         11.5410  -37.4180    2.1490 O.2   151  ILE151     -0.2718
    149  CB        14.7670  -38.6580    2.1780 C.3   151  ILE151      0.0266
    150  CG1       14.4200  -38.7100    0.6420 C.3   151  ILE151      0.0019
    151  CG2       15.7220  -39.8320    2.5800 C.3   151  ILE151      0.0020
    152  CD1       15.6720  -38.2120   -0.2770 C.3   151  ILE151      0.0001
    153  N         13.2810  -36.2380    3.0010 N.am  152  ASP152     -0.1960
    154  CA        12.7650  -34.8800    2.7590 C.3   152  ASP152      0.1840
    155  C         11.4110  -34.6040    3.3980 C.2   152  ASP152      0.2622
    156  O         10.4070  -34.6190    2.7520 O.2   152  ASP152     -0.2715
    157  CB        12.6740  -34.5730    1.2710 C.3   152  ASP152      0.1450
    158  CG        12.4500  -33.0550    1.0010 C.2   152  ASP152      0.3671
    159  OD1       12.1170  -32.7330   -0.1560 O.co2 152  ASP152     -0.2456
    160  OD2       12.5800  -32.2300    1.9330 O.co2 152  ASP152     -0.2456
    161  N         11.4810  -34.1740    4.6350 N.am  153  PHE153     -0.1974
    162  CA        10.3550  -33.6850    5.4010 C.3   153  PHE153      0.1639
    163  C         10.1380  -32.2010    5.2700 C.2   153  PHE153      0.2290
    164  O          9.3770  -31.6120    6.0500 O.2   153  PHE153     -0.2864
    165  CB        10.6380  -34.1050    6.8380 C.3   153  PHE153      0.0560
    166  CG        10.4190  -35.5740    7.0390 C.ar  153  PHE153     -0.0200
    167  CD1       11.4110  -36.5560    6.6770 C.ar  153  PHE153     -0.0042
    168  CD2        9.1900  -35.9920    7.5900 C.ar  153  PHE153     -0.0042
    169  CE1       11.1780  -37.9300    6.8780 C.ar  153  PHE153     -0.0003
    170  CE2        8.9420  -37.4170    7.8090 C.ar  153  PHE153     -0.0003
    171  CZ         9.9050  -38.3620    7.4430 C.ar  153  PHE153     -0.0000
@<TRIPOS>BOND
     1   127   126   ar
     2   128   126   ar
     3   126   125    1
     4   125   124    1
     5   118   117   ar
     6   115   114    2
     7     4     3    2
     8   117   119   ar
     9   117   116    1
    10   124   121    1
    11    10    11    1
    12    10     9    1
    13   114   113    1
    14   120   121    1
    15     3     9   am
    16     3     2    1
    17   121   122    1
    18    11    12    2
    19   112   113    1
    20   113   116    1
    21     2     1    1
    22     2     5    1
    23   108   107    2
    24   122   123    2
    25   122   129   am
    26    22    23   ar
    27    22    20   ar
    28   107   106    1
    29     8     6    1
    30    23    21   ar
    31     5     6    1
    32   129   130    1
    33    20    18   ar
    34     6     7    1
    35   105   106    1
    36    21    19   ar
    37   106   109    1
    38    27    26    2
    39    13    14    1
    40   110   109    1
    41   135   134    2
    42    18    19   ar
    43    18    17    1
    44   130   133    1
    45   130   131    1
    46   134   136   am
    47   134   133    1
    48    24    25    1
    49   144   142    1
    50   109   111    1
    51    26    25    1
    52   138   139    1
    53   138   137    1
    54   138   141    1
    55   131   132    2
    56    14    17    1
    57    14    15    1
    58   139   140    2
    59    25    28    1
    60    28    30    1
    61    28    29    1
    62    15    16    2
    63   152   150    1
    64   159   158   ar
    65   141   142    1
    66   142   143    1
    67    96    95    1
    68   150   149    1
    69   101   100    2
    70   158   157    1
    71   158   160   ar
    72    93    94    1
    73    93    92    1
    74   157   154    1
    75    95    94    2
    76    95    97    1
    77   100    99    1
    78    92    91    1
    79   148   147    2
    80   149   151    1
    81   149   146    1
    82   102   103    1
    83   102    99    1
    84    43    44    1
    85    43    42    1
    86   147   153   am
    87   147   146    1
    88   156   155    2
    89   154   153    1
    90   154   155    1
    91   145   146    1
    92   103   104    1
    93    35    32    1
    94   104    98    1
    95    99    98    1
    96    41    42    1
    97    41    40    1
    98    98    89   am
    99    37    40    1
   100    37    38    1
   101    37    36    1
   102    91    88    1
   103   155   161   am
   104    32    33    1
   105    32    31    1
   106    38    39    2
   107    89    88    1
   108    89    90    2
   109    88    87    1
   110    33    34    2
   111   161   162    1
   112    81    80    2
   113    52    51   ar
   114    69    67    1
   115   163   162    1
   116   163   164    2
   117    53    51   ar
   118   162   165    1
   119    87    80   am
   120    80    79    1
   121    51    50    1
   122    76    75    1
   123    67    66    1
   124    66    68    1
   125    66    63    1
   126    74    75    1
   127    74    71    1
   128   167   169   ar
   129   167   166   ar
   130    73    72    2
   131   165   166    1
   132   169   171   ar
   133    75    77    1
   134   166   168   ar
   135    50    49    1
   136    83    82    1
   137    83    84    1
   138    62    63    1
   139    63    64    1
   140    79    78    1
   141    79    82    1
   142    72    71    1
   143    72    78   am
   144   171   170   ar
   145   168   170   ar
   146    71    70    1
   147    49    46    1
   148    84    85   ar
   149    84    86   ar
   150    64    65    2
   151    61    59    1
   152    60    59    1
   153    46    45    1
   154    46    47    1
   155    59    58    1
   156    47    48    2
   157    58    55    1
   158    55    54    1
   159    55    56    1
   160    56    57    2
