@<TRIPOS>MOLECULE
tmp/3r03A00.pdb
 132 125 0 0 0
SMALL
GASTEIGER

@<TRIPOS>ATOM
      1  N         32.9290   22.2180   31.3340 N.3     3  LEU3       -0.1245
      2  CA        34.3510   22.0140   31.5880 C.3     3  LEU3        0.1561
      3  C         35.0880   21.7920   30.2720 C.2     3  LEU3        0.2260
      4  O         34.7550   20.8790   29.5210 O.2     3  LEU3       -0.2867
      5  CB        34.5790   20.8070   32.5030 C.3     3  LEU3        0.0270
      6  CG        36.0590   20.5120   32.7640 C.3     3  LEU3        0.0019
      7  CD1       36.6830   21.6460   33.5800 C.3     3  LEU3        0.0001
      8  CD2       36.2710   19.1620   33.4340 C.3     3  LEU3        0.0001
      9  N         38.3560   20.6890   28.1150 N.3     5  VAL5       -0.1245
     10  CA        39.5770   19.8960   28.1380 C.3     5  VAL5        0.1561
     11  C         40.1510   19.8170   26.7250 C.2     5  VAL5        0.2260
     12  O         39.4030   19.7630   25.7550 O.2     5  VAL5       -0.2867
     13  CB        39.3270   18.4820   28.7230 C.3     5  VAL5        0.0252
     14  CG1       40.5890   17.6420   28.6750 C.3     5  VAL5        0.0019
     15  CG2       38.8260   18.5830   30.1580 C.3     5  VAL5        0.0019
     16  N         44.8300    6.3870   32.5420 N.3    22  ARG22      -0.1245
     17  CA        44.6800    7.0780   33.8130 C.3    22  ARG22       0.1563
     18  C         45.1680    6.1770   34.9530 C.2    22  ARG22       0.2260
     19  O         44.9740    4.9600   34.9230 O.2    22  ARG22      -0.2867
     20  CB        43.2240    7.4920   34.0350 C.3    22  ARG22       0.0307
     21  CG        42.6110    8.2910   32.8870 C.3    22  ARG22       0.0489
     22  CD        41.8740    9.5020   33.4200 C.3    22  ARG22       0.2205
     23  NE        42.7950   10.3910   34.1310 N.pl3  22  ARG22      -0.0865
     24  CZ        42.4220   11.3090   35.0200 C.cat  22  ARG22       0.5346
     25  NH1       43.3410   12.0660   35.6130 N.pl3  22  ARG22       0.1354
     26  NH2       41.1360   11.4670   35.3210 N.pl3  22  ARG22       0.1354
     27  N         42.1130    7.9700   40.3380 N.3    26  LYS26      -0.1231
     28  CA        41.4390    9.2140   40.0120 C.3    26  LYS26       0.1693
     29  C         40.1890    8.8670   39.2430 C.2    26  LYS26       0.2593
     30  O         39.9310    7.6940   38.9680 O.2    26  LYS26      -0.2718
     31  CB        42.3360   10.0930   39.1490 C.3    26  LYS26       0.0285
     32  CG        43.8160    9.8520   39.3730 C.3    26  LYS26       0.0035
     33  CD        44.6710   10.7610   38.5050 C.3    26  LYS26       0.0206
     34  CE        44.7430   12.1610   39.0920 C.3    26  LYS26       0.1093
     35  NZ        45.9090   12.9200   38.5620 N.3    26  LYS26      -0.1314
     36  N         39.4100    9.8860   38.9000 N.am   27  SER27      -0.1938
     37  CA        38.2620    9.6950   38.0280 C.3    27  SER27       0.2055
     38  C         38.6500    8.7720   36.8720 C.2    27  SER27       0.2642
     39  O         39.7420    8.8980   36.3090 O.2    27  SER27      -0.2714
     40  CB        37.7740   11.0480   37.5030 C.3    27  SER27       0.2130
     41  OG        38.8650   11.9210   37.2340 O.3    27  SER27      -0.2179
     42  N         37.7670    7.8280   36.5520 N.am   28  LEU28      -0.1977
     43  CA        37.9420    6.9440   35.3980 C.3    28  LEU28       0.1596
     44  C         39.3070    6.2430   35.4310 C.2    28  LEU28       0.2287
     45  O         40.1320    6.3840   34.5210 O.2    28  LEU28      -0.2864
     46  CB        37.7350    7.7250   34.0940 C.3    28  LEU28       0.0297
     47  CG        36.3790    8.4310   33.9360 C.3    28  LEU28       0.0022
     48  CD1       36.2110    9.5560   34.9370 C.3    28  LEU28       0.0001
     49  CD2       36.2080    8.9790   32.5330 C.3    28  LEU28       0.0001
     50  N         43.0470    7.2260   27.5550 N.3    33  GLU33      -0.1231
     51  CA        42.5780    8.5020   27.0390 C.3    33  GLU33       0.1699
     52  C         43.6860    9.1910   26.2460 C.2    33  GLU33       0.2592
     53  O         44.8670    8.8560   26.4000 O.2    33  GLU33      -0.2718
     54  CB        42.1320    9.4040   28.1900 C.3    33  GLU33       0.0402
     55  CG        43.2650   10.2470   28.7390 C.3    33  GLU33       0.1161
     56  CD        42.9360   10.8740   30.0750 C.2    33  GLU33       0.3649
     57  OE1       41.7520   10.8160   30.4970 O.co2  33  GLU33      -0.2457
     58  OE2       43.8740   11.4190   30.7000 O.co2  33  GLU33      -0.2457
     59  N         43.2950   10.1400   25.3950 N.am   34  PHE34      -0.1976
     60  CA        44.2490   11.0210   24.7160 C.3    34  PHE34       0.1639
     61  C         44.8400   11.9990   25.7280 C.2    34  PHE34       0.2290
     62  O         44.1180   12.5760   26.5430 O.2    34  PHE34      -0.2864
     63  CB        43.5740   11.8030   23.5840 C.3    34  PHE34       0.0560
     64  CG        42.9980   10.9360   22.5100 C.ar   34  PHE34      -0.0200
     65  CD1       43.8280   10.2580   21.6280 C.ar   34  PHE34      -0.0042
     66  CD2       41.6230   10.8050   22.3700 C.ar   34  PHE34      -0.0042
     67  CE1       43.2960    9.4530   20.6340 C.ar   34  PHE34      -0.0003
     68  CE2       41.0860   10.0020   21.3770 C.ar   34  PHE34      -0.0003
     69  CZ        41.9220    9.3250   20.5110 C.ar   34  PHE34      -0.0000
     70  N         46.2430   15.2760   27.5380 N.3    36  GLY36      -0.1210
     71  CA        45.7200   16.6270   27.5270 C.3    36  GLY36       0.1956
     72  C         45.2900   17.0200   28.9250 C.2    36  GLY36       0.2612
     73  O         45.8150   16.5020   29.9050 O.2    36  GLY36      -0.2717
     74  N         44.3320   17.9320   29.0260 N.am   37  GLY37      -0.1942
     75  CA        43.8230   18.3190   30.3230 C.3    37  GLY37       0.2014
     76  C         43.1110   19.6580   30.3540 C.2    37  GLY37       0.2638
     77  O         42.8710   20.2890   29.3210 O.2    37  GLY37      -0.2714
     78  N         42.7800   20.0780   31.5710 N.am   38  LYS38      -0.1977
     79  CA        42.1210   21.3400   31.8470 C.3    38  LYS38       0.1596
     80  C         42.9210   22.5150   31.2980 C.2    38  LYS38       0.2287
     81  O         44.1430   22.4610   31.2050 O.2    38  LYS38      -0.2864
     82  CB        41.9820   21.5020   33.3610 C.3    38  LYS38       0.0298
     83  CG        40.5850   21.8380   33.8250 C.3    38  LYS38       0.0038
     84  CD        39.7320   20.5780   33.8800 C.3    38  LYS38       0.0206
     85  CE        40.1840   19.6630   35.0010 C.3    38  LYS38       0.1093
     86  NZ        40.1070   20.3490   36.3240 N.3    38  LYS38      -0.1314
     87  N         28.1380   14.5810   31.7680 N.3    76  TYR76      -0.1241
     88  CA        28.5240   13.7890   32.8840 C.3    76  TYR76       0.1605
     89  C         27.6130   14.2720   33.9740 C.2    76  TYR76       0.2264
     90  O         26.7480   15.0810   33.7180 O.2    76  TYR76      -0.2867
     91  CB        30.0050   13.9390   33.1940 C.3    76  TYR76       0.0534
     92  CG        30.8780   13.0240   32.3570 C.ar   76  TYR76      -0.0201
     93  CD1       31.9550   13.4980   31.6610 C.ar   76  TYR76      -0.0009
     94  CD2       30.6040   11.6960   32.2590 C.ar   76  TYR76      -0.0009
     95  CE1       32.7270   12.6750   30.9160 C.ar   76  TYR76       0.0417
     96  CE2       31.3780   10.8730   31.5100 C.ar   76  TYR76       0.0417
     97  CZ        32.4420   11.3690   30.8440 C.ar   76  TYR76       0.1957
     98  OH        33.1970   10.5190   30.0970 O.3    76  TYR76      -0.2866
     99  N         29.1220   18.0590   35.4980 N.3    79  PHE79      -0.1241
    100  CA        29.5780   19.0600   34.5430 C.3    79  PHE79       0.1605
    101  C         29.3870   18.5260   33.1340 C.2    79  PHE79       0.2264
    102  O         29.2450   17.3160   32.9290 O.2    79  PHE79      -0.2867
    103  CB        31.0650   19.3380   34.7540 C.3    79  PHE79       0.0534
    104  CG        31.9340   18.1410   34.5000 C.ar   79  PHE79      -0.0203
    105  CD1       32.4970   17.9260   33.2520 C.ar   79  PHE79      -0.0042
    106  CD2       32.1650   17.2100   35.5020 C.ar   79  PHE79      -0.0042
    107  CE1       33.2880   16.8190   33.0110 C.ar   79  PHE79      -0.0003
    108  CE2       32.9550   16.0980   35.2680 C.ar   79  PHE79      -0.0003
    109  CZ        33.5180   15.9030   34.0200 C.ar   79  PHE79      -0.0000
    110  N         31.2930   18.0580   29.6540 N.3    81  LEU81      -0.1245
    111  CA        32.6050   18.0690   29.0280 C.3    81  LEU81       0.1561
    112  C         32.5350   18.5380   27.5730 C.2    81  LEU81       0.2260
    113  O         31.7610   18.0040   26.7670 O.2    81  LEU81      -0.2867
    114  CB        33.2310   16.6720   29.0880 C.3    81  LEU81       0.0270
    115  CG        34.5860   16.5090   28.4060 C.3    81  LEU81       0.0019
    116  CD1       35.6500   17.2070   29.2250 C.3    81  LEU81       0.0001
    117  CD2       34.9340   15.0400   28.2220 C.3    81  LEU81       0.0001
    118  N         37.0710    6.3640   28.4800 N.3   115  PRO115     -0.2116
    119  CA        35.8170    6.9560   28.9510 C.3   115  PRO115      0.1372
    120  C         34.7920    6.9370   27.8180 C.2   115  PRO115      0.2244
    121  O         35.1720    7.0060   26.6470 O.2   115  PRO115     -0.2868
    122  CB        36.2240    8.3900   29.2970 C.3   115  PRO115      0.0268
    123  CG        37.6780    8.2800   29.6650 C.3   115  PRO115      0.0207
    124  CD        38.2430    7.2010   28.7940 C.3   115  PRO115      0.0892
    125  N         35.0630    9.6750   25.0700 N.3   118  ASP118     -0.1239
    126  CA        36.1370    9.6530   24.0840 C.3   118  ASP118      0.1674
    127  C         35.8150    8.6970   22.9400 C.2   118  ASP118      0.2266
    128  O         36.4250    8.7640   21.8760 O.2   118  ASP118     -0.2867
    129  CB        37.4530    9.2020   24.7200 C.3   118  ASP118      0.1410
    130  CG        37.8470   10.0310   25.9220 C.2   118  ASP118      0.3668
    131  OD1       36.9780   10.3460   26.7700 O.co2 118  ASP118     -0.2456
    132  OD2       39.0490   10.3490   26.0260 O.co2 118  ASP118     -0.2456
@<TRIPOS>BOND
     1    69    67   ar
     2    69    68   ar
     3    67    65   ar
     4    68    66   ar
     5    65    64   ar
     6   128   127    2
     7    66    64   ar
     8    64    63    1
     9   127   126    1
    10    63    60    1
    11   126   129    1
    12   126   125    1
    13    60    59    1
    14    60    61    1
    15   129   130    1
    16    59    52   am
    17    61    62    2
    18    12    11    2
    19   130   132   ar
    20   130   131   ar
    21    52    53    2
    22    52    51    1
    23   121   120    2
    24    11    10    1
    25   113   112    2
    26    51    50    1
    27    51    54    1
    28    71    70    1
    29    71    72    1
    30   112   111    1
    31   120   119    1
    32     9    10    1
    33    10    13    1
    34    54    55    1
    35   117   115    1
    36   115   114    1
    37   115   116    1
    38   118   124    1
    39   118   119    1
    40    14    13    1
    41    13    15    1
    42    55    56    1
    43   124   123    1
    44    72    74   am
    45    72    73    2
    46   119   122    1
    47    74    75    1
    48   111   114    1
    49   111   110    1
    50   122   123    1
    51    77    76    2
    52     4     3    2
    53    56    57   ar
    54    56    58   ar
    55    98    97    1
    56     3     2    1
    57    75    76    1
    58    76    78   am
    59    97    95   ar
    60    97    96   ar
    61    95    93   ar
    62    81    80    2
    63    80    79    1
    64     1     2    1
    65    96    94   ar
    66    78    79    1
    67     2     5    1
    68    93    92   ar
    69    87    88    1
    70    79    82    1
    71    94    92   ar
    72    92    91    1
    73     5     6    1
    74    49    47    1
    75    16    17    1
    76     6     8    1
    77     6     7    1
    78    88    91    1
    79    88    89    1
    80    21    22    1
    81    21    20    1
    82   102   101    2
    83   107   105   ar
    84   107   109   ar
    85   101   100    1
    86   105   104   ar
    87    82    83    1
    88    22    23    1
    89    90    89    2
    90    17    20    1
    91    17    18    1
    92    83    84    1
    93    84    85    1
    94    47    46    1
    95    47    48    1
    96   109   108   ar
    97    46    43    1
    98    23    24    2
    99   104   103    1
   100   104   106   ar
   101    45    44    2
   102   100   103    1
   103   100    99    1
   104    19    18    2
   105    85    86    1
   106    24    26    1
   107    24    25    1
   108   108   106   ar
   109    43    44    1
   110    43    42    1
   111    39    38    2
   112    42    38   am
   113    38    37    1
   114    41    40    1
   115    40    37    1
   116    37    36    1
   117    33    34    1
   118    33    32    1
   119    35    34    1
   120    36    29   am
   121    30    29    2
   122    31    32    1
   123    31    28    1
   124    29    28    1
   125    28    27    1
