@<TRIPOS>MOLECULE
tmp/3r04A00.pdb
 180 169 0 0 0
SMALL
GASTEIGER

@<TRIPOS>ATOM
      1  N         16.9880  -38.5770    4.4750 N.3    10  LEU10      -0.1231
      2  CA        18.4140  -38.3790    4.8920 C.3    10  LEU10       0.1693
      3  C         18.5440  -37.0740    5.6950 C.2    10  LEU10       0.2592
      4  O         19.2770  -37.0280    6.7330 O.2    10  LEU10      -0.2718
      5  CB        19.3050  -38.3270    3.6550 C.3    10  LEU10       0.0284
      6  CG        19.3800  -39.6740    2.9180 C.3    10  LEU10       0.0019
      7  CD1       20.1120  -39.5900    1.6060 C.3    10  LEU10       0.0001
      8  CD2       19.9730  -40.7830    3.8040 C.3    10  LEU10       0.0001
      9  N         17.8920  -36.0090    5.2250 N.am   11  GLY11      -0.1957
     10  CA        17.8890  -34.7110    5.9810 C.3    11  GLY11       0.1869
     11  C         16.9770  -33.7040    5.3300 C.2    11  GLY11       0.2309
     12  O         16.4360  -33.9440    4.1950 O.2    11  GLY11      -0.2863
     13  N         17.6130  -26.1810    2.2650 N.3    15  PHE15      -0.1241
     14  CA        17.6940  -26.7790    0.9050 C.3    15  PHE15       0.1605
     15  C         16.4450  -27.5970    0.4370 C.2    15  PHE15       0.2264
     16  O         16.3330  -27.8910   -0.7520 O.2    15  PHE15      -0.2867
     17  CB        18.9450  -27.7010    0.8140 C.3    15  PHE15       0.0534
     18  CG        19.0100  -28.7340    1.9250 C.ar   15  PHE15      -0.0203
     19  CD1       18.4340  -30.0240    1.7430 C.ar   15  PHE15      -0.0042
     20  CD2       19.6040  -28.3970    3.1830 C.ar   15  PHE15      -0.0042
     21  CE1       18.5110  -30.9640    2.7810 C.ar   15  PHE15      -0.0003
     22  CE2       19.6700  -29.3120    4.2510 C.ar   15  PHE15      -0.0003
     23  CZ        19.1320  -30.6180    4.0430 C.ar   15  PHE15      -0.0000
     24  N         15.7570  -34.3680    1.4760 N.3    18  VAL18      -0.1245
     25  CA        16.4790  -35.2890    0.5950 C.3    18  VAL18       0.1561
     26  C         16.2840  -36.7050    1.1510 C.2    18  VAL18       0.2260
     27  O         16.4820  -36.9020    2.3340 O.2    18  VAL18      -0.2867
     28  CB        18.0490  -34.9850    0.5460 C.3    18  VAL18       0.0252
     29  CG1       18.8200  -35.8950   -0.3830 C.3    18  VAL18       0.0019
     30  CG2       18.2660  -33.6120    0.0570 C.3    18  VAL18       0.0019
     31  N         20.0200  -40.2030   -4.6380 N.3    31  ALA31      -0.1245
     32  CA        19.4280  -39.3490   -3.5880 C.3    31  ALA31       0.1562
     33  C         18.3560  -38.5640   -4.2880 C.2    31  ALA31       0.2260
     34  O         18.5590  -38.1350   -5.3980 O.2    31  ALA31      -0.2867
     35  CB        20.5150  -38.3390   -2.9650 C.3    31  ALA31       0.0290
     36  N         16.0540  -35.2700   -4.0730 N.3    33  LYS33      -0.1245
     37  CA        15.9350  -34.0080   -3.3510 C.3    33  LYS33       0.1561
     38  C         14.7470  -33.2480   -3.7810 C.2    33  LYS33       0.2260
     39  O         14.5960  -32.9710   -5.0090 O.2    33  LYS33      -0.2867
     40  CB        17.1870  -33.1250   -3.6850 C.3    33  LYS33       0.0271
     41  CG        17.2030  -31.8020   -2.9600 C.3    33  LYS33       0.0035
     42  CD        18.5810  -31.0470   -3.2940 C.3    33  LYS33       0.0206
     43  CE        18.5950  -29.7990   -2.4610 C.3    33  LYS33       0.1093
     44  NZ        19.9910  -29.1350   -2.8090 N.3    33  LYS33      -0.1314
     45  N         19.4490  -23.8430   -9.3810 N.3    55  GLU55      -0.1245
     46  CA        20.2290  -24.9740   -8.9620 C.3    55  GLU55       0.1567
     47  C         20.3080  -26.0710  -10.0120 C.2    55  GLU55       0.2260
     48  O         21.3280  -26.7410  -10.1280 O.2    55  GLU55      -0.2867
     49  CB        19.6170  -25.4980   -7.6390 C.3    55  GLU55       0.0388
     50  CG        20.2750  -26.7400   -7.1250 C.3    55  GLU55       0.1160
     51  CD        19.6170  -27.2440   -5.7760 C.2    55  GLU55       0.3649
     52  OE1       18.7020  -26.5940   -5.1880 O.co2  55  GLU55      -0.2457
     53  OE2       20.1370  -28.2620   -5.2900 O.co2  55  GLU55      -0.2457
     54  N         23.8190  -27.3410  -11.6080 N.3    59  LEU59      -0.1245
     55  CA        24.1730  -28.7460  -11.6030 C.3    59  LEU59       0.1561
     56  C         24.4190  -29.2740  -13.0180 C.2    59  LEU59       0.2260
     57  O         25.2850  -30.0950  -13.2330 O.2    59  LEU59      -0.2867
     58  CB        23.0330  -29.5720  -10.9290 C.3    59  LEU59       0.0270
     59  CG        23.0470  -29.4850   -9.3930 C.3    59  LEU59       0.0019
     60  CD1       21.6770  -29.9740   -8.8950 C.3    59  LEU59       0.0001
     61  CD2       24.2130  -30.3400   -8.7660 C.3    59  LEU59       0.0001
     62  N         28.9160  -33.4690   -7.0570 N.3    70  ILE70      -0.1245
     63  CA        27.8240  -34.4090   -7.1850 C.3    70  ILE70       0.1561
     64  C         27.1590  -34.2650   -8.5810 C.2    70  ILE70       0.2260
     65  O         27.1020  -33.1700   -9.2070 O.2    70  ILE70      -0.2867
     66  CB        26.8490  -34.1240   -6.0210 C.3    70  ILE70       0.0252
     67  CG1       25.9060  -35.3410   -5.7260 C.3    70  ILE70       0.0019
     68  CG2       25.9840  -32.8440   -6.3330 C.3    70  ILE70       0.0019
     69  CD1       26.7420  -36.3930   -4.9660 C.3    70  ILE70       0.0001
     70  N         19.8990  -37.2580   -7.7530 N.3    86  LEU86      -0.1231
     71  CA        21.3440  -37.0650   -7.6990 C.3    86  LEU86       0.1693
     72  C         22.0440  -38.4020   -7.4710 C.2    86  LEU86       0.2592
     73  O         21.5390  -39.3770   -6.8840 O.2    86  LEU86      -0.2718
     74  CB        21.6650  -36.0920   -6.5060 C.3    86  LEU86       0.0284
     75  CG        21.0210  -34.7100   -6.7110 C.3    86  LEU86       0.0019
     76  CD1       20.5750  -34.0100   -5.4930 C.3    86  LEU86       0.0001
     77  CD2       21.9760  -33.7620   -7.4710 C.3    86  LEU86       0.0001
     78  N         23.2690  -38.4930   -7.9170 N.am   87  GLU87      -0.1966
     79  CA        24.1280  -39.6000   -7.5540 C.3    87  GLU87       0.1733
     80  C         24.2290  -39.8640   -6.0540 C.2    87  GLU87       0.2616
     81  O         24.2010  -38.9360   -5.1670 O.2    87  GLU87      -0.2715
     82  CB        25.5460  -39.1530   -8.0980 C.3    87  GLU87       0.0429
     83  CG        26.7480  -39.5260   -7.3480 C.3    87  GLU87       0.1163
     84  CD        28.0110  -39.0360   -8.1190 C.2    87  GLU87       0.3649
     85  OE1       28.1830  -37.8170   -8.3210 O.co2  87  GLU87      -0.2457
     86  OE2       28.7790  -39.9110   -8.5950 O.co2  87  GLU87      -0.2457
     87  N         24.3880  -41.1250   -5.7030 N.am   88  ARG88      -0.1964
     88  CA        24.5510  -41.4210   -4.2770 C.3    88  ARG88       0.1714
     89  C         25.6600  -42.4520   -4.0570 C.2    88  ARG88       0.2458
     90  O         25.4460  -43.6480   -4.2160 O.2    88  ARG88      -0.2730
     91  CB        23.2090  -41.8520   -3.6060 C.3    88  ARG88       0.0347
     92  CG        23.3920  -42.4550   -2.1800 C.3    88  ARG88       0.0492
     93  CD        22.0600  -42.5860   -1.4230 C.3    88  ARG88       0.2205
     94  NE        21.3230  -43.7040   -1.9490 N.pl3  88  ARG88      -0.0865
     95  CZ        21.4350  -44.9610   -1.5190 C.cat  88  ARG88       0.5346
     96  NH1       22.2960  -45.2780   -0.5580 N.pl3  88  ARG88       0.1354
     97  NH2       20.6730  -45.9260   -2.0510 N.pl3  88  ARG88       0.1354
     98  N         26.8570  -41.9890   -3.6360 N.am   89  PRO89      -0.2727
     99  CA        27.9110  -42.9670   -3.2760 C.3    89  PRO89       0.1402
    100  C         27.4930  -43.7090   -2.0290 C.2    89  PRO89       0.2269
    101  O         26.6590  -43.2080   -1.2470 O.2    89  PRO89      -0.2865
    102  CB        29.1470  -42.0880   -2.9800 C.3    89  PRO89       0.0296
    103  CG        28.8280  -40.7080   -3.4750 C.3    89  PRO89       0.0237
    104  CD        27.2820  -40.5750   -3.5010 C.3    89  PRO89       0.0939
    105  N         28.5630  -43.4980    2.7040 N.3    92  VAL92      -0.1231
    106  CA        28.8650  -42.0350    2.7640 C.3    92  VAL92       0.1692
    107  C         28.6710  -41.4380    4.1390 C.2    92  VAL92       0.2592
    108  O         27.6980  -41.8130    4.8730 O.2    92  VAL92      -0.2718
    109  CB        28.0270  -41.2190    1.7290 C.3    92  VAL92       0.0266
    110  CG1       27.4940  -39.9350    2.3030 C.3    92  VAL92       0.0020
    111  CG2       28.9010  -40.8260    0.6460 C.3    92  VAL92       0.0020
    112  N         29.6230  -40.5810    4.5420 N.am   93  GLN93      -0.1966
    113  CA        29.3870  -39.7820    5.7530 C.3    93  GLN93       0.1733
    114  C         29.7190  -38.3220    5.3370 C.2    93  GLN93       0.2616
    115  O         30.7100  -38.0870    4.5880 O.2    93  GLN93      -0.2715
    116  CB        30.2780  -40.2430    6.8760 C.3    93  GLN93       0.0408
    117  CG        30.0110  -39.4090    8.1410 C.3    93  GLN93       0.0908
    118  CD        30.8290  -39.9410    9.3000 C.2    93  GLN93       0.2608
    119  OE1       31.9620  -40.3540    9.1080 O.2    93  GLN93      -0.2717
    120  NE2       30.1960  -40.0500   10.5110 N.am   93  GLN93      -0.0878
    121  N         28.8820  -37.3730    5.7690 N.am   94  ASP94      -0.1971
    122  CA        29.2870  -35.9700    5.4790 C.3    94  ASP94       0.1709
    123  C         30.5130  -35.5370    6.3060 C.2    94  ASP94       0.2293
    124  O         30.8390  -36.1070    7.3810 O.2    94  ASP94      -0.2864
    125  CB        28.1230  -34.9860    5.5460 C.3    94  ASP94       0.1436
    126  CG        27.7220  -34.4940    6.9930 C.2    94  ASP94       0.3671
    127  OD1       28.3450  -34.7610    8.0130 O.co2  94  ASP94      -0.2456
    128  OD2       26.6770  -33.7980    7.0520 O.co2  94  ASP94      -0.2456
    129  N         29.8010  -34.5290   10.0530 N.3    97  ASP97      -0.1239
    130  CA        29.6780  -35.6510   11.0430 C.3    97  ASP97       0.1674
    131  C         30.9780  -36.3970   11.2750 C.2    97  ASP97       0.2266
    132  O         31.2460  -36.9150   12.3410 O.2    97  ASP97      -0.2867
    133  CB        28.6620  -36.6470   10.4950 C.3    97  ASP97       0.1410
    134  CG        27.2450  -36.1340   10.5890 C.2    97  ASP97       0.3668
    135  OD1       26.9420  -35.1270   11.3000 O.co2  97  ASP97      -0.2456
    136  OD2       26.3820  -36.7620    9.9440 O.co2  97  ASP97      -0.2456
    137  N         29.3950  -29.2630    6.0330 N.3   137  GLU137     -0.1245
    138  CA        28.0320  -29.8440    5.8500 C.3   137  GLU137      0.1567
    139  C         27.7140  -30.1790    4.3990 C.2   137  GLU137      0.2260
    140  O         26.8060  -31.0240    4.1440 O.2   137  GLU137     -0.2867
    141  CB        27.0320  -28.8270    6.2840 C.3   137  GLU137      0.0388
    142  CG        27.0050  -28.8100    7.8340 C.3   137  GLU137      0.1160
    143  CD        26.0370  -27.7040    8.3750 C.2   137  GLU137      0.3649
    144  OE1       26.3030  -26.4820    8.3710 O.co2 137  GLU137     -0.2457
    145  OE2       24.9520  -28.1020    8.8100 O.co2 137  GLU137     -0.2457
    146  N         30.5230  -34.6230    1.0020 N.3   140  LEU140     -0.1245
    147  CA        30.2610  -36.0260    1.3790 C.3   140  LEU140      0.1561
    148  C         31.5870  -36.7490    1.2000 C.2   140  LEU140      0.2260
    149  O         32.3360  -36.4860    0.2150 O.2   140  LEU140     -0.2867
    150  CB        29.2720  -36.6860    0.3810 C.3   140  LEU140      0.0270
    151  CG        27.9120  -36.0400    0.4400 C.3   140  LEU140      0.0019
    152  CD1       27.1040  -37.0030   -0.4990 C.3   140  LEU140      0.0001
    153  CD2       27.3580  -36.0090    1.8350 C.3   140  LEU140      0.0001
    154  N         28.4140  -31.0850   -2.5580 N.3   151  ILE151     -0.1231
    155  CA        26.9290  -31.1500   -2.8120 C.3   151  ILE151      0.1692
    156  C         26.2750  -29.7760   -2.5520 C.2   151  ILE151      0.2592
    157  O         26.9380  -28.8330   -2.0280 O.2   151  ILE151     -0.2718
    158  CB        26.2550  -32.2210   -1.8630 C.3   151  ILE151      0.0266
    159  CG1       26.5510  -31.9060   -0.3920 C.3   151  ILE151      0.0019
    160  CG2       26.7620  -33.5500   -2.2400 C.3   151  ILE151      0.0020
    161  CD1       25.6120  -32.7020    0.6040 C.3   151  ILE151      0.0001
    162  N         24.9450  -29.6640   -2.8610 N.am  152  ASP152     -0.1960
    163  CA        24.0690  -28.5330   -2.5190 C.3   152  ASP152      0.1840
    164  C         24.4100  -27.2140   -3.1900 C.2   152  ASP152      0.2622
    165  O         24.9700  -26.2890   -2.5340 O.2   152  ASP152     -0.2715
    166  CB        23.8750  -28.3380   -1.0340 C.3   152  ASP152      0.1450
    167  CG        22.6380  -27.5030   -0.7260 C.2   152  ASP152      0.3671
    168  OD1       22.3140  -27.3670    0.4570 O.co2 152  ASP152     -0.2456
    169  OD2       22.0040  -26.9830   -1.6680 O.co2 152  ASP152     -0.2456
    170  N         24.0810  -27.1510   -4.4940 N.am  153  PHE153     -0.1974
    171  CA        24.1950  -25.9490   -5.2410 C.3   153  PHE153      0.1639
    172  C         23.0510  -24.9360   -5.1310 C.2   153  PHE153      0.2290
    173  O         22.9520  -23.9520   -5.9100 O.2   153  PHE153     -0.2864
    174  CB        24.4200  -26.3210   -6.7020 C.3   153  PHE153      0.0560
    175  CG        25.7830  -26.8580   -6.9220 C.ar  153  PHE153     -0.0200
    176  CD1       26.1360  -28.1460   -6.5070 C.ar  153  PHE153     -0.0042
    177  CD2       26.7540  -26.0400   -7.5190 C.ar  153  PHE153     -0.0042
    178  CE1       27.4950  -28.6990   -6.6790 C.ar  153  PHE153     -0.0003
    179  CE2       28.0750  -26.5630   -7.6740 C.ar  153  PHE153     -0.0003
    180  CZ        28.4430  -27.8580   -7.3220 C.ar  153  PHE153     -0.0000
@<TRIPOS>BOND
     1    57    56    2
     2    56    55    1
     3    54    55    1
     4    55    58    1
     5    58    59    1
     6    48    47    2
     7    47    46    1
     8    59    60    1
     9    59    61    1
    10    45    46    1
    11    65    64    2
    12    46    49    1
    13    86    84   ar
    14    64    63    1
    15    85    84   ar
    16    84    83    1
    17    82    79    1
    18    82    83    1
    19    78    79    1
    20    78    72   am
    21    70    71    1
    22    71    72    1
    23    71    74    1
    24   179   177   ar
    25   179   180   ar
    26    49    50    1
    27    79    80    1
    28   177   175   ar
    29    72    73    2
    30    77    75    1
    31   180   178   ar
    32    63    62    1
    33    63    66    1
    34    50    51    1
    35   175   174    1
    36   175   176   ar
    37    75    74    1
    38    75    76    1
    39   174   171    1
    40   178   176   ar
    41    68    66    1
    42    80    87   am
    43    80    81    2
    44    66    67    1
    45   173   172    2
    46    51    53   ar
    47    51    52   ar
    48    67    69    1
    49    87    88    1
    50    34    33    2
    51   171   172    1
    52   171   170    1
    53    39    38    2
    54    31    32    1
    55   170   164   am
    56    33    32    1
    57    88    89    1
    58    88    91    1
    59    90    89    2
    60    36    37    1
    61    89    98   am
    62    38    37    1
    63    40    37    1
    64    40    41    1
    65    98   104    1
    66    98    99    1
    67    91    92    1
    68    32    35    1
    69   104   103    1
    70   103   102    1
    71    42    41    1
    72    42    43    1
    73    99   102    1
    74    99   100    1
    75   164   165    2
    76   164   163    1
    77   162   156   am
    78   162   163    1
    79   155   154    1
    80   155   156    1
    81   155   158    1
    82    44    43    1
    83   156   157    2
    84   163   166    1
    85   160   158    1
    86    92    93    1
    87    97    95    1
    88   100   101    2
    89    94    95    2
    90    94    93    1
    91   158   159    1
    92   169   167   ar
    93    95    96    1
    94   166   167    1
    95    16    15    2
    96   167   168   ar
    97   152   151    1
    98   159   161    1
    99    29    28    1
   100    30    28    1
   101   149   148    2
   102   150   151    1
   103   150   147    1
   104    15    14    1
   105   151   153    1
   106    28    25    1
   107    25    26    1
   108    25    24    1
   109   111   109    1
   110    17    14    1
   111    17    18    1
   112    14    13    1
   113   146   147    1
   114    26    27    2
   115   148   147    1
   116     7     6    1
   117   109   110    1
   118   109   106    1
   119    19    18   ar
   120    19    21   ar
   121    18    20   ar
   122   105   106    1
   123   106   107    1
   124    21    23   ar
   125     6     5    1
   126     6     8    1
   127    20    22   ar
   128     5     2    1
   129    23    22   ar
   130   107   112   am
   131   107   108    2
   132   140   139    2
   133    12    11    2
   134   139   138    1
   135     1     2    1
   136   112   113    1
   137   115   114    2
   138     2     3    1
   139     9     3   am
   140     9    10    1
   141    11    10    1
   142   114   113    1
   143   114   121   am
   144   122   125    1
   145   122   121    1
   146   122   123    1
   147   125   126    1
   148     3     4    2
   149   113   116    1
   150   138   137    1
   151   138   141    1
   152   141   142    1
   153   123   124    2
   154   116   117    1
   155   126   128   ar
   156   126   127   ar
   157   142   143    1
   158   117   118    1
   159   144   143   ar
   160   143   145   ar
   161   119   118    2
   162   118   120   am
   163   136   134   ar
   164   129   130    1
   165   133   134    1
   166   133   130    1
   167   134   135   ar
   168   130   131    1
   169   131   132    2
