@<TRIPOS>MOLECULE
tmp/3r07A01.pdb
 94 87 0 0 0
SMALL
GASTEIGER

@<TRIPOS>ATOM
      1  N         55.7640   53.6630   19.6370 N.3    47  ILE47      -0.1245
      2  CA        56.4770   53.4050   20.8550 C.3    47  ILE47       0.1561
      3  C         56.7600   54.7270   21.5210 C.2    47  ILE47       0.2260
      4  O         57.3840   55.6000   20.9230 O.2    47  ILE47      -0.2867
      5  CB        57.7500   52.6170   20.5930 C.3    47  ILE47       0.0252
      6  CG1       57.4000   51.3120   19.8790 C.3    47  ILE47       0.0019
      7  CG2       58.4990   52.3660   21.8900 C.3    47  ILE47       0.0019
      8  CD1       58.5980   50.5670   19.3990 C.3    47  ILE47       0.0001
      9  N         58.6130   52.1510   25.9310 N.3    73  ARG73      -0.1245
     10  CA        59.9300   51.5280   26.0580 C.3    73  ARG73       0.1563
     11  C         60.5680   51.9670   27.3860 C.2    73  ARG73       0.2260
     12  O         60.0550   52.8210   28.0950 O.2    73  ARG73      -0.2867
     13  CB        60.8390   51.8340   24.8380 C.3    73  ARG73       0.0307
     14  CG        61.0820   53.3360   24.5870 C.3    73  ARG73       0.0489
     15  CD        62.0720   53.6610   23.4710 C.3    73  ARG73       0.2205
     16  NE        62.3650   55.0950   23.4990 N.pl3  73  ARG73      -0.0865
     17  CZ        61.6430   56.0360   22.8790 C.cat  73  ARG73       0.5346
     18  NH1       60.5980   55.7120   22.1310 N.pl3  73  ARG73       0.1354
     19  NH2       61.9560   57.3210   23.0080 N.pl3  73  ARG73       0.1354
     20  N         63.3660   59.8740   25.4670 N.3    77  GLY77      -0.1210
     21  CA        62.8900   60.2630   24.1050 C.3    77  GLY77       0.1956
     22  C         61.3930   60.3720   24.2150 C.2    77  GLY77       0.2612
     23  O         60.8770   60.1070   25.3040 O.2    77  GLY77      -0.2717
     24  N         60.5960   60.6650   23.1840 N.am   78  GLY78      -0.1956
     25  CA        60.7090   60.3420   21.8180 C.3    78  GLY78       0.1869
     26  C         59.5420   59.3760   21.5680 C.2    78  GLY78       0.2309
     27  O         59.6620   58.1870   21.9240 O.2    78  GLY78      -0.2863
     28  N         57.4900   57.3860   18.4900 N.3    80  VAL80      -0.1245
     29  CA        57.7960   57.0770   17.1170 C.3    80  VAL80       0.1561
     30  C         56.9120   55.9840   16.5850 C.2    80  VAL80       0.2260
     31  O         56.5480   55.0680   17.3260 O.2    80  VAL80      -0.2867
     32  CB        59.2760   56.6260   16.9380 C.3    80  VAL80       0.0252
     33  CG1       60.2380   57.7410   17.3230 C.3    80  VAL80       0.0019
     34  CG2       59.5720   55.3840   17.7350 C.3    80  VAL80       0.0019
     35  N         56.5210   52.7180   14.1550 N.3    82  HIS82      -0.1241
     36  CA        57.3270   51.6240   13.6060 C.3    82  HIS82       0.1621
     37  C         56.4860   50.7140   12.7450 C.2    82  HIS82       0.2264
     38  O         55.3450   50.4240   13.0930 O.2    82  HIS82      -0.2867
     39  CB        57.9000   50.7530   14.7080 C.3    82  HIS82       0.0745
     40  CG        59.0890   51.3350   15.3950 C.ar   82  HIS82       0.0817
     41  ND1       59.9770   50.5660   16.1050 N.ar   82  HIS82      -0.2268
     42  CD2       59.5460   52.6050   15.4780 C.ar   82  HIS82       0.1154
     43  CE1       60.9110   51.3360   16.6210 C.ar   82  HIS82       0.1986
     44  NE2       60.6800   52.5760   16.2460 N.ar   82  HIS82      -0.2212
     45  N         65.2910   47.8250   13.5350 N.3    88  ASN88      -0.1240
     46  CA        65.6350   48.1700   14.9080 C.3    88  ASN88       0.1653
     47  C         66.8410   47.3930   15.3540 C.2    88  ASN88       0.2266
     48  O         66.9470   46.1810   15.0880 O.2    88  ASN88      -0.2867
     49  CB        64.4710   47.8570   15.8390 C.3    88  ASN88       0.1155
     50  CG        63.2450   48.6760   15.5150 C.2    88  ASN88       0.2627
     51  OD1       63.1650   49.7970   15.9270 O.2    88  ASN88      -0.2716
     52  ND2       62.2940   48.1220   14.7760 N.am   88  ASN88      -0.0877
     53  N         71.4510   62.2800   18.8750 N.3   128  ASN128     -0.1240
     54  CA        70.7680   61.0030   18.6740 C.3   128  ASN128      0.1653
     55  C         70.0300   60.7160   17.3530 C.2   128  ASN128      0.2266
     56  O         69.1450   59.8640   17.3180 O.2   128  ASN128     -0.2867
     57  CB        69.8320   60.7550   19.8360 C.3   128  ASN128      0.1155
     58  CG        68.6440   61.6840   19.8240 C.2   128  ASN128      0.2627
     59  OD1       68.7200   62.8330   19.3460 O.2   128  ASN128     -0.2716
     60  ND2       67.5260   61.1970   20.3550 N.am  128  ASN128     -0.0877
     61  N         66.5980   57.3160   14.2510 N.3   141  GLY141     -0.1210
     62  CA        66.5070   57.9310   15.5860 C.3   141  GLY141      0.1956
     63  C         66.9990   56.9940   16.6920 C.2   141  GLY141      0.2612
     64  O         66.8660   55.7670   16.5800 O.2   141  GLY141     -0.2717
     65  N         67.5610   57.5430   17.7670 N.am  142  ALA142     -0.1965
     66  CA        68.0900   56.6910   18.8530 C.3   142  ALA142      0.1728
     67  C         67.7470   57.1260   20.2690 C.2   142  ALA142      0.2616
     68  O         67.3480   58.2490   20.5070 O.2   142  ALA142     -0.2715
     69  CB        69.5850   56.5360   18.7220 C.3   142  ALA142      0.0334
     70  N         67.9190   56.2040   21.2030 N.am  143  ALA143     -0.1977
     71  CA        67.8040   56.4690   22.6340 C.3   143  ALA143      0.1597
     72  C         68.7500   55.5200   23.3770 C.2   143  ALA143      0.2287
     73  O         69.3690   54.6610   22.7770 O.2   143  ALA143     -0.2864
     74  CB        66.3620   56.2690   23.0830 C.3   143  ALA143      0.0319
     75  N         69.9080   51.8610   21.6380 N.3   154  HIS154     -0.1226
     76  CA        69.0830   51.2580   20.6060 C.3   154  HIS154      0.1752
     77  C         68.5680   52.2930   19.6240 C.2   154  HIS154      0.2596
     78  O         68.3960   53.4440   19.9760 O.2   154  HIS154     -0.2718
     79  CB        67.9380   50.4500   21.2010 C.3   154  HIS154      0.0759
     80  CG        66.9890   51.2490   22.0210 C.ar  154  HIS154      0.0818
     81  ND1       66.0540   52.0900   21.4620 N.ar  154  HIS154     -0.2268
     82  CD2       66.7990   51.3090   23.3580 C.ar  154  HIS154      0.1154
     83  CE1       65.3560   52.6720   22.4210 C.ar  154  HIS154      0.1986
     84  NE2       65.7900   52.2160   23.5820 N.ar  154  HIS154     -0.2212
     85  N         68.3250   51.8910   18.3810 N.am  155  ALA155     -0.1966
     86  CA        67.9310   52.8410   17.3350 C.3   155  ALA155      0.1728
     87  C         66.9480   52.2400   16.3300 C.2   155  ALA155      0.2616
     88  O         66.8590   51.0330   16.2000 O.2   155  ALA155     -0.2715
     89  CB        69.1530   53.3730   16.6320 C.3   155  ALA155      0.0334
     90  N         66.1790   53.0770   15.6520 N.am  156  ALA156     -0.1977
     91  CA        65.3340   52.5820   14.5750 C.3   156  ALA156      0.1597
     92  C         65.7320   53.2790   13.2830 C.2   156  ALA156      0.2287
     93  O         65.8660   54.5060   13.2360 O.2   156  ALA156     -0.2864
     94  CB        63.8820   52.8200   14.8850 C.3   156  ALA156      0.0319
@<TRIPOS>BOND
     1    37    38    2
     2    37    36    1
     3    93    92    2
     4    92    91    1
     5    45    46    1
     6    36    35    1
     7    36    39    1
     8    61    62    1
     9    91    94    1
    10    91    90    1
    11    39    40    1
    12    52    50   am
    13    46    47    1
    14    46    49    1
    15    48    47    2
    16    40    42   ar
    17    40    41   ar
    18    42    44   ar
    19    50    49    1
    20    50    51    2
    21    62    63    1
    22    90    87   am
    23    41    43   ar
    24    88    87    2
    25    44    43   ar
    26    87    86    1
    27    64    63    2
    28    30    29    1
    29    30    31    2
    30    89    86    1
    31    63    65   am
    32    32    29    1
    33    32    33    1
    34    32    34    1
    35    29    28    1
    36    56    55    2
    37    86    85    1
    38    55    54    1
    39    65    66    1
    40    85    77   am
    41    54    53    1
    42    54    57    1
    43    69    66    1
    44    66    67    1
    45    59    58    2
    46     8     6    1
    47    77    78    2
    48    77    76    1
    49     1     2    1
    50    58    57    1
    51    58    60   am
    52     6     5    1
    53    67    68    2
    54    67    70   am
    55     5     2    1
    56     5     7    1
    57    76    79    1
    58    76    75    1
    59     2     3    1
    60     4     3    2
    61    79    80    1
    62    70    71    1
    63    81    80   ar
    64    81    83   ar
    65    26    25    1
    66    26    27    2
    67    25    24    1
    68    80    82   ar
    69    18    17    1
    70    83    84   ar
    71    71    74    1
    72    71    72    1
    73    73    72    2
    74    17    19    1
    75    17    16    2
    76    24    22   am
    77    82    84   ar
    78    15    16    1
    79    15    14    1
    80    21    22    1
    81    21    20    1
    82    22    23    2
    83    14    13    1
    84    13    10    1
    85     9    10    1
    86    10    11    1
    87    11    12    2
