@<TRIPOS>MOLECULE
tmp/3r07A00.pdb
 94 91 0 0 0
SMALL
GASTEIGER

@<TRIPOS>ATOM
      1  N         69.6440   37.7150   16.5510 N.3     8  LEU8       -0.1231
      2  CA        68.6450   37.9870   15.5340 C.3     8  LEU8        0.1693
      3  C         67.3780   37.4520   16.1350 C.2     8  LEU8        0.2592
      4  O         67.0160   36.2840   15.9890 O.2     8  LEU8       -0.2718
      5  CB        69.0240   37.3270   14.2090 C.3     8  LEU8        0.0284
      6  CG        70.4020   37.7700   13.7000 C.3     8  LEU8        0.0019
      7  CD1       70.7380   36.9980   12.4400 C.3     8  LEU8        0.0001
      8  CD2       70.5060   39.2930   13.4270 C.3     8  LEU8        0.0001
      9  N         66.7310   38.3270   16.8780 N.am    9  LEU9       -0.1966
     10  CA        65.6610   37.9360   17.7690 C.3     9  LEU9        0.1728
     11  C         64.5590   38.9970   17.7010 C.2     9  LEU9        0.2616
     12  O         64.7740   40.1520   18.0530 O.2     9  LEU9       -0.2715
     13  CB        66.2230   37.8000   19.1910 C.3     9  LEU9        0.0311
     14  CG        65.1820   37.7010   20.3050 C.3     9  LEU9        0.0022
     15  CD1       64.5580   36.3400   20.2730 C.3     9  LEU9        0.0001
     16  CD2       65.8210   37.9550   21.6580 C.3     9  LEU9        0.0001
     17  N         63.3810   38.5910   17.2460 N.am   10  GLU10      -0.1977
     18  CA        62.2820   39.5200   17.0160 C.3    10  GLU10       0.1602
     19  C         60.8840   38.9160   17.2500 C.2    10  GLU10       0.2287
     20  O         60.6920   37.6970   17.0960 O.2    10  GLU10      -0.2864
     21  CB        62.3900   40.0860   15.5990 C.3    10  GLU10       0.0415
     22  CG        62.0300   39.1720   14.4700 C.3    10  GLU10       0.1163
     23  CD        61.9810   39.9220   13.1320 C.2    10  GLU10       0.3649
     24  OE1       62.2190   41.1660   13.1250 O.co2  10  GLU10      -0.2457
     25  OE2       61.7060   39.2790   12.0740 O.co2  10  GLU10      -0.2457
     26  N         69.1320   42.6670   16.4000 N.3    39  PHE39      -0.1227
     27  CA        68.3680   43.2770   15.3030 C.3    39  PHE39       0.1736
     28  C         66.9490   42.7600   15.3690 C.2    39  PHE39       0.2595
     29  O         66.7280   41.6330   15.7890 O.2    39  PHE39      -0.2718
     30  CB        68.9720   42.9620   13.9310 C.3    39  PHE39       0.0547
     31  CG        70.2360   43.7080   13.6340 C.ar   39  PHE39      -0.0202
     32  CD1       70.2000   45.0070   13.1520 C.ar   39  PHE39      -0.0042
     33  CD2       71.4570   43.1180   13.8210 C.ar   39  PHE39      -0.0042
     34  CE1       71.3630   45.6970   12.8500 C.ar   39  PHE39      -0.0003
     35  CE2       72.6200   43.7870   13.5190 C.ar   39  PHE39      -0.0003
     36  CZ        72.5820   45.0880   13.0350 C.ar   39  PHE39      -0.0000
     37  N         65.9870   43.5850   14.9540 N.am   40  TYR40      -0.1962
     38  CA        64.5700   43.2520   15.1310 C.3    40  TYR40       0.1771
     39  C         63.6450   44.2700   14.4540 C.2    40  TYR40       0.2619
     40  O         64.0360   45.4240   14.1720 O.2    40  TYR40      -0.2715
     41  CB        64.2280   43.1640   16.6260 C.3    40  TYR40       0.0574
     42  CG        64.5140   44.3890   17.4960 C.ar   40  TYR40      -0.0198
     43  CD1       63.4700   45.1420   18.0510 C.ar   40  TYR40      -0.0009
     44  CD2       65.8380   44.7390   17.8440 C.ar   40  TYR40      -0.0009
     45  CE1       63.7280   46.2340   18.9130 C.ar   40  TYR40       0.0417
     46  CE2       66.1100   45.8330   18.6830 C.ar   40  TYR40       0.0417
     47  CZ        65.0470   46.5670   19.1990 C.ar   40  TYR40       0.1957
     48  OH        65.3330   47.6430   20.0050 O.3    40  TYR40      -0.2866
     49  N         62.4070   43.8430   14.2140 N.am   41  ARG41      -0.1977
     50  CA        61.4260   44.7090   13.5790 C.3    41  ARG41       0.1597
     51  C         60.1370   44.6620   14.3550 C.2    41  ARG41       0.2287
     52  O         59.8150   43.6420   14.9060 O.2    41  ARG41      -0.2864
     53  CB        61.1200   44.2160   12.1490 C.3    41  ARG41       0.0334
     54  CG        62.2100   44.3440   11.1610 C.3    41  ARG41       0.0492
     55  CD        61.8180   43.5510    9.9880 C.3    41  ARG41       0.2205
     56  NE        62.0230   42.1190   10.2150 N.pl3  41  ARG41      -0.0865
     57  CZ        62.0770   41.2280    9.2200 C.cat  41  ARG41       0.5346
     58  NH1       61.9250   41.6640    7.9730 N.pl3  41  ARG41       0.1354
     59  NH2       62.3150   39.9320    9.4570 N.pl3  41  ARG41       0.1354
     60  N         64.3000   49.0260   10.5400 N.3    87  LEU87      -0.1245
     61  CA        65.2310   48.0870   11.1040 C.3    87  LEU87       0.1561
     62  C         65.6030   48.6120   12.5080 C.2    87  LEU87       0.2260
     63  O         66.1120   49.7320   12.6490 O.2    87  LEU87      -0.2867
     64  CB        66.4350   47.9200   10.1810 C.3    87  LEU87       0.0270
     65  CG        67.4520   46.9050   10.6870 C.3    87  LEU87       0.0019
     66  CD1       66.8300   45.5300   10.9960 C.3    87  LEU87       0.0001
     67  CD2       68.5810   46.7840    9.7090 C.3    87  LEU87       0.0001
     68  N         66.2900   45.1880    3.4250 N.3   200  ILE200     -0.1231
     69  CA        66.4540   45.4150    4.8350 C.3   200  ILE200      0.1692
     70  C         67.5990   44.5600    5.3840 C.2   200  ILE200      0.2592
     71  O         68.3360   45.0170    6.2420 O.2   200  ILE200     -0.2718
     72  CB        65.1140   45.2230    5.5910 C.3   200  ILE200      0.0266
     73  CG1       65.1400   45.9890    6.8980 C.3   200  ILE200      0.0019
     74  CG2       64.8050   43.7370    5.8150 C.3   200  ILE200      0.0020
     75  CD1       63.8150   46.1410    7.5190 C.3   200  ILE200      0.0001
     76  N         67.7730   43.3530    4.8310 N.am  201  ASP201     -0.1974
     77  CA        68.8540   42.4370    5.2140 C.3   201  ASP201      0.1709
     78  C         70.2350   42.9170    4.7730 C.2   201  ASP201      0.2293
     79  O         71.2330   42.6230    5.4380 O.2   201  ASP201     -0.2864
     80  CB        68.5900   41.0090    4.7090 C.3   201  ASP201      0.1436
     81  CG        67.9870   40.9720    3.2720 C.2   201  ASP201      0.3671
     82  OD1       68.6670   40.4480    2.3240 O.co2 201  ASP201     -0.2456
     83  OD2       66.8220   41.4810    3.0860 O.co2 201  ASP201     -0.2456
     84  N         71.0710   45.6660    7.2900 N.3   204  ARG204     -0.1245
     85  CA        71.5120   44.9860    8.4800 C.3   204  ARG204      0.1563
     86  C         72.9350   44.4810    8.3590 C.2   204  ARG204      0.2260
     87  O         73.7670   44.7340    9.2510 O.2   204  ARG204     -0.2867
     88  CB        70.5960   43.8300    8.8320 C.3   204  ARG204      0.0307
     89  CG        71.1350   43.0500   10.0400 C.3   204  ARG204      0.0489
     90  CD        70.5800   41.6670   10.0980 C.3   204  ARG204      0.2205
     91  NE        71.1370   40.8350    9.0450 N.pl3 204  ARG204     -0.0865
     92  CZ        70.5860   39.6960    8.6560 C.cat 204  ARG204      0.5346
     93  NH1       69.4780   39.2820    9.2560 N.pl3 204  ARG204      0.1354
     94  NH2       71.1290   38.9870    7.6740 N.pl3 204  ARG204      0.1354
@<TRIPOS>BOND
     1    82    81   ar
     2    83    81   ar
     3    81    80    1
     4    68    69    1
     5    80    77    1
     6    78    77    1
     7    78    79    2
     8    76    77    1
     9    76    70   am
    10    69    70    1
    11    69    72    1
    12    70    71    2
    13    72    74    1
    14    72    73    1
    15    73    75    1
    16    84    85    1
    17    94    92    1
    18    58    57    1
    19    86    85    1
    20    86    87    2
    21    85    88    1
    22    92    91    2
    23    92    93    1
    24    88    89    1
    25    91    90    1
    26    57    59    1
    27    57    56    2
    28    67    65    1
    29    55    56    1
    30    55    54    1
    31    89    90    1
    32    64    65    1
    33    64    61    1
    34    60    61    1
    35    65    66    1
    36    61    62    1
    37    54    53    1
    38    25    23   ar
    39    53    50    1
    40     7     6    1
    41    62    63    2
    42    34    36   ar
    43    34    32   ar
    44    36    35   ar
    45    24    23   ar
    46    23    22    1
    47    32    31   ar
    48     8     6    1
    49    35    33   ar
    50    50    49    1
    51    50    51    1
    52    31    33   ar
    53    31    30    1
    54     6     5    1
    55    30    27    1
    56    40    39    2
    57     5     2    1
    58    49    39   am
    59    51    52    2
    60    39    38    1
    61    22    21    1
    62    37    38    1
    63    37    28   am
    64    38    41    1
    65    27    28    1
    66    27    26    1
    67    28    29    2
    68     2     3    1
    69     2     1    1
    70    21    18    1
    71     4     3    2
    72     3     9   am
    73    41    42    1
    74     9    10    1
    75    18    17    1
    76    18    19    1
    77    20    19    2
    78    17    11   am
    79    42    44   ar
    80    42    43   ar
    81    11    10    1
    82    11    12    2
    83    10    13    1
    84    44    46   ar
    85    43    45   ar
    86    46    47   ar
    87    45    47   ar
    88    13    14    1
    89    47    48    1
    90    15    14    1
    91    14    16    1
