@<TRIPOS>MOLECULE
tmp/3r0hI01.pdb
 85 86 0 0 0
SMALL
GASTEIGER

@<TRIPOS>ATOM
      1  N        -30.5470   36.6560  -33.1480 N.3    46  HIS46      -0.1241
      2  CA       -29.9460   36.3320  -31.8560 C.3    46  HIS46       0.1621
      3  C        -29.5850   37.6100  -31.1160 C.2    46  HIS46       0.2264
      4  O        -29.0070   38.5350  -31.7070 O.2    46  HIS46      -0.2867
      5  CB       -28.6880   35.4650  -32.0030 C.3    46  HIS46       0.0745
      6  CG       -28.2680   34.8030  -30.7260 C.ar   46  HIS46       0.0817
      7  ND1      -27.1510   35.1900  -30.0140 N.ar   46  HIS46      -0.2268
      8  CD2      -28.8360   33.7990  -30.0140 C.ar   46  HIS46       0.1154
      9  CE1      -27.0390   34.4410  -28.9310 C.ar   46  HIS46       0.1986
     10  NE2      -28.0470   33.5880  -28.9070 N.ar   46  HIS46      -0.2212
     11  N        -27.2460   38.5650  -27.9080 N.3    48  TYR48      -0.1228
     12  CA       -26.2350   38.1420  -26.9190 C.3    48  TYR48       0.1721
     13  C        -26.4900   38.7380  -25.5400 C.2    48  TYR48       0.2437
     14  O        -26.4860   39.9640  -25.3750 O.2    48  TYR48      -0.2733
     15  CB       -24.8070   38.4690  -27.3880 C.3    48  TYR48       0.0547
     16  CG       -24.2910   37.5540  -28.4950 C.ar   48  TYR48      -0.0200
     17  CD1      -23.9270   38.0660  -29.7480 C.ar   48  TYR48      -0.0009
     18  CD2      -24.1830   36.1760  -28.2940 C.ar   48  TYR48      -0.0009
     19  CE1      -23.4500   37.2370  -30.7580 C.ar   48  TYR48       0.0417
     20  CE2      -23.7240   35.3350  -29.3020 C.ar   48  TYR48       0.0417
     21  CZ       -23.3600   35.8700  -30.5300 C.ar   48  TYR48       0.1957
     22  OH       -22.8990   35.0260  -31.5180 O.3    48  TYR48      -0.2866
     23  N        -26.7080   37.8660  -24.5390 N.am   49  PRO49      -0.2718
     24  CA       -26.9950   38.1550  -23.1110 C.3    49  PRO49       0.1535
     25  C        -26.3080   39.3660  -22.4650 C.2    49  PRO49       0.2598
     26  O        -26.8840   39.9930  -21.5680 O.2    49  PRO49      -0.2715
     27  CB       -26.5240   36.8790  -22.4190 C.3    49  PRO49       0.0310
     28  CG       -26.8530   35.7820  -23.4270 C.3    49  PRO49       0.0237
     29  CD       -26.7740   36.4120  -24.8150 C.3    49  PRO49       0.0939
     30  N        -25.0990   39.6980  -22.9100 N.am   50  GLU50      -0.1978
     31  CA       -24.2740   40.6950  -22.2270 C.3    50  GLU50       0.1602
     32  C        -23.9450   41.8930  -23.1100 C.2    50  GLU50       0.2287
     33  O        -23.0700   42.6960  -22.7770 O.2    50  GLU50      -0.2864
     34  CB       -22.9920   40.0350  -21.6890 C.3    50  GLU50       0.0415
     35  CG       -22.1260   39.3300  -22.7610 C.3    50  GLU50       0.1163
     36  CD       -22.7340   38.0080  -23.2540 C.2    50  GLU50       0.3649
     37  OE1      -22.4800   36.9430  -22.6300 O.co2  50  GLU50      -0.2457
     38  OE2      -23.4640   38.0420  -24.2660 O.co2  50  GLU50      -0.2457
     39  N        -20.5870   27.4580  -35.6610 N.3   125  SER125     -0.1202
     40  CA       -20.4060   27.9810  -34.3300 C.3   125  SER125      0.2020
     41  C        -21.8020   28.3670  -33.8700 C.2   125  SER125      0.2619
     42  O        -22.4000   29.2670  -34.4360 O.2   125  SER125     -0.2717
     43  CB       -19.5030   29.2060  -34.4080 C.3   125  SER125      0.2103
     44  OG       -19.2290   29.7290  -33.1220 O.3   125  SER125     -0.2182
     45  N        -22.3390   27.6930  -32.8600 N.am  126  LEU126     -0.1965
     46  CA       -23.7590   27.8570  -32.5410 C.3   126  LEU126      0.1728
     47  C        -24.0180   28.7300  -31.3210 C.2   126  LEU126      0.2617
     48  O        -23.2650   28.7110  -30.3570 O.2   126  LEU126     -0.2715
     49  CB       -24.4430   26.4900  -32.3900 C.3   126  LEU126      0.0311
     50  CG       -24.2000   25.4310  -33.4850 C.3   126  LEU126      0.0022
     51  CD1      -24.5710   24.0650  -32.9830 C.3   126  LEU126      0.0001
     52  CD2      -24.9870   25.7360  -34.7520 C.3   126  LEU126      0.0001
     53  N        -25.0860   29.5090  -31.3770 N.am  127  SER127     -0.1936
     54  CA       -25.5200   30.2980  -30.2370 C.3   127  SER127      0.2040
     55  C        -26.9530   29.8970  -29.9250 C.2   127  SER127      0.2485
     56  O        -27.8590   30.1420  -30.7230 O.2   127  SER127     -0.2729
     57  CB       -25.4220   31.7910  -30.5590 C.3   127  SER127      0.2129
     58  OG       -24.0770   32.1500  -30.8620 O.3   127  SER127     -0.2179
     59  N        -27.1700   29.2260  -28.7870 N.am  128  PRO128     -0.2726
     60  CA       -28.5380   28.8000  -28.5260 C.3   128  PRO128      0.1402
     61  C        -29.3520   29.9560  -28.0070 C.2   128  PRO128      0.2269
     62  O        -28.7980   30.9130  -27.4620 O.2   128  PRO128     -0.2865
     63  CB       -28.3800   27.7390  -27.4220 C.3   128  PRO128      0.0296
     64  CG       -26.9320   27.3690  -27.4500 C.3   128  PRO128      0.0237
     65  CD       -26.2260   28.6300  -27.8370 C.3   128  PRO128      0.0939
     66  N        -25.7330   25.1590  -24.1960 N.3   169  PHE169     -0.1227
     67  CA       -24.8070   24.9110  -25.2980 C.3   169  PHE169      0.1736
     68  C        -24.2120   23.5050  -25.2460 C.2   169  PHE169      0.2595
     69  O        -24.0130   22.8960  -26.2960 O.2   169  PHE169     -0.2718
     70  CB       -23.6560   25.9330  -25.3640 C.3   169  PHE169      0.0547
     71  CG       -22.6570   25.6240  -26.4480 C.ar  169  PHE169     -0.0202
     72  CD1      -22.8880   26.0410  -27.7640 C.ar  169  PHE169     -0.0042
     73  CD2      -21.5270   24.8680  -26.1750 C.ar  169  PHE169     -0.0042
     74  CE1      -21.9880   25.7300  -28.7960 C.ar  169  PHE169     -0.0003
     75  CE2      -20.6170   24.5480  -27.1850 C.ar  169  PHE169     -0.0003
     76  CZ       -20.8450   24.9770  -28.5050 C.ar  169  PHE169     -0.0000
     77  N        -23.9170   23.0220  -24.0360 N.am  170  GLN170     -0.1979
     78  CA       -23.3960   21.6660  -23.8180 C.3   170  GLN170      0.1601
     79  C        -24.2520   20.5800  -24.4330 C.2   170  GLN170      0.2287
     80  O        -23.7380   19.7270  -25.1470 O.2   170  GLN170     -0.2864
     81  CB       -23.2440   21.3620  -22.3320 C.3   170  GLN170      0.0394
     82  CG       -21.8170   21.2650  -21.8630 C.3   170  GLN170      0.0908
     83  CD       -21.6770   20.3710  -20.6380 C.2   170  GLN170      0.2608
     84  OE1      -21.5440   19.1470  -20.7500 O.2   170  GLN170     -0.2717
     85  NE2      -21.6960   20.9810  -19.4620 N.am  170  GLN170     -0.0878
@<TRIPOS>BOND
     1    39    40    1
     2    52    50    1
     3    42    41    2
     4    43    40    1
     5    43    44    1
     6    40    41    1
     7    41    45   am
     8    50    51    1
     9    50    49    1
    10     1     2    1
    11    45    46    1
    12    46    49    1
    13    46    47    1
    14     5     2    1
    15     5     6    1
    16     2     3    1
    17     4     3    2
    18    22    21    1
    19    53    47   am
    20    53    54    1
    21    47    48    2
    22    58    57    1
    23    19    21   ar
    24    19    17   ar
    25     6     7   ar
    26     6     8   ar
    27    56    55    2
    28    57    54    1
    29    21    20   ar
    30    54    55    1
    31     7     9   ar
    32     8    10   ar
    33    55    59   am
    34    17    16   ar
    35    20    18   ar
    36     9    10   ar
    37    74    76   ar
    38    74    72   ar
    39    59    60    1
    40    59    65    1
    41    60    61    1
    42    60    63    1
    43    76    75   ar
    44    16    18   ar
    45    16    15    1
    46    61    62    2
    47    11    12    1
    48    65    64    1
    49    72    71   ar
    50    64    63    1
    51    15    12    1
    52    75    73   ar
    53    12    13    1
    54    71    73   ar
    55    71    70    1
    56    69    68    2
    57    13    14    2
    58    13    23   am
    59    70    67    1
    60    67    68    1
    61    67    66    1
    62    68    77   am
    63    80    79    2
    64    29    23    1
    65    29    28    1
    66    23    24    1
    67    79    78    1
    68    38    36   ar
    69    77    78    1
    70    78    81    1
    71    28    27    1
    72    36    35    1
    73    36    37   ar
    74    24    25    1
    75    24    27    1
    76    32    33    2
    77    32    31    1
    78    30    25   am
    79    30    31    1
    80    35    34    1
    81    25    26    2
    82    81    82    1
    83    31    34    1
    84    82    83    1
    85    84    83    2
    86    83    85   am
