@<TRIPOS>MOLECULE
tmp/3r0hI00.pdb
 111 107 0 0 0
SMALL
GASTEIGER

@<TRIPOS>ATOM
      1  N        -22.8050   13.3800  -43.2250 N.3   116  LYS116     -0.1245
      2  CA       -21.6210   13.8060  -42.4720 C.3   116  LYS116      0.1561
      3  C        -20.5790   12.7150  -42.4020 C.2   116  LYS116      0.2260
      4  O        -20.8230   11.6510  -41.8200 O.2   116  LYS116     -0.2867
      5  CB       -21.9640   14.2330  -41.0470 C.3   116  LYS116      0.0271
      6  CG       -20.7560   14.7950  -40.2890 C.3   116  LYS116      0.0035
      7  CD       -21.0810   15.1110  -38.8430 C.3   116  LYS116      0.0206
      8  CE       -19.8330   15.5570  -38.0780 C.3   116  LYS116      0.1093
      9  NZ       -20.1930   16.3810  -36.8690 N.3   116  LYS116     -0.1314
     10  N        -15.9580   18.2050  -39.6230 N.3   121  GLU121     -0.1231
     11  CA       -17.0380   18.9310  -38.9500 C.3   121  GLU121      0.1699
     12  C        -17.8550   19.6880  -39.9800 C.2   121  GLU121      0.2592
     13  O        -17.3820   19.9730  -41.0920 O.2   121  GLU121     -0.2718
     14  CB       -16.4990   19.9380  -37.9280 C.3   121  GLU121      0.0402
     15  CG       -15.0380   19.8090  -37.6300 C.3   121  GLU121      0.1161
     16  CD       -14.4450   21.0430  -36.9840 C.2   121  GLU121      0.3649
     17  OE1      -13.4500   20.8730  -36.2380 O.co2 121  GLU121     -0.2457
     18  OE2      -14.9570   22.1670  -37.2220 O.co2 121  GLU121     -0.2457
     19  N        -19.0770   20.0170  -39.5900 N.am  122  LEU122     -0.1966
     20  CA       -19.9600   20.8530  -40.3820 C.3   122  LEU122      0.1728
     21  C        -19.3910   22.2650  -40.5370 C.2   122  LEU122      0.2617
     22  O        -19.6650   22.9440  -41.5390 O.2   122  LEU122     -0.2715
     23  CB       -21.3260   20.9460  -39.7010 C.3   122  LEU122      0.0311
     24  CG       -22.0360   19.6880  -39.1890 C.3   122  LEU122      0.0022
     25  CD1      -23.2420   20.1110  -38.3660 C.3   122  LEU122      0.0001
     26  CD2      -22.4720   18.7910  -40.3270 C.3   122  LEU122      0.0001
     27  N        -18.6250   22.7040  -39.5360 N.am  123  GLY123     -0.1940
     28  CA       -18.0490   24.0410  -39.5150 C.3   123  GLY123      0.2014
     29  C        -18.9830   25.1490  -39.0440 C.2   123  GLY123      0.2639
     30  O        -18.9780   26.2470  -39.5990 O.2   123  GLY123     -0.2714
     31  N        -19.7700   24.8680  -38.0100 N.am  124  LEU124     -0.1963
     32  CA       -20.7080   25.8350  -37.4390 C.3   124  LEU124      0.1728
     33  C        -20.3420   26.1990  -35.9980 C.2   124  LEU124      0.2617
     34  O        -19.8550   25.3650  -35.2210 O.2   124  LEU124     -0.2715
     35  CB       -22.1480   25.3040  -37.4940 C.3   124  LEU124      0.0311
     36  CG       -22.6350   24.6500  -38.8040 C.3   124  LEU124      0.0022
     37  CD1      -23.9730   23.9180  -38.5990 C.3   124  LEU124      0.0001
     38  CD2      -22.7350   25.6430  -39.9480 C.3   124  LEU124      0.0001
     39  N        -20.5870   27.4580  -35.6610 N.am  125  SER125     -0.1936
     40  CA       -20.4060   27.9810  -34.3300 C.3   125  SER125      0.2055
     41  C        -21.8020   28.3670  -33.8700 C.2   125  SER125      0.2642
     42  O        -22.4000   29.2670  -34.4360 O.2   125  SER125     -0.2714
     43  CB       -19.5030   29.2060  -34.4080 C.3   125  SER125      0.2130
     44  OG       -19.2290   29.7290  -33.1220 O.3   125  SER125     -0.2179
     45  N        -22.3390   27.6930  -32.8600 N.am  126  LEU126     -0.1977
     46  CA       -23.7590   27.8570  -32.5410 C.3   126  LEU126      0.1596
     47  C        -24.0180   28.7300  -31.3210 C.2   126  LEU126      0.2287
     48  O        -23.2650   28.7110  -30.3570 O.2   126  LEU126     -0.2864
     49  CB       -24.4430   26.4900  -32.3900 C.3   126  LEU126      0.0297
     50  CG       -24.2000   25.4310  -33.4850 C.3   126  LEU126      0.0022
     51  CD1      -24.5710   24.0650  -32.9830 C.3   126  LEU126      0.0001
     52  CD2      -24.9870   25.7360  -34.7520 C.3   126  LEU126      0.0001
     53  N        -21.5380   31.6070  -36.9500 N.3   137  ASP137     -0.1239
     54  CA       -20.4270   31.5650  -37.8740 C.3   137  ASP137      0.1674
     55  C        -20.4180   30.2370  -38.6130 C.2   137  ASP137      0.2266
     56  O        -20.7130   29.1890  -38.0350 O.2   137  ASP137     -0.2867
     57  CB       -19.1180   31.7600  -37.1030 C.3   137  ASP137      0.1410
     58  CG       -18.0050   32.3740  -37.9490 C.2   137  ASP137      0.3668
     59  OD1      -18.2060   32.6230  -39.1620 O.co2 137  ASP137     -0.2456
     60  OD2      -16.9110   32.6040  -37.3820 O.co2 137  ASP137     -0.2456
     61  N        -17.8920   28.0860  -41.6340 N.3   139  ILE139     -0.1245
     62  CA       -16.6990   28.0260  -42.4670 C.3   139  ILE139      0.1561
     63  C        -17.0480   27.5060  -43.8600 C.2   139  ILE139      0.2260
     64  O        -17.5020   26.3670  -44.0030 O.2   139  ILE139     -0.2867
     65  CB       -15.6190   27.1190  -41.8270 C.3   139  ILE139      0.0252
     66  CG1      -15.2960   27.5920  -40.3970 C.3   139  ILE139      0.0019
     67  CG2      -14.3640   27.0770  -42.7070 C.3   139  ILE139      0.0019
     68  CD1      -14.4350   26.6100  -39.5890 C.3   139  ILE139      0.0001
     69  N        -25.7330   25.1590  -24.1960 N.3   169  PHE169     -0.1241
     70  CA       -24.8070   24.9110  -25.2980 C.3   169  PHE169      0.1605
     71  C        -24.2120   23.5050  -25.2460 C.2   169  PHE169      0.2264
     72  O        -24.0130   22.8960  -26.2960 O.2   169  PHE169     -0.2867
     73  CB       -23.6560   25.9330  -25.3640 C.3   169  PHE169      0.0534
     74  CG       -22.6570   25.6240  -26.4480 C.ar  169  PHE169     -0.0203
     75  CD1      -22.8880   26.0410  -27.7640 C.ar  169  PHE169     -0.0042
     76  CD2      -21.5270   24.8680  -26.1750 C.ar  169  PHE169     -0.0042
     77  CE1      -21.9880   25.7300  -28.7960 C.ar  169  PHE169     -0.0003
     78  CE2      -20.6170   24.5480  -27.1850 C.ar  169  PHE169     -0.0003
     79  CZ       -20.8450   24.9770  -28.5050 C.ar  169  PHE169     -0.0000
     80  N        -24.2420   20.9070  -28.1800 N.3   173  TYR173     -0.1241
     81  CA       -22.9560   20.4440  -28.7000 C.3   173  TYR173      0.1605
     82  C        -22.8840   18.9170  -28.7920 C.2   173  TYR173      0.2264
     83  O        -22.3720   18.3840  -29.7820 O.2   173  TYR173     -0.2867
     84  CB       -21.8050   21.0040  -27.8630 C.3   173  TYR173      0.0534
     85  CG       -20.4160   20.6330  -28.3330 C.ar  173  TYR173     -0.0201
     86  CD1      -19.8380   21.2380  -29.4480 C.ar  173  TYR173     -0.0009
     87  CD2      -19.6600   19.7000  -27.6280 C.ar  173  TYR173     -0.0009
     88  CE1      -18.5430   20.8970  -29.8610 C.ar  173  TYR173      0.0417
     89  CE2      -18.3770   19.3570  -28.0300 C.ar  173  TYR173      0.0417
     90  CZ       -17.8200   19.9560  -29.1440 C.ar  173  TYR173      0.1957
     91  OH       -16.5350   19.6030  -29.5090 O.3   173  TYR173     -0.2866
     92  N        -25.0130   17.5580  -31.8330 N.3   176  PHE176     -0.1227
     93  CA       -24.3210   17.6850  -33.0980 C.3   176  PHE176      0.1736
     94  C        -23.1730   16.6930  -33.2040 C.2   176  PHE176      0.2595
     95  O        -22.9340   16.1470  -34.2710 O.2   176  PHE176     -0.2718
     96  CB       -23.8330   19.1230  -33.3010 C.3   176  PHE176      0.0547
     97  CG       -24.9070   20.0580  -33.7820 C.ar  176  PHE176     -0.0202
     98  CD1      -25.8200   20.6080  -32.8910 C.ar  176  PHE176     -0.0042
     99  CD2      -25.0240   20.3600  -35.1350 C.ar  176  PHE176     -0.0042
    100  CE1      -26.8340   21.4600  -33.3410 C.ar  176  PHE176     -0.0003
    101  CE2      -26.0280   21.2070  -35.5970 C.ar  176  PHE176     -0.0003
    102  CZ       -26.9370   21.7610  -34.7020 C.ar  176  PHE176     -0.0000
    103  N        -22.4810   16.4390  -32.0970 N.am  177  LYS177     -0.1980
    104  CA       -21.3790   15.4810  -32.1020 C.3   177  LYS177      0.1596
    105  C        -21.8590   14.0310  -32.1210 C.2   177  LYS177      0.2287
    106  O        -21.1430   13.1490  -32.5830 O.2   177  LYS177     -0.2864
    107  CB       -20.4350   15.7070  -30.9130 C.3   177  LYS177      0.0298
    108  CG       -19.5630   16.9560  -31.0160 C.3   177  LYS177      0.0038
    109  CD       -18.8130   17.0430  -32.3510 C.3   177  LYS177      0.0206
    110  CE       -17.4670   17.7400  -32.1700 C.3   177  LYS177      0.1093
    111  NZ       -16.6920   17.9150  -33.4370 N.3   177  LYS177     -0.1314
@<TRIPOS>BOND
     1    64    63    2
     2    63    62    1
     3     1     2    1
     4    67    65    1
     5     2     3    1
     6     2     5    1
     7    62    65    1
     8    62    61    1
     9     3     4    2
    10    65    66    1
    11    22    21    2
    12    13    12    2
    13     5     6    1
    14    21    20    1
    15    21    27   am
    16    66    68    1
    17    20    23    1
    18    20    19    1
    19    26    24    1
    20     6     7    1
    21    12    19   am
    22    12    11    1
    23    38    36    1
    24    23    24    1
    25    10    11    1
    26    30    29    2
    27    27    28    1
    28    28    29    1
    29    24    25    1
    30    59    58   ar
    31    29    31   am
    32    11    14    1
    33     7     8    1
    34    36    37    1
    35    36    35    1
    36    55    56    2
    37    55    54    1
    38     8     9    1
    39    31    32    1
    40    58    60   ar
    41    58    57    1
    42    14    15    1
    43    54    57    1
    44    54    53    1
    45    15    16    1
    46    35    32    1
    47    32    33    1
    48    18    16   ar
    49    16    17   ar
    50    33    39   am
    51    33    34    2
    52    39    40    1
    53   101    99   ar
    54   101   102   ar
    55    99    97   ar
    56    52    50    1
    57   102   100   ar
    58    42    41    2
    59    43    40    1
    60    43    44    1
    61    40    41    1
    62    95    94    2
    63    41    45   am
    64    97    96    1
    65    97    98   ar
    66    50    51    1
    67    50    49    1
    68   111   110    1
    69   100    98   ar
    70    96    93    1
    71    94    93    1
    72    94   103   am
    73    93    92    1
    74    45    46    1
    75   106   105    2
    76    46    49    1
    77    46    47    1
    78   109   110    1
    79   109   108    1
    80   105   104    1
    81   104   103    1
    82   104   107    1
    83    47    48    2
    84   108   107    1
    85    88    86   ar
    86    88    90   ar
    87    83    82    2
    88    91    90    1
    89    86    85   ar
    90    90    89   ar
    91    77    79   ar
    92    77    75   ar
    93    82    81    1
    94    81    80    1
    95    81    84    1
    96    79    78   ar
    97    85    84    1
    98    85    87   ar
    99    89    87   ar
   100    75    74   ar
   101    78    76   ar
   102    74    76   ar
   103    74    73    1
   104    72    71    2
   105    73    70    1
   106    70    71    1
   107    70    69    1
