@<TRIPOS>MOLECULE
tmp/3r0iA00.pdb
 142 131 0 0 0
SMALL
GASTEIGER

@<TRIPOS>ATOM
      1  N         -3.7830   -9.2650   34.0860 N.3   125  LYS125     -0.1245
      2  CA        -3.1160  -10.4800   33.6480 C.3   125  LYS125      0.1561
      3  C         -4.0080  -11.7220   33.6020 C.2   125  LYS125      0.2260
      4  O         -3.7120  -12.6640   32.8660 O.2   125  LYS125     -0.2867
      5  CB        -1.9120  -10.7910   34.5460 C.3   125  LYS125      0.0271
      6  CG        -0.8510   -9.6870   34.5320 C.3   125  LYS125      0.0035
      7  CD         0.5410  -10.1710   34.9790 C.3   125  LYS125      0.0206
      8  CE         1.6050   -9.0620   34.4410 C.3   125  LYS125      0.1093
      9  NZ         2.6850   -9.5060   35.2390 N.3   125  LYS125     -0.1314
     10  N         -0.0660   -3.2720   29.7810 N.3   150  ASP150     -0.1225
     11  CA         1.0840   -3.6660   30.6160 C.3   150  ASP150      0.1805
     12  C          2.3780   -3.1750   29.9100 C.2   150  ASP150      0.2598
     13  O          2.5070   -3.2450   28.6790 O.2   150  ASP150     -0.2718
     14  CB         1.1180   -5.2100   30.7470 C.3   150  ASP150      0.1424
     15  CG         2.4880   -5.7470   31.2390 C.2   150  ASP150      0.3668
     16  OD1        2.7510   -5.4470   32.4760 O.co2 150  ASP150     -0.2456
     17  OD2        3.2490   -6.4790   30.4030 O.co2 150  ASP150     -0.2456
     18  N          3.3440   -2.7050   30.7040 N.am  151  SER151     -0.1938
     19  CA         4.4930   -2.0390   30.2170 C.3   151  SER151      0.2055
     20  C          5.3000   -2.8870   29.1920 C.2   151  SER151      0.2642
     21  O          5.6270   -2.3970   28.1210 O.2   151  SER151     -0.2714
     22  CB         5.3590   -1.7150   31.4640 C.3   151  SER151      0.2130
     23  OG         6.5790   -1.2130   31.0330 O.3   151  SER151     -0.2179
     24  N          5.6480   -4.1190   29.5510 N.am  152  GLU152     -0.1976
     25  CA         6.4380   -4.9860   28.6440 C.3   152  GLU152      0.1602
     26  C          5.6500   -5.3820   27.3550 C.2   152  GLU152      0.2287
     27  O          6.1820   -5.3090   26.2380 O.2   152  GLU152     -0.2864
     28  CB         6.8920   -6.2390   29.4050 C.3   152  GLU152      0.0415
     29  CG         7.9170   -5.9320   30.5470 C.3   152  GLU152      0.1163
     30  CD         7.2660   -5.6040   31.8850 C.2   152  GLU152      0.3649
     31  OE1        8.0060   -5.4210   32.8840 O.co2 152  GLU152     -0.2457
     32  OE2        6.0220   -5.5280   31.9380 O.co2 152  GLU152     -0.2457
     33  N         12.9220   -8.1370   31.9790 N.3   185  GLY185     -0.1210
     34  CA        12.5220   -7.9220   33.3930 C.3   185  GLY185      0.1956
     35  C         13.7200   -7.5040   34.2810 C.2   185  GLY185      0.2613
     36  O         14.8770   -7.7540   33.9370 O.2   185  GLY185     -0.2717
     37  N         13.4410   -6.8730   35.4170 N.am  186  SER186     -0.1938
     38  CA        14.4820   -6.2580   36.1990 C.3   186  SER186      0.2055
     39  C         15.3500   -7.3120   36.9050 C.2   186  SER186      0.2643
     40  O         16.4930   -7.0480   37.1930 O.2   186  SER186     -0.2714
     41  CB        13.8550   -5.3490   37.2520 C.3   186  SER186      0.2130
     42  OG        13.2030   -6.2200   38.2120 O.3   186  SER186     -0.2179
     43  N         14.8100   -8.4990   37.1690 N.am  187  GLY187     -0.1954
     44  CA        15.5360   -9.5520   37.8990 C.3   187  GLY187      0.1869
     45  C         15.2910   -9.4990   39.4310 C.2   187  GLY187      0.2309
     46  O         15.7660  -10.3640   40.1840 O.2   187  GLY187     -0.2863
     47  N          6.2520    0.2950   46.6390 N.3   209  MET209     -0.1245
     48  CA         6.3020   -0.7200   45.5340 C.3   209  MET209      0.1570
     49  C          5.0000   -1.5520   45.1120 C.2   209  MET209      0.2261
     50  O          4.7100   -1.6450   43.8970 O.2   209  MET209     -0.2867
     51  CB         7.6250   -1.5560   45.6360 C.3   209  MET209      0.0387
     52  CG         8.9370   -0.7390   45.2850 C.3   209  MET209      0.0595
     53  SD        10.5940   -1.4800   45.6460 S.3   209  MET209     -0.1393
     54  CE        11.7590   -0.4950   44.6410 C.3   209  MET209      0.0692
     55  N          3.2830   -7.8350   43.9000 N.3   213  ILE213     -0.1245
     56  CA         4.0190   -7.7360   42.5960 C.3   213  ILE213      0.1561
     57  C          5.5150   -7.6430   42.8380 C.2   213  ILE213      0.2260
     58  O          6.3360   -8.1420   42.0820 O.2   213  ILE213     -0.2867
     59  CB         3.5070   -6.5580   41.6510 C.3   213  ILE213      0.0252
     60  CG1        3.8660   -5.2010   42.2170 C.3   213  ILE213      0.0019
     61  CG2        1.9970   -6.6580   41.3580 C.3   213  ILE213      0.0019
     62  CD1        5.3130   -4.7190   41.8120 C.3   213  ILE213      0.0001
     63  N          8.2340  -10.0160   41.5160 N.3   217  SER217     -0.1217
     64  CA         9.3700   -9.5810   40.7710 C.3   217  SER217      0.1889
     65  C         10.6680  -10.2310   41.3650 C.2   217  SER217      0.2288
     66  O         11.6250  -10.5470   40.6230 O.2   217  SER217     -0.2866
     67  CB         9.3750   -8.0410   40.7410 C.3   217  SER217      0.2089
     68  OG        10.6810   -7.5630   40.8760 O.3   217  SER217     -0.2183
     69  N         10.6220  -13.6620   40.0050 N.3   220  MET220     -0.1245
     70  CA        10.3010  -13.5480   38.5600 C.3   220  MET220      0.1570
     71  C          9.0870  -14.3820   38.1650 C.2   220  MET220      0.2261
     72  O          8.9330  -14.7280   36.9860 O.2   220  MET220     -0.2867
     73  CB        11.5240  -13.8400   37.6800 C.3   220  MET220      0.0387
     74  CG        12.5980  -12.7150   37.7740 C.3   220  MET220      0.0595
     75  SD        13.8840  -12.9540   36.5070 S.3   220  MET220     -0.1393
     76  CE        12.9810  -12.1680   35.1380 C.3   220  MET220      0.0692
     77  N          6.4230  -12.9010   38.1000 N.3   222  ASN222     -0.1225
     78  CA         5.8560  -11.8530   37.2630 C.3   222  ASN222      0.1785
     79  C          6.2630  -11.9930   35.7890 C.2   222  ASN222      0.2597
     80  O          5.3990  -11.9930   34.9140 O.2   222  ASN222     -0.2718
     81  CB         6.1400  -10.4660   37.8340 C.3   222  ASN222      0.1169
     82  CG         5.5070   -9.3990   37.0090 C.2   222  ASN222      0.2627
     83  OD1        4.2770   -9.2810   36.9630 O.2   222  ASN222     -0.2716
     84  ND2        6.3440   -8.6470   36.2790 N.am  222  ASN222     -0.0877
     85  N          7.5360  -12.2390   35.5180 N.am  223  LYS223     -0.1980
     86  CA         7.9440  -12.4070   34.1330 C.3   223  LYS223      0.1596
     87  C          7.3940  -13.7440   33.6110 C.2   223  LYS223      0.2287
     88  O          7.0890  -13.8490   32.4420 O.2   223  LYS223     -0.2864
     89  CB         9.4660  -12.3760   34.0260 C.3   223  LYS223      0.0298
     90  CG         9.9810  -11.6930   32.6980 C.3   223  LYS223      0.0038
     91  CD         9.3050  -10.3590   32.4030 C.3   223  LYS223      0.0206
     92  CE         9.3900   -9.4750   33.6820 C.3   223  LYS223      0.1093
     93  NZ         8.9590   -8.1030   33.2640 N.3   223  LYS223     -0.1314
     94  N          3.9820  -12.9380   32.5260 N.3   226  GLU226     -0.1245
     95  CA         4.1190  -12.1250   31.2980 C.3   226  GLU226      0.1567
     96  C          4.5070  -12.9870   30.1080 C.2   226  GLU226      0.2260
     97  O          4.0790  -12.7320   29.0000 O.2   226  GLU226     -0.2867
     98  CB         5.0910  -10.9920   31.5110 C.3   226  GLU226      0.0388
     99  CG         4.3900   -9.9640   32.3610 C.3   226  GLU226      0.1160
    100  CD         5.2910   -8.7760   32.7590 C.2   226  GLU226      0.3649
    101  OE1        4.7050   -7.8920   33.3660 O.co2 226  GLU226     -0.2457
    102  OE2        6.5330   -8.7180   32.4900 O.co2 226  GLU226     -0.2457
    103  N         17.9370   -2.1460   34.8530 N.3   248  GLN248     -0.1231
    104  CA        17.5690   -0.7280   34.9320 C.3   248  GLN248      0.1698
    105  C         16.1260   -0.4290   34.5010 C.2   248  GLN248      0.2592
    106  O         15.6070    0.6350   34.8150 O.2   248  GLN248     -0.2718
    107  CB        18.5130    0.1010   34.1040 C.3   248  GLN248      0.0381
    108  CG        19.9600    0.0200   34.6160 C.3   248  GLN248      0.0905
    109  CD        20.6460   -1.2420   34.1500 C.2   248  GLN248      0.2608
    110  OE1       20.3640   -1.7660   33.0420 O.2   248  GLN248     -0.2717
    111  NE2       21.5870   -1.7280   34.9580 N.am  248  GLN248     -0.0878
    112  N         15.5020   -1.3900   33.8140 N.am  249  SER249     -0.1952
    113  CA        14.1310   -1.2830   33.3160 C.3   249  SER249      0.1924
    114  C         13.8860   -0.0490   32.4810 C.2   249  SER249      0.2314
    115  O         12.7990    0.4920   32.5560 O.2   249  SER249     -0.2863
    116  CB        13.1260   -1.2750   34.4910 C.3   249  SER249      0.2116
    117  OG        13.3330   -2.4470   35.2500 O.3   249  SER249     -0.2180
    118  N         11.7820   -1.4170   27.9350 N.3   252  HIS252     -0.1241
    119  CA        10.6500   -2.1180   28.4850 C.3   252  HIS252      0.1621
    120  C         10.3710   -3.4960   27.8790 C.2   252  HIS252      0.2264
    121  O          9.6440   -4.2870   28.4900 O.2   252  HIS252     -0.2867
    122  CB         9.4300   -1.2450   28.3810 C.3   252  HIS252      0.0745
    123  CG         9.5160    0.0160   29.2180 C.ar  252  HIS252      0.0817
    124  ND1       10.1160    0.0590   30.4580 N.ar  252  HIS252     -0.2268
    125  CD2        9.0270    1.2580   28.9980 C.ar  252  HIS252      0.1154
    126  CE1       10.0200    1.2810   30.9650 C.ar  252  HIS252      0.1986
    127  NE2        9.3160    2.0150   30.1300 N.ar  252  HIS252     -0.2212
    128  N          9.1470    5.0230   34.0350 N.2   269  PRO269     -0.2584
    129  CA         8.2290    3.9760   34.5060 C.3   269  PRO269      0.1895
    130  C          6.6960    4.3020   34.5600 C.2   269  PRO269      0.2359
    131  O          5.8530    3.3870   34.8010 O.2   269  PRO269     -0.2858
    132  CB         8.7750    3.5670   35.8920 C.2   269  PRO269      0.0071
    133  CG         9.8900    4.5470   36.2430 C.2   269  PRO269      0.0180
    134  CD        10.1460    5.4490   35.0390 C.2   269  PRO269      0.0937
    135  N          3.0120    4.6680   33.9580 N.3   271  MET271     -0.1245
    136  CA         1.9770    3.9650   33.2180 C.3   271  MET271      0.1570
    137  C          1.1620    4.8630   32.2870 C.2   271  MET271      0.2261
    138  O          0.5160    4.3640   31.3620 O.2   271  MET271     -0.2867
    139  CB         1.1020    3.1840   34.2080 C.3   271  MET271      0.0387
    140  CG         1.8090    1.9100   34.7820 C.3   271  MET271      0.0595
    141  SD         2.4870    0.8640   33.3630 S.3   271  MET271     -0.1393
    142  CE         2.4840   -0.9630   33.8300 C.3   271  MET271      0.0692
@<TRIPOS>BOND
     1    27    26    2
     2    26    25    1
     3   120   119    1
     4   120   121    2
     5   118   119    1
     6    21    20    2
     7   122   119    1
     8   122   123    1
     9    25    28    1
    10    25    24    1
    11    13    12    2
    12   125   123   ar
    13   125   127   ar
    14    97    96    2
    15    20    24   am
    16    20    19    1
    17   123   124   ar
    18    28    29    1
    19    10    11    1
    20    12    11    1
    21    12    18   am
    22    96    95    1
    23   127   126   ar
    24    19    18    1
    25    19    22    1
    26    17    15   ar
    27   124   126   ar
    28    29    30    1
    29    11    14    1
    30    14    15    1
    31    23    22    1
    32    15    16   ar
    33    95    98    1
    34    95    94    1
    35   138   137    2
    36    98    99    1
    37    30    32   ar
    38    30    31   ar
    39    33    34    1
    40   137   136    1
    41    99   100    1
    42    91    90    1
    43    91    92    1
    44    88    87    2
    45   114   115    2
    46   114   113    1
    47   102   100   ar
    48    90    89    1
    49   100   101   ar
    50     4     3    2
    51   110   109    2
    52   136   135    1
    53   136   139    1
    54    93    92    1
    55   113   112    1
    56   113   116    1
    57   141   142    1
    58   141   140    1
    59    34    35    1
    60     3     2    1
    61    87    86    1
    62     2     1    1
    63     2     5    1
    64   112   105   am
    65    36    35    2
    66    89    86    1
    67   128   129    1
    68   128   134    2
    69   107   108    1
    70   107   104    1
    71    86    85    1
    72   109   108    1
    73   109   111   am
    74   139   140    1
    75    35    37   am
    76     8     7    1
    77     8     9    1
    78   116   117    1
    79   105   106    2
    80   105   104    1
    81   129   130    1
    82   129   132    1
    83     6     5    1
    84     6     7    1
    85   130   131    2
    86   103   104    1
    87    80    79    2
    88   134   133    1
    89    76    75    1
    90    37    38    1
    91    85    79   am
    92    79    78    1
    93   132   133    2
    94    38    39    1
    95    38    41    1
    96    84    82   am
    97    75    74    1
    98    39    43   am
    99    39    40    2
   100    83    82    2
   101    72    71    2
   102    82    81    1
   103    43    44    1
   104    41    42    1
   105    78    81    1
   106    78    77    1
   107    73    74    1
   108    73    70    1
   109    44    45    1
   110    71    70    1
   111    70    69    1
   112    45    46    2
   113    66    65    2
   114    67    64    1
   115    67    68    1
   116    64    65    1
   117    64    63    1
   118    61    59    1
   119    59    60    1
   120    59    56    1
   121    62    60    1
   122    58    57    2
   123    56    57    1
   124    56    55    1
   125    50    49    2
   126    54    53    1
   127    49    48    1
   128    52    51    1
   129    52    53    1
   130    48    51    1
   131    48    47    1
