@<TRIPOS>MOLECULE
tmp/3r0kA00.pdb
 118 106 0 0 0
SMALL
GASTEIGER

@<TRIPOS>ATOM
      1  N         78.6450   54.1920   64.3540 N.3    20  PHE20      -0.1241
      2  CA        79.4440   53.8170   63.1900 C.3    20  PHE20       0.1605
      3  C         80.9380   54.0710   63.3810 C.2    20  PHE20       0.2264
      4  O         81.3400   55.0500   64.0130 O.2    20  PHE20      -0.2867
      5  CB        78.8660   54.4360   61.9120 C.3    20  PHE20       0.0534
      6  CG        79.7020   55.5060   61.2980 C.ar   20  PHE20      -0.0203
      7  CD1       80.4660   55.2360   60.1760 C.ar   20  PHE20      -0.0042
      8  CD2       79.6880   56.7960   61.8060 C.ar   20  PHE20      -0.0042
      9  CE1       81.2280   56.2250   59.5820 C.ar   20  PHE20      -0.0003
     10  CE2       80.4480   57.7910   61.2200 C.ar   20  PHE20      -0.0003
     11  CZ        81.2210   57.5050   60.1070 C.ar   20  PHE20      -0.0000
     12  N         82.9100   67.1370   58.8290 N.3    45  THR45      -0.1218
     13  CA        83.6400   65.9370   59.1970 C.3    45  THR45       0.1862
     14  C         85.0790   66.3890   59.3230 C.2    45  THR45       0.2287
     15  O         85.8360   66.3500   58.3570 O.2    45  THR45      -0.2866
     16  CB        83.5250   64.8690   58.0680 C.3    45  THR45       0.1770
     17  OG1       82.1610   64.7580   57.6410 O.3    45  THR45      -0.2211
     18  CG2       84.0010   63.5050   58.5410 C.3    45  THR45       0.0375
     19  N         88.3440   64.4950   58.2270 N.3    48  ILE48      -0.1245
     20  CA        88.5290   64.2580   56.7940 C.3    48  ILE48       0.1561
     21  C         88.7070   65.5460   55.9990 C.2    48  ILE48       0.2260
     22  O         89.6770   65.6800   55.2630 O.2    48  ILE48      -0.2867
     23  CB        87.3890   63.3910   56.1820 C.3    48  ILE48       0.0252
     24  CG1       87.3190   62.0380   56.9020 C.3    48  ILE48       0.0019
     25  CG2       87.6160   63.1970   54.6890 C.3    48  ILE48       0.0019
     26  CD1       86.1960   61.1550   56.4460 C.3    48  ILE48       0.0001
     27  N         80.1800   47.2970   51.0070 N.3   151  LYS151     -0.1245
     28  CA        81.4250   47.9690   51.3360 C.3   151  LYS151      0.1561
     29  C         81.9180   47.5040   52.7010 C.2   151  LYS151      0.2260
     30  O         81.2640   47.7130   53.7280 O.2   151  LYS151     -0.2867
     31  CB        81.2810   49.4920   51.3150 C.3   151  LYS151      0.0271
     32  CG        82.6160   50.1890   51.5790 C.3   151  LYS151      0.0035
     33  CD        82.5090   51.7060   51.5190 C.3   151  LYS151      0.0206
     34  CE        81.9500   52.2490   52.8260 C.3   151  LYS151      0.1093
     35  NZ        81.9470   53.7480   52.9060 N.3   151  LYS151     -0.1314
     36  N         84.6400   47.8510   55.6090 N.3   153  LYS153     -0.1245
     37  CA        85.7030   48.6920   56.1560 C.3   153  LYS153      0.1561
     38  C         86.8430   47.8110   56.6510 C.2   153  LYS153      0.2260
     39  O         86.6180   46.8530   57.3990 O.2   153  LYS153     -0.2867
     40  CB        85.1890   49.5730   57.3060 C.3   153  LYS153      0.0271
     41  CG        84.1930   50.6680   56.9030 C.3   153  LYS153      0.0035
     42  CD        84.8770   51.7750   56.1170 C.3   153  LYS153      0.0206
     43  CE        83.9060   52.8940   55.7590 C.3   153  LYS153      0.1093
     44  NZ        84.5860   53.9770   54.9790 N.3   153  LYS153     -0.1314
     45  N         87.4030   49.0840   51.6250 N.3   181  ASP181     -0.1239
     46  CA        87.8730   50.4450   51.8460 C.3   181  ASP181      0.1674
     47  C         88.7360   50.4620   53.0990 C.2   181  ASP181      0.2266
     48  O         88.2370   50.3470   54.2240 O.2   181  ASP181     -0.2867
     49  CB        86.6680   51.3730   51.9790 C.3   181  ASP181      0.1410
     50  CG        87.0450   52.8180   52.2990 C.2   181  ASP181      0.3668
     51  OD1       88.2360   53.2030   52.2260 O.co2 181  ASP181     -0.2456
     52  OD2       86.1130   53.5730   52.6240 O.co2 181  ASP181     -0.2456
     53  N         90.5580   52.9810   54.1740 N.3   183  ASN183     -0.1240
     54  CA        90.7240   54.3050   54.7700 C.3   183  ASN183      0.1653
     55  C         92.1960   54.5880   55.1170 C.2   183  ASN183      0.2266
     56  O         92.5030   54.9920   56.2430 O.2   183  ASN183     -0.2867
     57  CB        89.8400   54.4720   56.0210 C.3   183  ASN183      0.1155
     58  CG        88.3650   54.7130   55.6860 C.2   183  ASN183      0.2627
     59  OD1       87.4930   53.9110   56.0340 O.2   183  ASN183     -0.2716
     60  ND2       88.0830   55.8320   55.0240 N.am  183  ASN183     -0.0877
     61  N         89.6610   50.3840   47.7910 N.3   209  GLU209     -0.1245
     62  CA        89.6050   51.8360   47.9390 C.3   209  GLU209      0.1567
     63  C         90.6560   52.3950   48.9150 C.2   209  GLU209      0.2260
     64  O         90.8310   51.8800   50.0230 O.2   209  GLU209     -0.2867
     65  CB        88.1950   52.2630   48.3390 C.3   209  GLU209      0.0388
     66  CG        88.0420   53.7500   48.5360 C.3   209  GLU209      0.1160
     67  CD        86.5870   54.1590   48.6060 C.2   209  GLU209      0.3649
     68  OE1       85.7130   53.2870   48.4050 O.co2 209  GLU209     -0.2457
     69  OE2       86.3220   55.3460   48.8650 O.co2 209  GLU209     -0.2457
     70  N         90.2050   57.9540   47.0840 N.3   233  ASP233     -0.1225
     71  CA        89.2120   58.7330   47.8070 C.3   233  ASP233      0.1805
     72  C         89.8690   59.9850   48.3750 C.2   233  ASP233      0.2597
     73  O         89.8340   61.0330   47.7390 O.2   233  ASP233     -0.2718
     74  CB        88.5960   57.8880   48.9250 C.3   233  ASP233      0.1424
     75  CG        87.5590   58.6480   49.7280 C.2   233  ASP233      0.3668
     76  OD1       87.3760   59.8630   49.4890 O.co2 233  ASP233     -0.2456
     77  OD2       86.9330   58.0320   50.6110 O.co2 233  ASP233     -0.2456
     78  N         90.5660   59.8610   49.5030 N.am  234  GLU234     -0.1979
     79  CA        91.2140   61.0350   50.1100 C.3   234  GLU234      0.1602
     80  C         92.3370   61.6190   49.2410 C.2   234  GLU234      0.2287
     81  O         92.6810   62.7970   49.3620 O.2   234  GLU234     -0.2864
     82  CB        91.7340   60.7120   51.5190 C.3   234  GLU234      0.0415
     83  CG        90.6500   60.5990   52.6020 C.3   234  GLU234      0.1163
     84  CD        89.8600   59.2870   52.5730 C.2   234  GLU234      0.3649
     85  OE1       90.2540   58.3220   51.8640 O.co2 234  GLU234     -0.2457
     86  OE2       88.8230   59.2280   53.2760 O.co2 234  GLU234     -0.2457
     87  N         83.2900   62.9920   46.1090 N.3   256  LYS256     -0.1245
     88  CA        82.3840   63.3990   47.1860 C.3   256  LYS256      0.1561
     89  C         82.2180   64.9070   47.1770 C.2   256  LYS256      0.2260
     90  O         83.1970   65.6310   47.1610 O.2   256  LYS256     -0.2867
     91  CB        82.9320   62.9800   48.5490 C.3   256  LYS256      0.0271
     92  CG        83.1510   61.4610   48.6900 C.3   256  LYS256      0.0035
     93  CD        83.6720   61.1250   50.0840 C.3   256  LYS256      0.0206
     94  CE        83.7760   59.6080   50.2790 C.3   256  LYS256      0.1093
     95  NZ        84.2920   59.2850   51.6470 N.3   256  LYS256     -0.1314
     96  N         80.1150   59.6030   49.9230 N.3   283  CYS283     -0.1235
     97  CA        79.6900   60.6820   50.7850 C.3   283  CYS283      0.1677
     98  C         80.4030   60.5120   52.1140 C.2   283  CYS283      0.2270
     99  O         81.1130   59.5290   52.3290 O.2   283  CYS283     -0.2867
    100  CB        78.1710   60.5860   50.9770 C.3   283  CYS283      0.0956
    101  SG        77.6660   58.9950   51.7040 S.3   283  CYS283     -0.0801
    102  N         76.5230   61.5180   56.3460 N.3   284  GLU284     -0.1245
    103  CA        75.9490   62.8400   56.2580 C.3   284  GLU284      0.1567
    104  C         74.4460   62.7960   56.0230 C.2   284  GLU284      0.2260
    105  O         73.8470   61.7210   55.8850 O.2   284  GLU284     -0.2867
    106  CB        76.6840   63.6920   55.2020 C.3   284  GLU284      0.0388
    107  CG        76.4920   63.2830   53.7360 C.3   284  GLU284      0.1160
    108  CD        77.3450   64.1520   52.7880 C.2   284  GLU284      0.3649
    109  OE1       76.8960   65.2640   52.4250 O.co2 284  GLU284     -0.2457
    110  OE2       78.4580   63.7200   52.4140 O.co2 284  GLU284     -0.2457
    111  N         78.4900   54.7570   46.7590 N.3   305  ASP305     -0.1239
    112  CA        78.4280   54.3490   48.1530 C.3   305  ASP305      0.1674
    113  C         77.7120   55.4810   48.8780 C.2   305  ASP305      0.2266
    114  O         78.3200   56.4380   49.3600 O.2   305  ASP305     -0.2867
    115  CB        79.8690   54.1940   48.6450 C.3   305  ASP305      0.1410
    116  CG        79.9780   53.9780   50.1390 C.2   305  ASP305      0.3668
    117  OD1       79.0980   53.3210   50.7420 O.co2 305  ASP305     -0.2456
    118  OD2       80.9710   54.4730   50.7100 O.co2 305  ASP305     -0.2456
@<TRIPOS>BOND
     1    87    88    1
     2   111   112    1
     3    70    71    1
     4    90    89    2
     5    89    88    1
     6    88    91    1
     7    73    72    2
     8    61    62    1
     9    71    72    1
    10    71    74    1
    11    62    65    1
    12    62    63    1
    13   112   115    1
    14   112   113    1
    15    65    66    1
    16    72    78   am
    17    68    67   ar
    18    66    67    1
    19    91    92    1
    20    67    69   ar
    21   115   116    1
    22    92    93    1
    23   113   114    2
    24    63    64    2
    25    74    75    1
    26    80    81    2
    27    80    79    1
    28    76    75   ar
    29    78    79    1
    30    75    77   ar
    31    96    97    1
    32    93    94    1
    33    79    82    1
    34   116   118   ar
    35   116   117   ar
    36    94    95    1
    37    97   100    1
    38    97    98    1
    39   100   101    1
    40    27    28    1
    41    31    28    1
    42    31    32    1
    43    28    29    1
    44    82    83    1
    45    33    32    1
    46    33    34    1
    47    45    46    1
    48    46    49    1
    49    46    47    1
    50    85    84   ar
    51    49    50    1
    52    98    99    2
    53    51    50   ar
    54    50    52   ar
    55   110   108   ar
    56   109   108   ar
    57    84    83    1
    58    84    86   ar
    59    29    30    2
    60   108   107    1
    61    34    35    1
    62    47    48    2
    63   107   106    1
    64    53    54    1
    65    25    23    1
    66    54    55    1
    67    54    57    1
    68    44    43    1
    69    60    58   am
    70    55    56    2
    71   106   103    1
    72    22    21    2
    73    36    37    1
    74    58    57    1
    75    58    59    2
    76    43    42    1
    77   105   104    2
    78    21    20    1
    79   104   103    1
    80    42    41    1
    81    37    38    1
    82    37    40    1
    83    23    20    1
    84    23    24    1
    85   103   102    1
    86    26    24    1
    87    38    39    2
    88    20    19    1
    89    41    40    1
    90    17    16    1
    91    16    18    1
    92    16    13    1
    93    15    14    2
    94    12    13    1
    95    13    14    1
    96     9    11   ar
    97     9     7   ar
    98    11    10   ar
    99     7     6   ar
   100    10     8   ar
   101     6     8   ar
   102     6     5    1
   103     5     2    1
   104     2     3    1
   105     2     1    1
   106     3     4    2
