@<TRIPOS>MOLECULE
tmp/3r0qB00.pdb
 211 201 0 0 0
SMALL
GASTEIGER

@<TRIPOS>ATOM
      1  N         -2.2540  -21.5230  -53.0420 N.3     5  TYR5       -0.1227
      2  CA        -3.2890  -21.0580  -52.1360 C.3     5  TYR5        0.1736
      3  C         -2.7290  -20.8170  -50.7270 C.2     5  TYR5        0.2595
      4  O         -2.6680  -19.6770  -50.2660 O.2     5  TYR5       -0.2718
      5  CB        -4.4840  -22.0170  -52.1050 C.3     5  TYR5        0.0548
      6  CG        -5.3930  -21.7130  -50.9450 C.ar    5  TYR5       -0.0200
      7  CD1       -6.1470  -20.5560  -50.9280 C.ar    5  TYR5       -0.0009
      8  CD2       -5.4590  -22.5580  -49.8360 C.ar    5  TYR5       -0.0009
      9  CE1       -6.9610  -20.2540  -49.8580 C.ar    5  TYR5        0.0417
     10  CE2       -6.2780  -22.2620  -48.7600 C.ar    5  TYR5        0.0417
     11  CZ        -7.0240  -21.1080  -48.7790 C.ar    5  TYR5        0.1957
     12  OH        -7.8390  -20.7870  -47.7180 O.3     5  TYR5       -0.2866
     13  N         -2.3120  -21.8870  -50.0590 N.am    6  PHE6       -0.1976
     14  CA        -1.7460  -21.8000  -48.7080 C.3     6  PHE6        0.1639
     15  C         -0.5500  -20.8590  -48.5420 C.2     6  PHE6        0.2290
     16  O         -0.2740  -20.4140  -47.4300 O.2     6  PHE6       -0.2864
     17  CB        -1.3380  -23.1890  -48.2050 C.3     6  PHE6        0.0560
     18  CG        -2.4930  -24.0300  -47.7510 C.ar    6  PHE6       -0.0200
     19  CD1       -2.8540  -25.1650  -48.4480 C.ar    6  PHE6       -0.0042
     20  CD2       -3.2260  -23.6780  -46.6370 C.ar    6  PHE6       -0.0042
     21  CE1       -3.9270  -25.9360  -48.0370 C.ar    6  PHE6       -0.0003
     22  CE2       -4.2980  -24.4530  -46.2250 C.ar    6  PHE6       -0.0003
     23  CZ        -4.6510  -25.5810  -46.9280 C.ar    6  PHE6       -0.0000
     24  N         -1.1790  -17.1770  -47.2470 N.3     9  TYR9       -0.1241
     25  CA        -1.5650  -17.0840  -45.8390 C.3     9  TYR9        0.1605
     26  C         -0.4060  -17.3120  -44.8520 C.2     9  TYR9        0.2264
     27  O         -0.6240  -17.4000  -43.6500 O.2     9  TYR9       -0.2867
     28  CB        -2.7440  -18.0250  -45.5220 C.3     9  TYR9        0.0534
     29  CG        -4.0500  -17.5640  -46.1350 C.ar    9  TYR9       -0.0201
     30  CD1       -4.7300  -16.4710  -45.6170 C.ar    9  TYR9       -0.0009
     31  CD2       -4.5930  -18.2070  -47.2410 C.ar    9  TYR9       -0.0009
     32  CE1       -5.9080  -16.0320  -46.1790 C.ar    9  TYR9        0.0417
     33  CE2       -5.7790  -17.7700  -47.8140 C.ar    9  TYR9        0.0417
     34  CZ        -6.4310  -16.6850  -47.2790 C.ar    9  TYR9        0.1957
     35  OH        -7.6080  -16.2470  -47.8500 O.3     9  TYR9       -0.2866
     36  N         -1.9170  -11.7180  -43.0590 N.3    15  GLN15      -0.1245
     37  CA        -2.6920  -11.8930  -41.8360 C.3    15  GLN15       0.1566
     38  C         -3.0580  -10.5440  -41.2480 C.2    15  GLN15       0.2260
     39  O         -4.2080  -10.3200  -40.8910 O.2    15  GLN15      -0.2867
     40  CB        -1.9300  -12.7250  -40.8080 C.3    15  GLN15       0.0367
     41  CG        -1.7230  -14.1680  -41.2230 C.3    15  GLN15       0.0905
     42  CD        -2.9650  -15.0100  -41.0560 C.2    15  GLN15       0.2608
     43  OE1       -3.8550  -14.6660  -40.2870 O.2    15  GLN15      -0.2717
     44  NE2       -3.0290  -16.1220  -41.7700 N.am   15  GLN15      -0.0878
     45  N         -6.4060   -8.8680  -42.8150 N.3    18  MET18      -0.1230
     46  CA        -7.7470   -9.2410  -42.3850 C.3    18  MET18       0.1702
     47  C         -7.9960   -8.8090  -40.9470 C.2    18  MET18       0.2592
     48  O         -9.1400   -8.6370  -40.5310 O.2    18  MET18      -0.2718
     49  CB        -7.9660  -10.7480  -42.5310 C.3    18  MET18       0.0401
     50  CG        -7.9810  -11.2410  -43.9650 C.3    18  MET18       0.0596
     51  SD        -8.3270  -13.0040  -44.0810 S.3    18  MET18      -0.1393
     52  CE        -6.7530  -13.6900  -43.5820 C.3    18  MET18       0.0692
     53  N         -6.9180   -8.6340  -40.1930 N.am   19  LEU19      -0.1980
     54  CA        -7.0180   -8.1950  -38.8090 C.3    19  LEU19       0.1596
     55  C         -7.3110   -6.7030  -38.7460 C.2    19  LEU19       0.2287
     56  O         -7.7870   -6.1960  -37.7330 O.2    19  LEU19      -0.2864
     57  CB        -5.7280   -8.5100  -38.0530 C.3    19  LEU19       0.0297
     58  CG        -5.3420   -9.9860  -37.9750 C.3    19  LEU19       0.0022
     59  CD1       -3.9580  -10.1480  -37.3710 C.3    19  LEU19       0.0001
     60  CD2       -6.3740  -10.7630  -37.1780 C.3    19  LEU19       0.0001
     61  N        -15.2860   -6.6280  -39.9460 N.3    24  ARG24      -0.1245
     62  CA       -15.1510   -8.0730  -39.7990 C.3    24  ARG24       0.1563
     63  C        -14.7430   -8.4800  -38.3850 C.2    24  ARG24       0.2260
     64  O        -15.3220   -9.3930  -37.8010 O.2    24  ARG24      -0.2867
     65  CB       -14.1330   -8.6070  -40.8090 C.3    24  ARG24       0.0307
     66  CG       -13.7200  -10.0480  -40.5780 C.3    24  ARG24       0.0489
     67  CD       -12.4720  -10.3950  -41.3680 C.3    24  ARG24       0.2205
     68  NE       -11.2750  -10.3350  -40.5380 N.pl3  24  ARG24      -0.0865
     69  CZ       -10.6030  -11.4010  -40.1180 C.cat  24  ARG24       0.5346
     70  NH1      -11.0090  -12.6140  -40.4540 N.pl3  24  ARG24       0.1354
     71  NH2       -9.5240  -11.2520  -39.3650 N.pl3  24  ARG24       0.1354
     72  N        -10.9440  -23.8890  -33.5680 N.3    46  ASP46      -0.1225
     73  CA       -10.8200  -22.7820  -34.5080 C.3    46  ASP46       0.1805
     74  C        -10.1210  -23.3060  -35.7280 C.2    46  ASP46       0.2598
     75  O         -8.9310  -23.6000  -35.6780 O.2    46  ASP46      -0.2718
     76  CB       -10.0240  -21.6090  -33.9160 C.3    46  ASP46       0.1424
     77  CG        -9.8050  -20.4970  -34.9220 C.2    46  ASP46       0.3668
     78  OD1       -8.8340  -19.7160  -34.7710 O.co2  46  ASP46      -0.2456
     79  OD2      -10.6030  -20.4170  -35.8810 O.co2  46  ASP46      -0.2456
     80  N        -10.8610  -23.4440  -36.8180 N.am   47  VAL47      -0.1966
     81  CA       -10.2920  -23.9700  -38.0630 C.3    47  VAL47       0.1727
     82  C         -9.6630  -22.8600  -38.8800 C.2    47  VAL47       0.2617
     83  O        -10.3200  -21.8710  -39.2230 O.2    47  VAL47      -0.2715
     84  CB       -11.3390  -24.6910  -38.9300 C.3    47  VAL47       0.0290
     85  CG1      -10.7980  -24.8870  -40.3370 C.3    47  VAL47       0.0023
     86  CG2      -11.7480  -26.0200  -38.3020 C.3    47  VAL47       0.0023
     87  N         -8.3830  -23.0310  -39.1890 N.am   48  GLY48      -0.1940
     88  CA        -7.6290  -22.0030  -39.8810 C.3    48  GLY48       0.2014
     89  C         -7.4450  -20.8010  -38.9810 C.2    48  GLY48       0.2640
     90  O         -7.9130  -19.6980  -39.2820 O.2    48  GLY48      -0.2714
     91  N         -6.7580  -21.0220  -37.8640 N.am   49  THR49      -0.1936
     92  CA        -6.5540  -19.9800  -36.8630 C.3    49  THR49       0.2028
     93  C         -5.6350  -18.8500  -37.3630 C.2    49  THR49       0.2643
     94  O         -5.7220  -17.7120  -36.8830 O.2    49  THR49      -0.2714
     95  CB        -5.9670  -20.5700  -35.5680 C.3    49  THR49       0.1808
     96  OG1       -6.3130  -19.7420  -34.4490 O.3    49  THR49      -0.2208
     97  CG2       -4.4490  -20.6730  -35.6830 C.3    49  THR49       0.0379
     98  N         -4.7570  -19.1570  -38.3180 N.am   50  GLY50      -0.1939
     99  CA        -3.8170  -18.1690  -38.8260 C.3    50  GLY50       0.2014
    100  C         -2.9160  -17.6220  -37.7410 C.2    50  GLY50       0.2639
    101  O         -1.9400  -18.2540  -37.3720 O.2    50  GLY50      -0.2714
    102  N         -3.2470  -16.4490  -37.2180 N.am   51  SER51      -0.1949
    103  CA        -2.4460  -15.8110  -36.1740 C.3    51  SER51       0.1924
    104  C         -3.0840  -16.0700  -34.8170 C.2    51  SER51       0.2314
    105  O         -2.5700  -15.6350  -33.7910 O.2    51  SER51      -0.2863
    106  CB        -2.3140  -14.3010  -36.4100 C.3    51  SER51       0.2116
    107  OG        -3.4730  -13.6280  -35.9490 O.3    51  SER51      -0.2180
    108  N         -6.1680  -15.2890  -33.6840 N.3    53  ILE53      -0.1231
    109  CA        -6.9990  -14.2510  -33.1000 C.3    53  ILE53       0.1692
    110  C         -8.2820  -14.8390  -32.4790 C.2    53  ILE53       0.2591
    111  O         -8.6490  -14.4870  -31.3460 O.2    53  ILE53      -0.2718
    112  CB        -7.3140  -13.1470  -34.1350 C.3    53  ILE53       0.0266
    113  CG1       -7.9860  -11.9480  -33.4590 C.3    53  ILE53       0.0019
    114  CG2       -8.1240  -13.7130  -35.2940 C.3    53  ILE53       0.0020
    115  CD1       -7.2530  -11.4760  -32.2270 C.3    53  ILE53       0.0001
    116  N         -8.9440  -15.7480  -33.2000 N.am   54  LEU54      -0.1980
    117  CA       -10.2380  -16.2760  -32.7690 C.3    54  LEU54       0.1596
    118  C        -10.1190  -17.3830  -31.7270 C.2    54  LEU54       0.2287
    119  O        -11.1200  -17.8540  -31.1790 O.2    54  LEU54      -0.2864
    120  CB       -11.0450  -16.7990  -33.9610 C.3    54  LEU54       0.0297
    121  CG       -11.3680  -15.8660  -35.1250 C.3    54  LEU54       0.0022
    122  CD1      -12.3370  -16.5500  -36.0710 C.3    54  LEU54       0.0001
    123  CD2      -11.9530  -14.5710  -34.6220 C.3    54  LEU54       0.0001
    124  N         -6.1250  -24.7910  -35.1160 N.3    69  VAL69      -0.1231
    125  CA        -5.4920  -25.4860  -36.2250 C.3    69  VAL69       0.1692
    126  C         -5.1820  -24.5240  -37.3530 C.2    69  VAL69       0.2592
    127  O         -5.9760  -23.6240  -37.6470 O.2    69  VAL69      -0.2718
    128  CB        -6.3860  -26.5940  -36.7940 C.3    69  VAL69       0.0266
    129  CG1       -5.7140  -27.2290  -38.0100 C.3    69  VAL69       0.0020
    130  CG2       -6.6950  -27.6540  -35.7280 C.3    69  VAL69       0.0020
    131  N         -4.0270  -24.7210  -37.9840 N.am   70  GLU70      -0.1966
    132  CA        -3.5960  -23.8740  -39.0850 C.3    70  GLU70       0.1733
    133  C         -2.5840  -24.6330  -39.9300 C.2    70  GLU70       0.2616
    134  O         -1.7250  -25.3370  -39.3980 O.2    70  GLU70      -0.2715
    135  CB        -2.9920  -22.5770  -38.5610 C.3    70  GLU70       0.0429
    136  CG        -1.9100  -22.0130  -39.4530 C.3    70  GLU70       0.1163
    137  CD        -2.4580  -21.3100  -40.6630 C.2    70  GLU70       0.3649
    138  OE1       -3.5520  -20.7200  -40.5660 O.co2  70  GLU70      -0.2457
    139  OE2       -1.7850  -21.3380  -41.7110 O.co2  70  GLU70      -0.2457
    140  N         -2.6860  -24.4860  -41.2470 N.am   71  ALA71      -0.1963
    141  CA        -1.9570  -25.3600  -42.1570 C.3    71  ALA71       0.1728
    142  C         -0.5420  -24.8880  -42.4770 C.2    71  ALA71       0.2616
    143  O          0.3140  -25.6920  -42.8350 O.2    71  ALA71      -0.2715
    144  CB        -2.7550  -25.5800  -43.4400 C.3    71  ALA71       0.0334
    145  N         -0.2930  -23.5970  -42.3170 N.am   72  THR72      -0.1951
    146  CA         0.9680  -23.0020  -42.7440 C.3    72  THR72       0.1897
    147  C          1.9240  -22.7210  -41.5860 C.2    72  THR72       0.2313
    148  O          1.5800  -22.9200  -40.4220 O.2    72  THR72      -0.2863
    149  CB         0.7200  -21.6950  -43.5140 C.3    72  THR72       0.1794
    150  OG1       -0.4130  -21.8620  -44.3710 O.3    72  THR72      -0.2208
    151  CG2        1.9330  -21.3460  -44.3630 C.3    72  THR72       0.0378
    152  N         -0.8490  -27.9130  -39.3540 N.3    96  GLY96      -0.1210
    153  CA        -1.3050  -28.9760  -40.2370 C.3    96  GLY96       0.1956
    154  C         -2.6630  -28.7080  -40.8450 C.2    96  GLY96       0.2613
    155  O         -3.4020  -27.8620  -40.3490 O.2    96  GLY96      -0.2717
    156  N         -2.9820  -29.4030  -41.9350 N.am   97  SER97      -0.1938
    157  CA        -4.3080  -29.3130  -42.5360 C.3    97  SER97       0.2055
    158  C         -5.2480  -30.0510  -41.6070 C.2    97  SER97       0.2643
    159  O         -4.9890  -31.1990  -41.2500 O.2    97  SER97      -0.2714
    160  CB        -4.3300  -29.9610  -43.9170 C.3    97  SER97       0.2130
    161  OG        -3.5060  -29.2600  -44.8340 O.3    97  SER97      -0.2179
    162  N         -6.3250  -29.3910  -41.1940 N.am   98  VAL98      -0.1963
    163  CA        -7.2400  -29.9770  -40.2240 C.3    98  VAL98       0.1727
    164  C         -7.8140  -31.2830  -40.7560 C.2    98  VAL98       0.2616
    165  O         -8.3380  -32.0970  -39.9980 O.2    98  VAL98      -0.2715
    166  CB        -8.3950  -29.0220  -39.8860 C.3    98  VAL98       0.0290
    167  CG1       -9.2920  -28.8220  -41.1000 C.3    98  VAL98       0.0023
    168  CG2       -9.2030  -29.5530  -38.7010 C.3    98  VAL98       0.0023
    169  N         -7.7070  -31.4920  -42.0640 N.am   99  GLU99      -0.1977
    170  CA        -8.2150  -32.7300  -42.6550 C.3    99  GLU99       0.1602
    171  C         -7.3870  -33.9630  -42.2760 C.2    99  GLU99       0.2287
    172  O         -7.9040  -35.0790  -42.2930 O.2    99  GLU99      -0.2864
    173  CB        -8.3470  -32.6200  -44.1830 C.3    99  GLU99       0.0415
    174  CG        -9.3870  -31.6240  -44.6630 C.3    99  GLU99       0.1163
    175  CD        -8.8160  -30.2320  -44.8280 C.2    99  GLU99       0.3649
    176  OE1       -7.6140  -30.0480  -44.5590 O.co2  99  GLU99      -0.2457
    177  OE2       -9.5620  -29.3170  -45.2300 O.co2  99  GLU99      -0.2457
    178  N        -13.2810  -18.3350  -39.6210 N.3   113  GLU113     -0.1245
    179  CA       -13.5500  -17.3190  -40.6290 C.3   113  GLU113      0.1567
    180  C        -13.0920  -17.8450  -41.9890 C.2   113  GLU113      0.2260
    181  O        -11.9310  -17.6760  -42.3670 O.2   113  GLU113     -0.2867
    182  CB       -12.8510  -16.0050  -40.2760 C.3   113  GLU113      0.0388
    183  CG       -13.3840  -14.8140  -41.0550 C.3   113  GLU113      0.1160
    184  CD       -12.7780  -14.7250  -42.4270 C.2   113  GLU113      0.3649
    185  OE1      -11.5720  -15.0050  -42.5390 O.co2 113  GLU113     -0.2457
    186  OE2      -13.4980  -14.3820  -43.3790 O.co2 113  GLU113     -0.2457
    187  N        -12.8490  -23.0820  -48.8600 N.3   124  MET124     -0.1245
    188  CA       -12.3340  -23.3720  -47.5280 C.3   124  MET124      0.1570
    189  C        -13.4010  -24.0030  -46.6180 C.2   124  MET124      0.2261
    190  O        -13.0770  -24.7920  -45.7180 O.2   124  MET124     -0.2867
    191  CB       -11.7050  -22.1200  -46.8890 C.3   124  MET124      0.0387
    192  CG       -11.2640  -22.3230  -45.4400 C.3   124  MET124      0.0595
    193  SD       -10.5820  -20.8550  -44.6390 S.3   124  MET124     -0.1393
    194  CE       -10.4110  -21.4740  -42.9560 C.3   124  MET124      0.0692
    195  N        -13.2100  -27.4820  -45.7010 N.3   127  SER127     -0.1217
    196  CA       -12.3430  -27.8500  -44.5880 C.3   127  SER127      0.1889
    197  C        -13.0960  -27.7780  -43.2640 C.2   127  SER127      0.2288
    198  O        -12.7870  -28.5030  -42.3210 O.2   127  SER127     -0.2866
    199  CB       -11.1180  -26.9360  -44.5420 C.3   127  SER127      0.2089
    200  OG       -10.3280  -27.0520  -45.7180 O.3   127  SER127     -0.2183
    201  N        -10.7150  -24.4820  -56.0720 N.3   325  ARG325     -0.1245
    202  CA       -10.8990  -23.3140  -55.2060 C.3   325  ARG325      0.1563
    203  C        -11.4330  -22.0940  -55.9600 C.2   325  ARG325      0.2260
    204  O        -12.0260  -21.1940  -55.3600 O.2   325  ARG325     -0.2867
    205  CB        -9.5900  -22.9660  -54.4980 C.3   325  ARG325      0.0307
    206  CG        -9.1140  -24.0500  -53.5500 C.3   325  ARG325      0.0489
    207  CD        -7.9090  -23.5920  -52.7800 C.3   325  ARG325      0.2205
    208  NE        -7.3690  -24.6400  -51.9270 N.pl3 325  ARG325     -0.0865
    209  CZ        -7.7980  -24.8860  -50.6950 C.cat 325  ARG325      0.5346
    210  NH1       -8.7830  -24.1600  -50.1820 N.pl3 325  ARG325      0.1354
    211  NH2       -7.2470  -25.8530  -49.9790 N.pl3 325  ARG325      0.1354
@<TRIPOS>BOND
     1   201   202    1
     2   203   204    2
     3   203   202    1
     4   202   205    1
     5   205   206    1
     6   206   207    1
     7     1     2    1
     8   207   208    1
     9     2     5    1
    10     2     3    1
    11     5     6    1
    12   208   209    2
    13     6     7   ar
    14     6     8   ar
    15     7     9   ar
    16     3     4    2
    17     3    13   am
    18   209   210    1
    19   209   211    1
    20    13    14    1
    21     9    11   ar
    22     8    10   ar
    23   187   188    1
    24    11    10   ar
    25    11    12    1
    26    14    15    1
    27    14    17    1
    28    15    16    2
    29    19    21   ar
    30    19    18   ar
    31    17    18    1
    32    21    23   ar
    33    35    34    1
    34    33    34   ar
    35    33    31   ar
    36    18    20   ar
    37   188   191    1
    38   188   189    1
    39    34    32   ar
    40    24    25    1
    41    31    29   ar
    42    23    22   ar
    43   191   192    1
    44    20    22   ar
    45   189   190    2
    46    32    30   ar
    47    29    30   ar
    48    29    28    1
    49    25    28    1
    50    25    26    1
    51   200   199    1
    52   195   196    1
    53   192   193    1
    54   177   175   ar
    55    26    27    2
    56   161   160    1
    57   175   174    1
    58   175   176   ar
    59   174   173    1
    60   193   194    1
    61   196   199    1
    62   196   197    1
    63   150   149    1
    64   151   149    1
    65   173   170    1
    66    51    50    1
    67    51    52    1
    68    50    49    1
    69   160   157    1
    70   149   146    1
    71   144   141    1
    72   186   184   ar
    73   197   198    2
    74    36    37    1
    75   143   142    2
    76    45    46    1
    77   146   145    1
    78   146   147    1
    79   170   171    1
    80   170   169    1
    81   185   184   ar
    82   157   156    1
    83   157   158    1
    84    49    46    1
    85   142   145   am
    86   142   141    1
    87   184   183    1
    88    46    47    1
    89   181   180    2
    90   172   171    2
    91   141   140    1
    92   169   164   am
    93   180   179    1
    94   156   154   am
    95    37    38    1
    96    37    40    1
    97    44    42   am
    98   139   137   ar
    99   158   159    2
   100   158   162   am
   101   147   148    2
   102    67    66    1
   103    67    68    1
   104    38    39    2
   105   140   133   am
   106    41    42    1
   107    41    40    1
   108   162   163    1
   109   167   166    1
   110    42    43    2
   111   183   182    1
   112    47    48    2
   113    47    53   am
   114   154   155    2
   115   154   153    1
   116    65    66    1
   117    65    62    1
   118   164   163    1
   119   164   165    2
   120   137   138   ar
   121   137   136    1
   122   179   182    1
   123   179   178    1
   124    68    69    2
   125    70    69    1
   126    85    84    1
   127   153   152    1
   128   163   166    1
   129    53    54    1
   130    69    71    1
   131    61    62    1
   132   133   134    2
   133   133   132    1
   134   166   168    1
   135    88    87    1
   136    88    89    1
   137    62    63    1
   138   136   135    1
   139    90    89    2
   140    83    82    2
   141    87    82   am
   142   132   135    1
   143   132   131    1
   144    89    91   am
   145    84    86    1
   146    84    81    1
   147    82    81    1
   148    99    98    1
   149    99   100    1
   150    54    55    1
   151    54    57    1
   152    55    56    2
   153    63    64    2
   154    98    93   am
   155    81    80    1
   156    57    58    1
   157   129   128    1
   158   131   126   am
   159    58    59    1
   160    58    60    1
   161    91    92    1
   162   100   101    2
   163   100   102   am
   164   127   126    2
   165    93    94    2
   166    93    92    1
   167   126   125    1
   168   102   103    1
   169    92    95    1
   170    80    74   am
   171   128   125    1
   172   128   130    1
   173   106   103    1
   174   106   107    1
   175   125   124    1
   176   103   104    1
   177   122   121    1
   178    79    77   ar
   179    74    75    2
   180    74    73    1
   181    97    95    1
   182    95    96    1
   183   114   112    1
   184   121   123    1
   185   121   120    1
   186    77    78   ar
   187    77    76    1
   188   104   105    2
   189    73    76    1
   190    73    72    1
   191   112   113    1
   192   112   109    1
   193   120   117    1
   194   108   109    1
   195   113   115    1
   196   116   117    1
   197   116   110   am
   198   109   110    1
   199   117   118    1
   200   110   111    2
   201   118   119    2
