@<TRIPOS>MOLECULE
tmp/3r0tA00.pdb
 193 185 0 0 0
SMALL
GASTEIGER

@<TRIPOS>ATOM
      1  N         33.3590  -25.0940   15.7290 N.3    41  ARG41      -0.1245
      2  CA        32.7150  -24.6610   16.9590 C.3    41  ARG41       0.1563
      3  C         31.7370  -25.6890   17.4930 C.2    41  ARG41       0.2260
      4  O         31.1510  -26.4480   16.7320 O.2    41  ARG41      -0.2867
      5  CB        32.0100  -23.3180   16.7660 C.3    41  ARG41       0.0307
      6  CG        30.9810  -23.3000   15.6620 C.3    41  ARG41       0.0489
      7  CD        30.0170  -22.1470   15.8900 C.3    41  ARG41       0.2205
      8  NE        29.7010  -21.4450   14.6530 N.pl3  41  ARG41      -0.0865
      9  CZ        28.4840  -21.3680   14.1240 C.cat  41  ARG41       0.5346
     10  NH1       27.4530  -21.9500   14.7280 N.pl3  41  ARG41       0.1354
     11  NH2       28.2960  -20.7020   12.9930 N.pl3  41  ARG41       0.1354
     12  N         28.3420  -26.9390   18.6950 N.3    43  LEU43      -0.1231
     13  CA        26.9600  -26.5030   18.5060 C.3    43  LEU43       0.1693
     14  C         26.1120  -26.8680   19.7200 C.2    43  LEU43       0.2593
     15  O         25.1740  -26.1490   20.0860 O.2    43  LEU43      -0.2718
     16  CB        26.3740  -27.1070   17.2420 C.3    43  LEU43       0.0284
     17  CG        27.0600  -26.7350   15.9270 C.3    43  LEU43       0.0019
     18  CD1       26.2800  -27.3030   14.7590 C.3    43  LEU43       0.0001
     19  CD2       27.1820  -25.2320   15.7920 C.3    43  LEU43       0.0001
     20  N         26.4500  -27.9810   20.3570 N.am   44  GLY44      -0.1942
     21  CA        25.6970  -28.4150   21.5120 C.3    44  GLY44       0.2014
     22  C         26.1090  -29.7720   22.0360 C.2    44  GLY44       0.2639
     23  O         26.9940  -30.4270   21.4990 O.2    44  GLY44      -0.2714
     24  N         25.4230  -30.1960   23.0880 N.am   45  ARG45      -0.1963
     25  CA        25.7490  -31.4200   23.7830 C.3    45  ARG45       0.1729
     26  C         24.4610  -32.1320   24.1500 C.2    45  ARG45       0.2616
     27  O         23.5280  -31.5080   24.6520 O.2    45  ARG45      -0.2715
     28  CB        26.5420  -31.0900   25.0500 C.3    45  ARG45       0.0348
     29  CG        26.8390  -32.2870   25.9150 C.3    45  ARG45       0.0492
     30  CD        28.2470  -32.2130   26.4640 C.3    45  ARG45       0.2205
     31  NE        28.2860  -31.5820   27.7740 N.pl3  45  ARG45      -0.0865
     32  CZ        29.3810  -31.0700   28.3300 C.cat  45  ARG45       0.5346
     33  NH1       30.5440  -31.0940   27.6880 N.pl3  45  ARG45       0.1354
     34  NH2       29.3070  -30.5250   29.5330 N.pl3  45  ARG45       0.1354
     35  N         24.4070  -33.4300   23.8790 N.am   46  GLY46      -0.1955
     36  CA        23.2690  -34.2460   24.2530 C.3    46  GLY46       0.1869
     37  C         23.6950  -35.2710   25.2800 C.2    46  GLY46       0.2309
     38  O         24.8660  -35.3370   25.6380 O.2    46  GLY46      -0.2863
     39  N         26.0970  -37.4810   23.0620 N.3    49  SER49      -0.1217
     40  CA        27.1160  -36.9630   22.1590 C.3    49  SER49       0.1889
     41  C         27.3180  -35.4650   22.3020 C.2    49  SER49       0.2288
     42  O         26.5500  -34.7720   22.9820 O.2    49  SER49      -0.2866
     43  CB        26.7160  -37.2400   20.7150 C.3    49  SER49       0.2089
     44  OG        25.7400  -36.3000   20.2890 O.3    49  SER49      -0.2183
     45  N         28.0490  -32.2350   19.4950 N.3    51  VAL51      -0.1245
     46  CA        27.9430  -31.9580   18.0740 C.3    51  VAL51       0.1561
     47  C         28.7070  -30.6790   17.7360 C.2    51  VAL51       0.2260
     48  O         28.5170  -29.6410   18.3800 O.2    51  VAL51      -0.2867
     49  CB        26.4600  -31.8160   17.6600 C.3    51  VAL51       0.0252
     50  CG1       26.3420  -31.4250   16.2000 C.3    51  VAL51       0.0019
     51  CG2       25.7100  -33.1150   17.9190 C.3    51  VAL51       0.0019
     52  N         30.2270  -27.9680   14.5480 N.3    53  GLU53      -0.1245
     53  CA        30.3230  -27.5560   13.1580 C.3    53  GLU53       0.1567
     54  C         31.7660  -27.7970   12.7680 C.2    53  GLU53       0.2260
     55  O         32.6510  -27.6260   13.5880 O.2    53  GLU53      -0.2867
     56  CB        29.9790  -26.0830   13.0070 C.3    53  GLU53       0.0388
     57  CG        30.2090  -25.5300   11.6130 C.3    53  GLU53       0.1160
     58  CD        29.8420  -24.0610   11.5040 C.2    53  GLU53       0.3649
     59  OE1       28.6410  -23.7450   11.5930 O.co2  53  GLU53      -0.2457
     60  OE2       30.7490  -23.2290   11.3220 O.co2  53  GLU53      -0.2457
     61  N         29.0050  -31.3850    9.8200 N.3    64  VAL64      -0.1245
     62  CA        28.7450  -31.4750   11.2500 C.3    64  VAL64       0.1561
     63  C         29.3200  -32.7730   11.7920 C.2    64  VAL64       0.2260
     64  O         29.2250  -33.8220   11.1480 O.2    64  VAL64      -0.2867
     65  CB        27.2250  -31.3840   11.5280 C.3    64  VAL64       0.0252
     66  CG1       26.8950  -31.9280   12.9030 C.3    64  VAL64       0.0019
     67  CG2       26.7710  -29.9420   11.3920 C.3    64  VAL64       0.0019
     68  N         29.4200  -35.4210   15.0000 N.3    66  LYS66      -0.1245
     69  CA        28.8080  -35.9060   16.2230 C.3    66  LYS66       0.1561
     70  C         29.7410  -36.8970   16.9130 C.2    66  LYS66       0.2260
     71  O         29.8420  -38.0660   16.5090 O.2    66  LYS66      -0.2867
     72  CB        27.4690  -36.5740   15.8800 C.3    66  LYS66       0.0271
     73  CG        26.6990  -37.1350   17.0480 C.3    66  LYS66       0.0035
     74  CD        25.3330  -37.6030   16.5260 C.3    66  LYS66       0.0206
     75  CE        24.5250  -38.3410   17.5520 C.3    66  LYS66       0.1093
     76  NZ        23.2360  -38.8020   16.9090 N.3    66  LYS66      -0.1314
     77  N         21.8800  -45.5050    9.5900 N.3    83  LEU83      -0.1245
     78  CA        22.2620  -44.3800    8.7320 C.3    83  LEU83       0.1561
     79  C         22.7420  -44.8590    7.3670 C.2    83  LEU83       0.2260
     80  O         22.4440  -44.2470    6.3440 O.2    83  LEU83      -0.2867
     81  CB        23.3460  -43.5230    9.4030 C.3    83  LEU83       0.0270
     82  CG        22.8570  -42.6340   10.5600 C.3    83  LEU83       0.0019
     83  CD1       24.0320  -42.1380   11.4150 C.3    83  LEU83       0.0001
     84  CD2       22.0240  -41.4650   10.0330 C.3    83  LEU83       0.0001
     85  N         18.9630  -37.4490    6.7290 N.3    93  ILE93      -0.1245
     86  CA        20.2730  -36.8260    6.8490 C.3    93  ILE93       0.1561
     87  C         21.3320  -37.7810    6.2890 C.2    93  ILE93       0.2260
     88  O         21.2380  -39.0090    6.4610 O.2    93  ILE93      -0.2867
     89  CB        20.5970  -36.4400    8.3160 C.3    93  ILE93       0.0252
     90  CG1       21.7320  -35.4090    8.3450 C.3    93  ILE93       0.0019
     91  CG2       20.9460  -37.6760    9.1540 C.3    93  ILE93       0.0019
     92  CD1       21.3350  -34.0350    7.8490 C.3    93  ILE93       0.0001
     93  N         28.1930  -35.6670    9.3580 N.3   111  PHE111     -0.1227
     94  CA        26.9210  -35.5140    8.6240 C.3   111  PHE111      0.1736
     95  C         26.9440  -34.2990    7.7120 C.2   111  PHE111      0.2595
     96  O         27.7030  -33.3390    7.9320 O.2   111  PHE111     -0.2718
     97  CB        25.7460  -35.3090    9.5860 C.3   111  PHE111      0.0547
     98  CG        25.4870  -36.4610   10.4930 C.ar  111  PHE111     -0.0202
     99  CD1       24.6610  -37.5010   10.0920 C.ar  111  PHE111     -0.0042
    100  CD2       26.0230  -36.4850   11.7690 C.ar  111  PHE111     -0.0042
    101  CE1       24.3900  -38.5520   10.9430 C.ar  111  PHE111     -0.0003
    102  CE2       25.7700  -37.5420   12.6220 C.ar  111  PHE111     -0.0003
    103  CZ        24.9530  -38.5770   12.2090 C.ar  111  PHE111     -0.0000
    104  N         26.0820  -34.3240    6.7040 N.am  112  GLU112     -0.1965
    105  CA        25.8990  -33.1600    5.8650 C.3   112  GLU112      0.1733
    106  C         25.4750  -31.9980    6.7580 C.2   112  GLU112      0.2616
    107  O         24.8190  -32.1870    7.7910 O.2   112  GLU112     -0.2715
    108  CB        24.8190  -33.4400    4.8030 C.3   112  GLU112      0.0429
    109  CG        23.4130  -33.1460    5.2680 C.3   112  GLU112      0.1163
    110  CD        22.3360  -33.5270    4.2500 C.2   112  GLU112      0.3649
    111  OE1       21.9390  -32.6720    3.4330 O.co2 112  GLU112     -0.2457
    112  OE2       21.8590  -34.6780    4.2960 O.co2 112  GLU112     -0.2457
    113  N         25.8490  -30.7900    6.3700 N.am  113  HIS113     -0.1959
    114  CA        25.4970  -29.6100    7.1400 C.3   113  HIS113      0.1787
    115  C         24.2120  -29.0190    6.5790 C.2   113  HIS113      0.2620
    116  O         24.0870  -28.8400    5.3650 O.2   113  HIS113     -0.2715
    117  CB        26.6320  -28.5880    7.0520 C.3   113  HIS113      0.0785
    118  CG        26.3590  -27.3070    7.7760 C.ar  113  HIS113      0.0821
    119  ND1       25.6360  -26.2760    7.2120 N.ar  113  HIS113     -0.2267
    120  CD2       26.7270  -26.8790    9.0070 C.ar  113  HIS113      0.1154
    121  CE1       25.5610  -25.2730    8.0680 C.ar  113  HIS113      0.1986
    122  NE2       26.2040  -25.6170    9.1700 N.ar  113  HIS113     -0.2212
    123  N         23.2570  -28.7310    7.4610 N.am  114  VAL114     -0.1963
    124  CA        22.0030  -28.0970    7.0690 C.3   114  VAL114      0.1727
    125  C         21.9280  -26.6710    7.6120 C.2   114  VAL114      0.2616
    126  O         21.9820  -26.4490    8.8190 O.2   114  VAL114     -0.2715
    127  CB        20.7770  -28.9020    7.5670 C.3   114  VAL114      0.0290
    128  CG1       19.4780  -28.2160    7.1490 C.3   114  VAL114      0.0023
    129  CG2       20.8150  -30.3140    7.0190 C.3   114  VAL114      0.0023
    130  N         21.8280  -25.6990    6.7180 N.am  115  ASN115     -0.1958
    131  CA        21.6800  -24.3140    7.1460 C.3   115  ASN115      0.1819
    132  C         20.2590  -24.0630    7.6310 C.2   115  ASN115      0.2621
    133  O         19.4600  -23.4420    6.9320 O.2   115  ASN115     -0.2715
    134  CB        22.0310  -23.3660    6.0010 C.3   115  ASN115      0.1195
    135  CG        21.9660  -21.9130    6.4140 C.2   115  ASN115      0.2630
    136  OD1       22.0950  -21.5890    7.5960 O.2   115  ASN115     -0.2716
    137  ND2       21.7620  -21.0250    5.4440 N.am  115  ASN115     -0.0877
    138  N         19.9350  -24.5530    8.8250 N.am  116  ASN116     -0.1972
    139  CA        18.5450  -24.5020    9.2840 C.3   116  ASN116      0.1688
    140  C         18.1990  -23.2540   10.0890 C.2   116  ASN116      0.2292
    141  O         19.0750  -22.4660   10.4520 O.2   116  ASN116     -0.2864
    142  CB        18.1820  -25.7560   10.0900 C.3   116  ASN116      0.1181
    143  CG        18.7010  -25.7000   11.5030 C.2   116  ASN116      0.2629
    144  OD1       19.8620  -25.3630   11.7310 O.2   116  ASN116     -0.2716
    145  ND2       17.8380  -26.0030   12.4680 N.am  116  ASN116     -0.0877
    146  N         13.1450  -30.6170   17.2320 N.3   158  HIS158     -0.1241
    147  CA        14.6040  -30.5090   17.1680 C.3   158  HIS158      0.1621
    148  C         15.2140  -31.4300   16.1190 C.2   158  HIS158      0.2264
    149  O         16.2200  -31.0870   15.4950 O.2   158  HIS158     -0.2867
    150  CB        15.2340  -30.7790   18.5250 C.3   158  HIS158      0.0745
    151  CG        16.7340  -30.7480   18.4990 C.ar  158  HIS158      0.0817
    152  ND1       17.4650  -29.6550   18.9130 N.ar  158  HIS158     -0.2268
    153  CD2       17.6360  -31.6720   18.0940 C.ar  158  HIS158      0.1154
    154  CE1       18.7540  -29.9110   18.7740 C.ar  158  HIS158      0.1986
    155  NE2       18.8860  -31.1290   18.2820 N.ar  158  HIS158     -0.2212
    156  N         15.3320  -30.8910   10.7960 N.3   161  MET161     -0.1245
    157  CA        16.0710  -29.6980   10.4150 C.3   161  MET161      0.1570
    158  C         15.5410  -29.1220    9.1160 C.2   161  MET161      0.2261
    159  O         15.3790  -29.8360    8.1290 O.2   161  MET161     -0.2867
    160  CB        17.5650  -29.9910   10.2920 C.3   161  MET161      0.0387
    161  CG        18.1120  -30.6460   11.5320 C.3   161  MET161      0.0595
    162  SD        19.8630  -30.3480   11.6700 S.3   161  MET161     -0.1393
    163  CE        19.8610  -28.5690   11.7190 C.3   161  MET161      0.0692
    164  N         16.9330  -35.9620   11.3500 N.3   172  ILE172     -0.1231
    165  CA        18.2310  -36.2710   11.9360 C.3   172  ILE172      0.1692
    166  C         18.1330  -37.0930   13.2210 C.2   172  ILE172      0.2592
    167  O         17.0300  -37.4530   13.6620 O.2   172  ILE172     -0.2718
    168  CB        18.9910  -34.9810   12.2650 C.3   172  ILE172      0.0266
    169  CG1       18.2540  -34.1790   13.3460 C.3   172  ILE172      0.0019
    170  CG2       19.2070  -34.1420   10.9970 C.3   172  ILE172      0.0020
    171  CD1       19.1390  -33.1010   14.0050 C.3   172  ILE172      0.0001
    172  N         19.3030  -37.3730   13.7990 N.am  173  ASP173     -0.1960
    173  CA        19.4660  -38.0910   15.0680 C.3   173  ASP173      0.1840
    174  C         18.7430  -39.4320   15.1120 C.2   173  ASP173      0.2622
    175  O         17.7020  -39.5770   15.7600 O.2   173  ASP173     -0.2715
    176  CB        19.0650  -37.2380   16.2710 C.3   173  ASP173      0.1450
    177  CG        19.6680  -37.7580   17.5770 C.2   173  ASP173      0.3671
    178  OD1       19.6850  -37.0090   18.5660 O.co2 173  ASP173     -0.2456
    179  OD2       20.1380  -38.9130   17.6120 O.co2 173  ASP173     -0.2456
    180  N         19.3400  -40.4040   14.4360 N.am  174  TRP174     -0.1974
    181  CA        18.8350  -41.7640   14.3730 C.3   174  TRP174      0.1640
    182  C         19.3740  -42.6160   15.5100 C.2   174  TRP174      0.2290
    183  O         19.3620  -43.8480   15.4410 O.2   174  TRP174     -0.2864
    184  CB        19.1670  -42.3500   12.9960 C.3   174  TRP174      0.0576
    185  CG        18.4820  -41.5460   11.9460 C.ar  174  TRP174      0.0006
    186  CD1       18.8660  -40.3180   11.4600 C.ar  174  TRP174      0.0946
    187  CD2       17.2270  -41.8490   11.3230 C.ar  174  TRP174      0.0152
    188  NE1       17.9360  -39.8670   10.5420 N.ar  174  TRP174     -0.2442
    189  CE2       16.9260  -40.7880   10.4410 C.ar  174  TRP174      0.0810
    190  CE3       16.3460  -42.9310   11.4000 C.ar  174  TRP174      0.0012
    191  CZ2       15.7700  -40.7750    9.6490 C.ar  174  TRP174      0.0191
    192  CZ3       15.1930  -42.9150   10.6140 C.ar  174  TRP174      0.0001
    193  CH2       14.9210  -41.8480    9.7500 C.ar  174  TRP174      0.0015
@<TRIPOS>BOND
     1   111   110   ar
     2   110   112   ar
     3   110   109    1
     4   108   109    1
     5   108   105    1
     6   116   115    2
     7   137   135   am
     8   105   104    1
     9   105   106    1
    10   134   135    1
    11   134   131    1
    12    87    88    2
    13    87    86    1
    14    80    79    2
    15   113   106   am
    16   113   114    1
    17   135   136    2
    18   115   114    1
    19   115   123   am
    20   104    95   am
    21   130   131    1
    22   130   125   am
    23    85    86    1
    24   106   107    2
    25    86    89    1
    26   133   132    2
    27   129   127    1
    28   117   114    1
    29   117   118    1
    30   124   123    1
    31   124   127    1
    32   124   125    1
    33   131   132    1
    34   128   127    1
    35   119   118   ar
    36   119   121   ar
    37    79    78    1
    38   125   126    2
    39   132   138   am
    40    95    96    2
    41    95    94    1
    42   118   120   ar
    43    92    90    1
    44   121   122   ar
    45   159   158    2
    46    89    90    1
    47    89    91    1
    48    94    93    1
    49    94    97    1
    50    78    81    1
    51    78    77    1
    52   138   139    1
    53   120   122   ar
    54   158   157    1
    55   139   140    1
    56   139   142    1
    57    81    82    1
    58    97    98    1
    59   191   193   ar
    60   191   189   ar
    61   193   192   ar
    62    61    62    1
    63    84    82    1
    64   140   141    2
    65   142   143    1
    66    99    98   ar
    67    99   101   ar
    68   160   157    1
    69   160   161    1
    70   157   156    1
    71   189   188   ar
    72   189   187   ar
    73    98   100   ar
    74   188   186   ar
    75    82    83    1
    76   192   190   ar
    77   101   103   ar
    78   170   168    1
    79    64    63    2
    80    62    65    1
    81    62    63    1
    82    60    58   ar
    83   187   190   ar
    84   187   185   ar
    85   164   165    1
    86    67    65    1
    87   186   185   ar
    88   143   144    2
    89   143   145   am
    90    58    59   ar
    91    58    57    1
    92    65    66    1
    93   161   162    1
    94    57    56    1
    95   162   163    1
    96   100   102   ar
    97   165   168    1
    98   165   166    1
    99   185   184    1
   100   103   102   ar
   101   168   169    1
   102    54    53    1
   103    54    55    2
   104    11     9    1
   105   184   181    1
   106    56    53    1
   107    53    52    1
   108   166   167    2
   109   166   172   am
   110   169   171    1
   111   172   173    1
   112     9     8    2
   113     9    10    1
   114   181   180    1
   115   181   182    1
   116   180   174   am
   117     8     7    1
   118    18    17    1
   119    68    69    1
   120   173   174    1
   121   173   176    1
   122   174   175    2
   123   183   182    2
   124   149   148    2
   125     6     7    1
   126     6     5    1
   127     1     2    1
   128    19    17    1
   129    72    69    1
   130    72    73    1
   131    17    16    1
   132   148   147    1
   133    50    49    1
   134    69    70    1
   135   176   177    1
   136    71    70    2
   137    74    73    1
   138    74    75    1
   139     4     3    2
   140     5     2    1
   141    76    75    1
   142     2     3    1
   143   147   146    1
   144   147   150    1
   145    16    13    1
   146   177   179   ar
   147   177   178   ar
   148    49    51    1
   149    49    46    1
   150    47    46    1
   151    47    48    2
   152    46    45    1
   153   153   155   ar
   154   153   151   ar
   155   155   154   ar
   156   151   150    1
   157   151   152   ar
   158    13    12    1
   159    13    14    1
   160   154   152   ar
   161    14    15    2
   162    14    20   am
   163    44    43    1
   164    20    21    1
   165    43    40    1
   166    23    22    2
   167    21    22    1
   168    22    24   am
   169    40    41    1
   170    40    39    1
   171    41    42    2
   172    24    25    1
   173    25    26    1
   174    25    28    1
   175    35    26   am
   176    35    36    1
   177    26    27    2
   178    36    37    1
   179    28    29    1
   180    37    38    2
   181    29    30    1
   182    30    31    1
   183    33    32    1
   184    31    32    2
   185    32    34    1
