@<TRIPOS>MOLECULE
tmp/3r0wB00.pdb
 103 96 0 0 0
SMALL
GASTEIGER

@<TRIPOS>ATOM
      1  N         29.0940    8.8510   -0.8260 N.3     8  ARG8       -0.1245
      2  CA        27.9200    8.3150   -1.5360 C.3     8  ARG8        0.1563
      3  C         28.3860    7.3650   -2.6320 C.2     8  ARG8        0.2260
      4  O         29.3430    7.6770   -3.3450 O.2     8  ARG8       -0.2867
      5  CB        27.1080    9.4540   -2.1510 C.3     8  ARG8        0.0307
      6  CG        26.4380   10.2970   -1.1100 C.3     8  ARG8        0.0489
      7  CD        25.7050   11.4630   -1.7220 C.3     8  ARG8        0.2205
      8  NE        25.1740   12.3020   -0.6520 N.pl3   8  ARG8       -0.0865
      9  CZ        24.5360   13.4590   -0.8380 C.cat   8  ARG8        0.5346
     10  NH1       24.3310   13.9260   -2.0670 N.pl3   8  ARG8        0.1354
     11  NH2       24.1110   14.1510    0.2090 N.pl3   8  ARG8        0.1354
     12  N         23.2950    6.6990   -8.1600 N.3    23  LEU23      -0.1245
     13  CA        23.5420    6.2970   -6.7740 C.3    23  LEU23       0.1561
     14  C         23.0520    4.8660   -6.5350 C.2    23  LEU23       0.2260
     15  O         21.8700    4.5780   -6.7670 O.2    23  LEU23      -0.2867
     16  CB        22.7390    7.2180   -5.8680 C.3    23  LEU23       0.0270
     17  CG        22.7630    7.0010   -4.3520 C.3    23  LEU23       0.0019
     18  CD1       24.1070    7.2990   -3.8000 C.3    23  LEU23       0.0001
     19  CD2       21.7000    7.8860   -3.6940 C.3    23  LEU23       0.0001
     20  N         21.5110    2.4770   -4.3550 N.3    25  ASN25      -0.1240
     21  CA        20.6220    2.8090   -3.2320 C.3    25  ASN25       0.1653
     22  C         19.8250    1.6110   -2.7480 C.2    25  ASN25       0.2266
     23  O         18.7660    1.2500   -3.3010 O.2    25  ASN25      -0.2867
     24  CB        19.6700    3.9180   -3.6600 C.3    25  ASN25       0.1155
     25  CG        18.8240    4.4600   -2.5110 C.2    25  ASN25       0.2627
     26  OD1       18.7830    3.8970   -1.4340 O.2    25  ASN25      -0.2716
     27  ND2       18.1630    5.5810   -2.7530 N.am   25  ASN25      -0.0877
     28  N         18.1230    1.3780   -0.1820 N.3    27  GLY27      -0.1210
     29  CA        16.8050    1.8130    0.3250 C.3    27  GLY27       0.1956
     30  C         15.7130    1.9210   -0.7260 C.2    27  GLY27       0.2612
     31  O         14.5370    2.0470   -0.3840 O.2    27  GLY27      -0.2717
     32  N         16.0920    1.8550   -2.0000 N.am   28  ALA28      -0.1965
     33  CA        15.1420    2.0410   -3.1020 C.3    28  ALA28       0.1728
     34  C         14.7650    0.6930   -3.7030 C.2    28  ALA28       0.2616
     35  O         15.6390   -0.0790   -4.0670 O.2    28  ALA28      -0.2715
     36  CB        15.7330    2.9600   -4.1820 C.3    28  ALA28       0.0334
     37  N         13.4630    0.4290   -3.8340 N.am   29  ASP29      -0.1971
     38  CA        13.0250   -0.8320   -4.4080 C.3    29  ASP29       0.1709
     39  C         13.3420   -0.8410   -5.8910 C.2    29  ASP29       0.2293
     40  O         13.7050   -1.8730   -6.4430 O.2    29  ASP29      -0.2864
     41  CB        11.5130   -1.0050   -4.2440 C.3    29  ASP29       0.1436
     42  CG        11.0770   -1.1180   -2.7840 C.2    29  ASP29       0.3671
     43  OD1        9.8830   -0.8060   -2.5290 O.co2  29  ASP29      -0.2456
     44  OD2       11.8780   -1.5320   -1.9050 O.co2  29  ASP29      -0.2456
     45  N         15.3150    4.5680  -10.7090 N.3    32  VAL32      -0.1245
     46  CA        14.6320    5.7800  -11.2280 C.3    32  VAL32       0.1561
     47  C         15.6950    6.6910  -11.8030 C.2    32  VAL32       0.2260
     48  O         16.6410    7.0840  -11.1010 O.2    32  VAL32      -0.2867
     49  CB        13.8110    6.5280  -10.1470 C.3    32  VAL32       0.0252
     50  CG1       13.0080    7.6890  -10.7980 C.3    32  VAL32       0.0019
     51  CG2       12.8720    5.5770   -9.4200 C.3    32  VAL32       0.0019
     52  N          4.6690    6.4230   -8.2950 N.3    47  ILE47      -0.1231
     53  CA         5.6100    6.0780   -7.2290 C.3    47  ILE47       0.1692
     54  C          5.6180    7.1030   -6.1030 C.2    47  ILE47       0.2593
     55  O          4.9090    8.1200   -6.1480 O.2    47  ILE47      -0.2718
     56  CB         7.0620    5.7910   -7.7530 C.3    47  ILE47       0.0266
     57  CG1        7.7280    7.0380   -8.3430 C.3    47  ILE47       0.0019
     58  CG2        7.0800    4.5850   -8.7070 C.3    47  ILE47       0.0020
     59  CD1        9.2550    6.8950   -8.5560 C.3    47  ILE47       0.0001
     60  N          6.4310    6.8290   -5.0840 N.am   48  GLY48      -0.1942
     61  CA         6.4680    7.6730   -3.8960 C.3    48  GLY48       0.2014
     62  C          5.1630    7.4690   -3.1570 C.2    48  GLY48       0.2639
     63  O          4.7510    6.3270   -2.9200 O.2    48  GLY48      -0.2714
     64  N          4.5100    8.5650   -2.8040 N.am   49  GLY49      -0.1939
     65  CA         3.3250    8.4960   -1.9410 C.3    49  GLY49       0.2014
     66  C          3.3420    9.5040   -0.8030 C.2    49  GLY49       0.2638
     67  O          2.3520    9.6950   -0.1120 O.2    49  GLY49      -0.2714
     68  N          4.4790   10.1520   -0.5850 N.am   50  ILE50      -0.1977
     69  CA         4.5120   11.2350    0.3950 C.3    50  ILE50       0.1596
     70  C          4.2620   12.5690   -0.3240 C.2    50  ILE50       0.2287
     71  O          4.9780   12.8850   -1.2720 O.2    50  ILE50      -0.2864
     72  CB         5.7990   11.1560    1.2680 C.3    50  ILE50       0.0276
     73  CG1        5.4560   10.4260    2.5730 C.3    50  ILE50       0.0022
     74  CG2        6.3680   12.5470    1.5660 C.3    50  ILE50       0.0022
     75  CD1        6.4440    9.3800    3.0310 C.3    50  ILE50       0.0001
     76  N         13.5470   12.9750  -10.8370 N.3    80  THR80      -0.1204
     77  CA        14.1470   12.4920   -9.6210 C.3    80  THR80       0.1979
     78  C         15.2990   13.4160   -9.2690 C.2    80  THR80       0.2460
     79  O         16.0960   13.7840  -10.1500 O.2    80  THR80      -0.2732
     80  CB        14.6210   11.0050   -9.7310 C.3    80  THR80       0.1783
     81  OG1       15.2640   10.6120   -8.5070 O.3    80  THR80      -0.2211
     82  CG2       15.5790   10.8010  -10.9070 C.3    80  THR80       0.0376
     83  N         15.3920   13.7970   -7.9830 N.am   81  PRO81      -0.2717
     84  CA        16.5000   14.6080   -7.5030 C.3    81  PRO81       0.1535
     85  C         17.8380   14.0430   -7.9510 C.2    81  PRO81       0.2599
     86  O         18.7000   14.7950   -8.3950 O.2    81  PRO81      -0.2715
     87  CB        16.3690   14.5280   -5.9840 C.3    81  PRO81       0.0310
     88  CG        14.9340   14.2910   -5.7370 C.3    81  PRO81       0.0237
     89  CD        14.4420   13.4650   -6.9050 C.3    81  PRO81       0.0939
     90  N         18.0130   12.7260   -7.8420 N.am   82  THR82      -0.1951
     91  CA        19.2460   12.0880   -8.2960 C.3    82  THR82       0.1897
     92  C         18.9190   10.7470   -8.9520 C.2    82  THR82       0.2313
     93  O         17.9500   10.1050   -8.5490 O.2    82  THR82      -0.2863
     94  CB        20.2570   11.9270   -7.1210 C.3    82  THR82       0.1794
     95  OG1       21.5600   11.5970   -7.6260 O.3    82  THR82      -0.2208
     96  CG2       19.8000   10.8710   -6.1150 C.3    82  THR82       0.0378
     97  N         19.0020    7.0000   -9.4700 N.3    84  VAL84      -0.1245
     98  CA        19.1030    6.0070   -8.4130 C.3    84  VAL84       0.1561
     99  C         19.0520    4.6030   -8.9910 C.2    84  VAL84       0.2260
    100  O         18.1140    4.2980   -9.7360 O.2    84  VAL84      -0.2867
    101  CB        17.9440    6.1540   -7.4080 C.3    84  VAL84       0.0252
    102  CG1       18.0040    5.0500   -6.3810 C.3    84  VAL84       0.0019
    103  CG2       17.9880    7.5000   -6.7150 C.3    84  VAL84       0.0019
@<TRIPOS>BOND
     1    47    46    1
     2    47    48    2
     3    46    45    1
     4    46    49    1
     5    82    80    1
     6    76    77    1
     7    50    49    1
     8    79    78    2
     9    49    51    1
    10   100    99    2
    11    80    77    1
    12    80    81    1
    13    77    78    1
    14    97    98    1
    15    78    83   am
    16    99    98    1
    17    92    93    2
    18    92    91    1
    19    58    56    1
    20    59    57    1
    21    98   101    1
    22    86    85    2
    23    57    56    1
    24    91    90    1
    25    91    94    1
    26    52    53    1
    27    12    13    1
    28    83    84    1
    29    83    89    1
    30    85    90   am
    31    85    84    1
    32    56    53    1
    33    95    94    1
    34    84    87    1
    35   101   103    1
    36   101   102    1
    37    53    54    1
    38    94    96    1
    39    89    88    1
    40    13    14    1
    41    13    16    1
    42    15    14    2
    43    40    39    2
    44    55    54    2
    45    54    60   am
    46    87    88    1
    47    39    38    1
    48    16    17    1
    49    60    61    1
    50    38    41    1
    51    38    37    1
    52    20    21    1
    53    17    18    1
    54    17    19    1
    55    41    42    1
    56    36    33    1
    57    35    34    2
    58    61    62    1
    59    37    34   am
    60    34    33    1
    61    24    21    1
    62    24    25    1
    63     4     3    2
    64    23    22    2
    65    21    22    1
    66    62    63    2
    67    62    64   am
    68    33    32    1
    69    64    65    1
    70    42    43   ar
    71    42    44   ar
    72    27    25   am
    73     3     2    1
    74    25    26    2
    75     5     2    1
    76     5     6    1
    77    10     9    1
    78    32    30   am
    79    65    66    1
    80     7     6    1
    81     7     8    1
    82     2     1    1
    83    71    70    2
    84     9     8    2
    85     9    11    1
    86    66    68   am
    87    66    67    2
    88    30    31    2
    89    30    29    1
    90    68    69    1
    91    70    69    1
    92    28    29    1
    93    69    72    1
    94    72    74    1
    95    72    73    1
    96    73    75    1
