@<TRIPOS>MOLECULE
tmp/3r0wA00.pdb
 99 92 0 0 0
SMALL
GASTEIGER

@<TRIPOS>ATOM
      1  N         14.0370   -6.2540    0.9590 N.3     8  ARG8       -0.1245
      2  CA        14.5700   -5.0820    1.6640 C.3     8  ARG8        0.1563
      3  C         15.5170   -5.5460    2.7630 C.2     8  ARG8        0.2260
      4  O         15.2130   -6.4910    3.4820 O.2     8  ARG8       -0.2867
      5  CB        13.4340   -4.2490    2.2620 C.3     8  ARG8        0.0307
      6  CG        12.6040   -3.5560    1.2150 C.3     8  ARG8        0.0489
      7  CD        11.4600   -2.8060    1.8300 C.3     8  ARG8        0.2205
      8  NE        10.6440   -2.2010    0.7780 N.pl3   8  ARG8       -0.0865
      9  CZ         9.4700   -1.6040    0.9850 C.cat   8  ARG8        0.5346
     10  NH1        8.9570   -1.5280    2.2130 N.pl3   8  ARG8        0.1354
     11  NH2        8.8020   -1.0920   -0.0390 N.pl3   8  ARG8        0.1354
     12  N         16.1740   -0.4220    8.2580 N.3    23  LEU23      -0.1245
     13  CA        16.5620   -0.6730    6.8630 C.3    23  LEU23       0.1561
     14  C         18.0000   -0.1790    6.6210 C.2    23  LEU23       0.2260
     15  O         18.2960    1.0150    6.8340 O.2    23  LEU23      -0.2867
     16  CB        15.6500    0.1300    5.9430 C.3    23  LEU23       0.0270
     17  CG        15.8350    0.0320    4.4150 C.3    23  LEU23       0.0019
     18  CD1       15.3810   -1.2810    3.9330 C.3    23  LEU23       0.0001
     19  CD2       15.0540    1.1400    3.7260 C.3    23  LEU23       0.0001
     20  N         20.3870    1.3460    4.4430 N.3    25  ASN25      -0.1240
     21  CA        20.0490    2.2210    3.3100 C.3    25  ASN25       0.1653
     22  C         21.2450    3.0120    2.8230 C.2    25  ASN25       0.2266
     23  O         21.5900    4.0690    3.3840 O.2    25  ASN25      -0.2867
     24  CB        18.9880    3.2160    3.7660 C.3    25  ASN25       0.1155
     25  CG        18.4240    4.0590    2.6220 C.2    25  ASN25       0.2627
     26  OD1       18.9460    4.0640    1.5280 O.2    25  ASN25      -0.2716
     27  ND2       17.3300    4.7510    2.8860 N.am   25  ASN25      -0.0877
     28  N         21.4830    4.7480    0.3040 N.3    27  GLY27      -0.1210
     29  CA        21.0620    6.0640   -0.2400 C.3    27  GLY27       0.1956
     30  C         20.9230    7.1420    0.8150 C.2    27  GLY27       0.2612
     31  O         20.7430    8.3030    0.4790 O.2    27  GLY27      -0.2717
     32  N         21.0140    6.7650    2.0910 N.am   28  ALA28      -0.1965
     33  CA        20.8250    7.7230    3.1910 C.3    28  ALA28       0.1728
     34  C         22.1730    8.0850    3.7920 C.2    28  ALA28       0.2616
     35  O         22.9260    7.2060    4.1760 O.2    28  ALA28      -0.2715
     36  CB        19.9360    7.1410    4.2780 C.3    28  ALA28       0.0334
     37  N         22.4440    9.3770    3.9250 N.am   29  ASP29      -0.1957
     38  CA        23.7190    9.8210    4.4910 C.3    29  ASP29       0.1840
     39  C         23.7100    9.5220    5.9820 C.2    29  ASP29       0.2622
     40  O         24.7280    9.1390    6.5500 O.2    29  ASP29      -0.2715
     41  CB        23.9050   11.3270    4.3070 C.3    29  ASP29       0.1450
     42  CG        24.0010   11.7440    2.8310 C.2    29  ASP29       0.3671
     43  OD1       23.7210   12.9420    2.5700 O.co2  29  ASP29      -0.2456
     44  OD2       24.3620   10.9170    1.9480 O.co2  29  ASP29      -0.2456
     45  N         22.5360    9.7330    6.5960 N.am   30  ASP30      -0.1971
     46  CA        22.3880    9.7200    8.0530 C.3    30  ASP30       0.1709
     47  C         21.4320    8.6150    8.5150 C.2    30  ASP30       0.2293
     48  O         20.6110    8.1120    7.7510 O.2    30  ASP30      -0.2864
     49  CB        21.8720   11.0690    8.5780 C.3    30  ASP30       0.1436
     50  CG        22.7300   12.2290    8.1640 C.2    30  ASP30       0.3671
     51  OD1       22.1390   13.2140    7.6660 O.co2  30  ASP30      -0.2456
     52  OD2       23.9840   12.1620    8.3030 O.co2  30  ASP30      -0.2456
     53  N         18.2890    7.5620   10.7980 N.3    32  VAL32      -0.1245
     54  CA        17.0960    8.2300   11.3420 C.3    32  VAL32       0.1561
     55  C         16.1820    7.1580   11.9200 C.2    32  VAL32       0.2260
     56  O         15.7670    6.2230   11.2140 O.2    32  VAL32      -0.2867
     57  CB        16.3390    9.0680   10.2730 C.3    32  VAL32       0.0252
     58  CG1       15.1590    9.8350   10.9380 C.3    32  VAL32       0.0019
     59  CG2       17.2860   10.0490    9.5510 C.3    32  VAL32       0.0019
     60  N         16.4550   18.2110    8.3520 N.3    47  ILE47      -0.1231
     61  CA        16.8000   17.2480    7.3050 C.3    47  ILE47       0.1692
     62  C         15.7480   17.2260    6.1960 C.2    47  ILE47       0.2592
     63  O         14.7330   17.9280    6.2600 O.2    47  ILE47      -0.2718
     64  CB        17.0610   15.8120    7.8770 C.3    47  ILE47       0.0266
     65  CG1       15.7870   15.1890    8.4640 C.3    47  ILE47       0.0019
     66  CG2       18.2610   15.8160    8.8520 C.3    47  ILE47       0.0020
     67  CD1       15.8450   13.6520    8.6560 C.3    47  ILE47       0.0001
     68  N         15.9940   16.4070    5.1740 N.am   48  GLY48      -0.1957
     69  CA        15.1070   16.3620    4.0140 C.3    48  GLY48       0.1869
     70  C         15.3450   17.6430    3.2490 C.2    48  GLY48       0.2309
     71  O         16.4940   17.9900    2.9610 O.2    48  GLY48      -0.2863
     72  N          9.8940    9.3530   10.9370 N.3    80  THR80      -0.1204
     73  CA        10.3510    8.7460    9.7050 C.3    80  THR80       0.1979
     74  C          9.4260    7.5600    9.3950 C.2    80  THR80       0.2460
     75  O          9.0460    6.8130   10.3170 O.2    80  THR80      -0.2732
     76  CB        11.8570    8.3170    9.8060 C.3    80  THR80       0.1783
     77  OG1       12.2700    7.6320    8.6100 O.3    80  THR80      -0.2211
     78  CG2       12.1020    7.4270   11.0310 C.3    80  THR80       0.0376
     79  N          9.0540    7.3890    8.1050 N.am   81  PRO81      -0.2717
     80  CA         8.2080    6.2780    7.6620 C.3    81  PRO81       0.1535
     81  C          8.8270    4.9080    7.9030 C.2    81  PRO81       0.2599
     82  O          8.1100    3.9080    7.9550 O.2    81  PRO81      -0.2715
     83  CB         8.0690    6.5050    6.1490 C.3    81  PRO81       0.0310
     84  CG         8.4260    7.9230    5.9230 C.3    81  PRO81       0.0237
     85  CD         9.4560    8.2460    6.9750 C.3    81  PRO81       0.0939
     86  N         10.1550    4.8550    8.0150 N.am   82  THR82      -0.1951
     87  CA        10.8660    3.5970    8.2350 C.3    82  THR82       0.1897
     88  C         12.1250    3.9370    9.0340 C.2    82  THR82       0.2313
     89  O         12.7350    4.9660    8.7530 O.2    82  THR82      -0.2863
     90  CB        11.2400    2.9220    6.8660 C.3    82  THR82       0.1794
     91  OG1       12.2420    1.9110    7.0590 O.3    82  THR82      -0.2208
     92  CG2       11.7780    3.9440    5.8860 C.3    82  THR82       0.0378
     93  N         15.8640    3.8450    9.5590 N.3    84  VAL84      -0.1245
     94  CA        16.8640    3.7510    8.4960 C.3    84  VAL84       0.1561
     95  C         18.2680    3.8210    9.0850 C.2    84  VAL84       0.2260
     96  O         18.5610    4.7520    9.8320 O.2    84  VAL84      -0.2867
     97  CB        16.6690    4.8840    7.4630 C.3    84  VAL84       0.0252
     98  CG1       17.8490    4.9790    6.5400 C.3    84  VAL84       0.0019
     99  CG2       15.3880    4.6680    6.6500 C.3    84  VAL84       0.0019
@<TRIPOS>BOND
     1    29    28    1
     2    29    30    1
     3    11     9    1
     4    31    30    2
     5     8     9    2
     6     8     7    1
     7    30    32   am
     8     1     2    1
     9     9    10    1
    10     6     7    1
    11     6     5    1
    12    26    25    2
    13     2     5    1
    14     2     3    1
    15    44    42   ar
    16    32    33    1
    17    43    42   ar
    18    25    27   am
    19    25    24    1
    20     3     4    2
    21    22    21    1
    22    22    23    2
    23    42    41    1
    24    71    70    2
    25    33    34    1
    26    33    36    1
    27    70    69    1
    28    21    24    1
    29    21    20    1
    30    19    17    1
    31    34    37   am
    32    34    35    2
    33    37    38    1
    34    18    17    1
    35    69    68    1
    36    41    38    1
    37    17    16    1
    38    38    39    1
    39    68    62   am
    40    92    90    1
    41    84    83    1
    42    84    85    1
    43    16    13    1
    44    39    40    2
    45    39    45   am
    46    83    80    1
    47    62    63    2
    48    62    61    1
    49    98    97    1
    50    45    46    1
    51    14    15    2
    52    14    13    1
    53    99    97    1
    54    13    12    1
    55    90    91    1
    56    90    87    1
    57    85    79    1
    58    61    64    1
    59    61    60    1
    60    97    94    1
    61    80    81    1
    62    80    79    1
    63    51    50   ar
    64    48    47    2
    65    64    65    1
    66    64    66    1
    67    81    82    2
    68    81    86   am
    69    86    87    1
    70    46    47    1
    71    46    49    1
    72    79    74   am
    73    50    52   ar
    74    50    49    1
    75    87    88    1
    76    65    67    1
    77    94    95    1
    78    94    93    1
    79    77    76    1
    80    89    88    2
    81    95    96    2
    82    74    73    1
    83    74    75    2
    84    59    57    1
    85    73    76    1
    86    73    72    1
    87    76    78    1
    88    57    58    1
    89    57    54    1
    90    53    54    1
    91    56    55    2
    92    54    55    1
