@<TRIPOS>MOLECULE
tmp/3r0yB00.pdb
 107 99 0 0 0
SMALL
GASTEIGER

@<TRIPOS>ATOM
      1  N         28.9670    8.9420   -0.9140 N.3     8  ARG8       -0.1245
      2  CA        27.8190    8.4180   -1.6550 C.3     8  ARG8        0.1563
      3  C         28.2730    7.4620   -2.7510 C.2     8  ARG8        0.2260
      4  O         29.2150    7.7600   -3.4940 O.2     8  ARG8       -0.2867
      5  CB        27.0180    9.5750   -2.2640 C.3     8  ARG8        0.0307
      6  CG        26.3130   10.3970   -1.2220 C.3     8  ARG8        0.0489
      7  CD        25.4430   11.4930   -1.8110 C.3     8  ARG8        0.2205
      8  NE        24.9910   12.3600   -0.7220 N.pl3   8  ARG8       -0.0865
      9  CZ        24.5930   13.6250   -0.8590 C.cat   8  ARG8        0.5346
     10  NH1       24.5840   14.2080   -2.0580 N.pl3   8  ARG8        0.1354
     11  NH2       24.2140   14.3150    0.2120 N.pl3   8  ARG8        0.1354
     12  N         23.0850    6.8040   -8.2080 N.3    23  LEU23      -0.1245
     13  CA        23.3430    6.3960   -6.8190 C.3    23  LEU23       0.1561
     14  C         22.8880    4.9480   -6.5740 C.2    23  LEU23       0.2260
     15  O         21.7250    4.6310   -6.7890 O.2    23  LEU23      -0.2867
     16  CB        22.5450    7.3160   -5.8970 C.3    23  LEU23       0.0270
     17  CG        22.6180    7.1120   -4.3790 C.3    23  LEU23       0.0019
     18  CD1       23.9290    7.5460   -3.8790 C.3    23  LEU23       0.0001
     19  CD2       21.5040    7.9490   -3.7150 C.3    23  LEU23       0.0001
     20  N         21.3380    2.5750   -4.4090 N.3    25  ASN25      -0.1240
     21  CA        20.4600    2.8960   -3.2860 C.3    25  ASN25       0.1653
     22  C         19.6850    1.6850   -2.7780 C.2    25  ASN25       0.2266
     23  O         18.6240    1.3290   -3.3080 O.2    25  ASN25      -0.2867
     24  CB        19.4850    3.9980   -3.7110 C.3    25  ASN25       0.1155
     25  CG        18.6710    4.5410   -2.5550 C.2    25  ASN25       0.2627
     26  OD1       18.6580    3.9660   -1.4840 O.2    25  ASN25      -0.2716
     27  ND2       18.0070    5.6870   -2.7640 N.am   25  ASN25      -0.0877
     28  N         17.9770    1.4380   -0.2860 N.3    27  GLY27      -0.1210
     29  CA        16.6840    1.9050    0.2390 C.3    27  GLY27       0.1956
     30  C         15.6050    2.0790   -0.8130 C.2    27  GLY27       0.2612
     31  O         14.4390    2.2810   -0.4690 O.2    27  GLY27      -0.2717
     32  N         15.9720    1.9730   -2.0890 N.am   28  ALA28      -0.1965
     33  CA        15.0050    2.1400   -3.1830 C.3    28  ALA28       0.1728
     34  C         14.6220    0.7890   -3.7700 C.2    28  ALA28       0.2616
     35  O         15.4940   -0.0060   -4.1180 O.2    28  ALA28      -0.2715
     36  CB        15.5760    3.0160   -4.2760 C.3    28  ALA28       0.0334
     37  N         13.3260    0.5260   -3.9070 N.am   29  ASP29      -0.1957
     38  CA        12.8920   -0.7440   -4.4820 C.3    29  ASP29       0.1840
     39  C         13.1960   -0.7290   -5.9670 C.2    29  ASP29       0.2622
     40  O         13.5860   -1.7450   -6.5270 O.2    29  ASP29      -0.2715
     41  CB        11.3820   -0.9500   -4.3030 C.3    29  ASP29       0.1450
     42  CG        10.9510   -1.1100   -2.8430 C.2    29  ASP29       0.3671
     43  OD1        9.7380   -0.8960   -2.6020 O.co2  29  ASP29      -0.2456
     44  OD2       11.7480   -1.4810   -1.9500 O.co2  29  ASP29      -0.2456
     45  N         13.0020    0.4390   -6.5900 N.am   30  ASP30      -0.1971
     46  CA        13.0180    0.5690   -8.0500 C.3    30  ASP30       0.1709
     47  C         14.1190    1.5180   -8.5050 C.2    30  ASP30       0.2293
     48  O         14.5840    2.3620   -7.7360 O.2    30  ASP30      -0.2864
     49  CB        11.6860    1.1200   -8.5750 C.3    30  ASP30       0.1436
     50  CG        10.4860    0.3970   -8.0080 C.2    30  ASP30       0.3671
     51  OD1        9.6340    1.0750   -7.3720 O.co2  30  ASP30      -0.2456
     52  OD2       10.4050   -0.8390   -8.1770 O.co2  30  ASP30      -0.2456
     53  N         15.1490    4.6510  -10.8020 N.3    32  VAL32      -0.1245
     54  CA        14.4580    5.8410  -11.3500 C.3    32  VAL32       0.1561
     55  C         15.4990    6.7700  -11.9180 C.2    32  VAL32       0.2260
     56  O         16.4310    7.1610  -11.2160 O.2    32  VAL32      -0.2867
     57  CB        13.6350    6.5940  -10.2920 C.3    32  VAL32       0.0252
     58  CG1       12.7930    7.6990  -10.9830 C.3    32  VAL32       0.0019
     59  CG2       12.7290    5.6370   -9.5640 C.3    32  VAL32       0.0019
     60  N          4.7510    6.4260   -8.3230 N.3    47  ILE47      -0.1231
     61  CA         5.7270    6.0640   -7.2890 C.3    47  ILE47       0.1692
     62  C          5.7630    7.1160   -6.1810 C.2    47  ILE47       0.2592
     63  O          5.0350    8.1220   -6.2400 O.2    47  ILE47      -0.2718
     64  CB         7.1520    5.7750   -7.8640 C.3    47  ILE47       0.0266
     65  CG1        7.7990    7.0440   -8.4390 C.3    47  ILE47       0.0019
     66  CG2        7.1150    4.5930   -8.8550 C.3    47  ILE47       0.0020
     67  CD1        9.2900    6.9260   -8.7020 C.3    47  ILE47       0.0001
     68  N          6.5860    6.8660   -5.1580 N.am   48  GLY48      -0.1957
     69  CA         6.5930    7.7100   -3.9630 C.3    48  GLY48       0.1869
     70  C          5.3220    7.4240   -3.1980 C.2    48  GLY48       0.2309
     71  O          5.0200    6.2660   -2.8880 O.2    48  GLY48      -0.2863
     72  N          4.4590   10.0380   -0.6960 N.3    50  ILE50      -0.1245
     73  CA         4.4550   11.0950    0.3130 C.3    50  ILE50       0.1561
     74  C          4.2570   12.4600   -0.3630 C.2    50  ILE50       0.2260
     75  O          4.9960   12.8020   -1.2920 O.2    50  ILE50      -0.2867
     76  CB         5.6840   10.9690    1.2330 C.3    50  ILE50       0.0252
     77  CG1        5.2550   10.2340    2.5090 C.3    50  ILE50       0.0019
     78  CG2        6.2770   12.3310    1.5530 C.3    50  ILE50       0.0019
     79  CD1        6.1880    9.1400    2.9900 C.3    50  ILE50       0.0001
     80  N         13.1180   12.9240  -10.6080 N.3    80  THR80      -0.1204
     81  CA        13.7780   12.4240   -9.4280 C.3    80  THR80       0.1979
     82  C         14.9330   13.3920   -9.1680 C.2    80  THR80       0.2460
     83  O         15.6320   13.7910  -10.1090 O.2    80  THR80      -0.2732
     84  CB        14.2830   10.9570   -9.6060 C.3    80  THR80       0.1783
     85  OG1       15.0440   10.5640   -8.4580 O.3    80  THR80      -0.2211
     86  CG2       15.1340   10.7840  -10.8590 C.3    80  THR80       0.0376
     87  N         15.1360   13.7700   -7.8970 N.am   81  PRO81      -0.2717
     88  CA        16.2420   14.6700   -7.5510 C.3    81  PRO81       0.1535
     89  C         17.6030   14.0620   -7.8530 C.2    81  PRO81       0.2599
     90  O         18.5510   14.7990   -8.1180 O.2    81  PRO81      -0.2715
     91  CB        16.1080   14.8700   -6.0320 C.3    81  PRO81       0.0310
     92  CG        14.7750   14.3360   -5.6490 C.3    81  PRO81       0.0237
     93  CD        14.3510   13.3510   -6.7230 C.3    81  PRO81       0.0939
     94  N         17.6900   12.7310   -7.8080 N.am   82  THR82      -0.1951
     95  CA        18.9430   11.9910   -7.9920 C.3    82  THR82       0.1897
     96  C         18.6340   10.7610   -8.8410 C.2    82  THR82       0.2313
     97  O         17.6560   10.0950   -8.5570 O.2    82  THR82      -0.2863
     98  CB        19.4440   11.4950   -6.5980 C.3    82  THR82       0.1794
     99  OG1       19.6110   12.6270   -5.7360 O.3    82  THR82      -0.2208
    100  CG2       20.7500   10.7320   -6.7040 C.3    82  THR82       0.0378
    101  N         18.8120    7.0650   -9.4910 N.3    84  VAL84      -0.1245
    102  CA        18.9450    6.0460   -8.4590 C.3    84  VAL84       0.1561
    103  C         18.8970    4.6710   -9.0810 C.2    84  VAL84       0.2260
    104  O         17.9940    4.4040   -9.8730 O.2    84  VAL84      -0.2867
    105  CB        17.8310    6.1740   -7.4070 C.3    84  VAL84       0.0252
    106  CG1       17.8320    4.9970   -6.4750 C.3    84  VAL84       0.0019
    107  CG2       18.0150    7.4620   -6.6000 C.3    84  VAL84       0.0019
@<TRIPOS>BOND
     1    55    54    1
     2    55    56    2
     3    54    53    1
     4    54    57    1
     5    58    57    1
     6    86    84    1
     7    80    81    1
     8    57    59    1
     9    83    82    2
    10   104   103    2
    11    84    81    1
    12    84    85    1
    13   101   102    1
    14    81    82    1
    15    82    87   am
    16   103   102    1
    17    66    64    1
    18    96    97    2
    19    96    95    1
    20    67    65    1
    21    49    46    1
    22    49    50    1
    23    47    46    1
    24    47    48    2
    25   102   105    1
    26    65    64    1
    27    60    61    1
    28    12    13    1
    29    52    50   ar
    30    90    89    2
    31    46    45    1
    32    50    51   ar
    33    95    94    1
    34    95    98    1
    35    87    88    1
    36    87    93    1
    37    64    61    1
    38    89    94   am
    39    89    88    1
    40    88    91    1
    41   105   107    1
    42   105   106    1
    43    61    62    1
    44    13    14    1
    45    13    16    1
    46    15    14    2
    47    93    92    1
    48   100    98    1
    49    98    99    1
    50    45    39   am
    51    40    39    2
    52    63    62    2
    53    62    68   am
    54    91    92    1
    55    39    38    1
    56    16    17    1
    57    68    69    1
    58    38    41    1
    59    38    37    1
    60    20    21    1
    61    17    18    1
    62    17    19    1
    63    41    42    1
    64    36    33    1
    65    35    34    2
    66    69    70    1
    67    37    34   am
    68    34    33    1
    69    24    21    1
    70    24    25    1
    71     4     3    2
    72    23    22    2
    73    21    22    1
    74    70    71    2
    75    33    32    1
    76    42    43   ar
    77    42    44   ar
    78    27    25   am
    79     3     2    1
    80    25    26    2
    81     5     2    1
    82     5     6    1
    83    32    30   am
    84    10     9    1
    85     7     6    1
    86     7     8    1
    87     2     1    1
    88    75    74    2
    89     9     8    2
    90     9    11    1
    91    30    31    2
    92    30    29    1
    93    72    73    1
    94    74    73    1
    95    28    29    1
    96    73    76    1
    97    76    78    1
    98    76    77    1
    99    77    79    1
