@<TRIPOS>MOLECULE
tmp/3r11B00.pdb
 134 121 0 0 0
SMALL
GASTEIGER

@<TRIPOS>ATOM
      1  N         98.0900   96.1280   55.3010 N.3    20  PHE20      -0.1241
      2  CA        98.8560   95.0200   54.7360 C.3    20  PHE20       0.1605
      3  C         98.1280   94.4450   53.5230 C.2    20  PHE20       0.2264
      4  O         97.0210   93.9090   53.6530 O.2    20  PHE20      -0.2867
      5  CB        99.0280   93.9270   55.8080 C.3    20  PHE20       0.0534
      6  CG        99.8680   92.7580   55.3670 C.ar   20  PHE20      -0.0203
      7  CD1      101.1920   92.9360   55.0000 C.ar   20  PHE20      -0.0042
      8  CD2       99.3360   91.4790   55.3390 C.ar   20  PHE20      -0.0042
      9  CE1      101.9710   91.8490   54.6010 C.ar   20  PHE20      -0.0003
     10  CE2      100.0990   90.4030   54.9440 C.ar   20  PHE20      -0.0003
     11  CZ       101.4240   90.5910   54.5750 C.ar   20  PHE20      -0.0000
     12  N         98.5380   91.9590   50.0350 N.3    22  THR22      -0.1218
     13  CA        99.2880   90.9950   49.2330 C.3    22  THR22       0.1862
     14  C         98.4160   90.6630   48.0400 C.2    22  THR22       0.2287
     15  O         97.2910   91.1460   47.9510 O.2    22  THR22      -0.2866
     16  CB        99.5380   89.6880   50.0160 C.3    22  THR22       0.1770
     17  OG1       98.3060   88.9640   50.1460 O.3    22  THR22      -0.2211
     18  CG2      100.0890   89.9890   51.4080 C.3    22  THR22       0.0375
     19  N         96.9260   88.0200   47.6770 N.3    24  VAL24      -0.1231
     20  CA        95.8130   87.2350   48.2220 C.3    24  VAL24       0.1692
     21  C         94.7290   88.0130   48.9890 C.2    24  VAL24       0.2591
     22  O         93.5400   87.6910   48.9000 O.2    24  VAL24      -0.2718
     23  CB        96.3280   86.0340   49.0440 C.3    24  VAL24       0.0266
     24  CG1       95.1650   85.2150   49.5760 C.3    24  VAL24       0.0020
     25  CG2       97.2200   85.1660   48.1730 C.3    24  VAL24       0.0020
     26  N         95.1310   89.0090   49.7730 N.am   25  ARG25      -0.1980
     27  CA        94.1570   89.7050   50.5990 C.3    25  ARG25       0.1597
     28  C         94.6820   91.0340   51.0880 C.2    25  ARG25       0.2287
     29  O         95.8510   91.3670   50.9070 O.2    25  ARG25      -0.2864
     30  CB        93.7970   88.8460   51.8230 C.3    25  ARG25       0.0334
     31  CG        94.9040   88.8110   52.8860 C.3    25  ARG25       0.0492
     32  CD        94.7600   87.6230   53.8410 C.3    25  ARG25       0.2205
     33  NE        95.7030   87.7100   54.9580 N.pl3  25  ARG25      -0.0865
     34  CZ        95.3990   88.2130   56.1550 C.cat  25  ARG25       0.5346
     35  NH1       94.1740   88.6700   56.3880 N.pl3  25  ARG25       0.1354
     36  NH2       96.3150   88.2630   57.1180 N.pl3  25  ARG25       0.1354
     37  N         94.4860   82.9820   59.5690 N.3    52  THR52      -0.1218
     38  CA        94.5910   83.5750   58.2380 C.3    52  THR52       0.1862
     39  C         93.8770   82.5890   57.3510 C.2    52  THR52       0.2287
     40  O         94.4780   81.6720   56.7830 O.2    52  THR52      -0.2866
     41  CB        96.0780   83.7090   57.7880 C.3    52  THR52       0.1770
     42  OG1       96.8450   84.3390   58.8220 O.3    52  THR52      -0.2211
     43  CG2       96.1950   84.5370   56.5180 C.3    52  THR52       0.0375
     44  N         94.8970   81.5560   53.7460 N.3    55  ILE55      -0.1245
     45  CA        96.1450   80.8100   53.6170 C.3    55  ILE55       0.1561
     46  C         96.1280   79.4220   54.2720 C.2    55  ILE55       0.2260
     47  O         96.4130   78.4320   53.6160 O.2    55  ILE55      -0.2867
     48  CB        97.3500   81.6240   54.1330 C.3    55  ILE55       0.0252
     49  CG1       97.4220   82.9540   53.3750 C.3    55  ILE55       0.0019
     50  CG2       98.6350   80.8290   53.9220 C.3    55  ILE55       0.0019
     51  CD1       98.6680   83.7410   53.6460 C.3    55  ILE55       0.0001
     52  N        111.3140   92.9500   51.7400 N.3   158  LYS158     -0.1245
     53  CA       110.4330   92.0250   51.0450 C.3   158  LYS158      0.1561
     54  C        109.3600   92.8070   50.3050 C.2   158  LYS158      0.2260
     55  O        108.5540   93.5150   50.9130 O.2   158  LYS158     -0.2867
     56  CB       109.7660   91.0290   52.0010 C.3   158  LYS158      0.0271
     57  CG       108.6920   90.1990   51.2920 C.3   158  LYS158      0.0035
     58  CD       108.0920   89.1050   52.1680 C.3   158  LYS158      0.0206
     59  CE       108.8920   87.8120   52.0400 C.3   158  LYS158      0.1093
     60  NZ       108.0580   86.6090   52.3900 N.3   158  LYS158     -0.1314
     61  N        106.0970   92.7240   48.1600 N.3   160  LYS160     -0.1245
     62  CA       104.9590   91.9260   47.7150 C.3   160  LYS160      0.1561
     63  C        104.6550   92.2150   46.2500 C.2   160  LYS160      0.2260
     64  O        104.6240   93.3810   45.8220 O.2   160  LYS160     -0.2867
     65  CB       103.7310   92.2120   48.5840 C.3   160  LYS160      0.0271
     66  CG       103.8420   91.6910   50.0170 C.3   160  LYS160      0.0035
     67  CD       103.8680   90.1650   50.0340 C.3   160  LYS160      0.0206
     68  CE       103.9190   89.6160   51.4550 C.3   160  LYS160      0.1093
     69  NZ       103.7890   88.1170   51.4910 N.3   160  LYS160     -0.1314
     70  N        107.9400   88.4790   46.7650 N.3   188  ASP188     -0.1239
     71  CA       106.9760   87.4450   47.1380 C.3   188  ASP188      0.1674
     72  C        105.6590   87.7160   46.4090 C.2   188  ASP188      0.2266
     73  O        104.9890   88.7140   46.6640 O.2   188  ASP188     -0.2867
     74  CB       106.7830   87.4680   48.6540 C.3   188  ASP188      0.1410
     75  CG       105.8450   86.3830   49.1560 C.2   188  ASP188      0.3668
     76  OD1      105.2670   85.6160   48.3450 O.co2 188  ASP188     -0.2456
     77  OD2      105.6640   86.3350   50.3870 O.co2 188  ASP188     -0.2456
     78  N        103.0030   85.7250   46.3570 N.3   190  ASN190     -0.1240
     79  CA       101.8660   85.0160   46.9320 C.3   190  ASN190      0.1653
     80  C        101.0790   84.2560   45.8540 C.2   190  ASN190      0.2266
     81  O         99.8460   84.3430   45.8080 O.2   190  ASN190     -0.2867
     82  CB       100.9410   85.9760   47.6850 C.3   190  ASN190      0.1155
     83  CG       101.4810   86.3570   49.0570 C.2   190  ASN190      0.2627
     84  OD1      102.1300   87.3890   49.2150 O.2   190  ASN190     -0.2716
     85  ND2      101.2180   85.5200   50.0510 N.am  190  ASN190     -0.0877
     86  N        106.8330   78.6560   49.6490 N.3   240  ASP240     -0.1225
     87  CA       106.1420   79.0130   50.8790 C.3   240  ASP240      0.1805
     88  C        104.8460   78.1900   50.9480 C.2   240  ASP240      0.2597
     89  O        104.8340   77.1070   51.5330 O.2   240  ASP240     -0.2718
     90  CB       105.8630   80.5260   50.9110 C.3   240  ASP240      0.1424
     91  CG       105.0470   80.9520   52.1440 C.2   240  ASP240      0.3668
     92  OD1      104.6370   80.0830   52.9450 O.co2 240  ASP240     -0.2456
     93  OD2      104.8050   82.1560   52.3040 O.co2 240  ASP240     -0.2456
     94  N        103.8020   78.6180   50.2450 N.am  241  GLU241     -0.1979
     95  CA       102.5280   77.9000   50.3300 C.3   241  GLU241      0.1602
     96  C        102.6020   76.4740   49.7730 C.2   241  GLU241      0.2287
     97  O        101.7690   75.6410   50.1060 O.2   241  GLU241     -0.2864
     98  CB       101.3840   78.6910   49.6840 C.3   241  GLU241      0.0415
     99  CG       101.0840   80.0430   50.3700 C.3   241  GLU241      0.1163
    100  CD       101.8690   81.2140   49.7810 C.2   241  GLU241      0.3649
    101  OE1      103.0850   81.0800   49.5260 O.co2 241  GLU241     -0.2457
    102  OE2      101.2610   82.2760   49.5450 O.co2 241  GLU241     -0.2457
    103  N        107.0190   78.1980   58.2870 N.3   263  LYS263     -0.1245
    104  CA       106.1620   79.0120   59.1540 C.3   263  LYS263      0.1561
    105  C        105.4210   78.1090   60.1190 C.2   263  LYS263      0.2260
    106  O        104.7900   77.1380   59.7030 O.2   263  LYS263     -0.2867
    107  CB       105.1220   79.7900   58.3370 C.3   263  LYS263      0.0271
    108  CG       105.7190   80.7630   57.3050 C.3   263  LYS263      0.0035
    109  CD       104.5900   81.5580   56.6460 C.3   263  LYS263      0.0206
    110  CE       105.0990   82.5030   55.5520 C.3   263  LYS263      0.1093
    111  NZ       103.9740   83.2940   54.9250 N.3   263  LYS263     -0.1314
    112  N        106.3000   84.1120   58.5680 N.3   290  CYS290     -0.1235
    113  CA       105.1490   84.1600   59.4510 C.3   290  CYS290      0.1677
    114  C        103.9380   84.5970   58.6290 C.2   290  CYS290      0.2270
    115  O        104.0710   84.9670   57.4580 O.2   290  CYS290     -0.2867
    116  CB       105.4290   85.2100   60.5380 C.3   290  CYS290      0.0956
    117  SG       105.7830   86.8380   59.7880 S.3   290  CYS290     -0.0801
    118  N        100.9890   88.3490   61.9020 N.3   291  GLU291     -0.1245
    119  CA       100.5110   87.7140   63.1280 C.3   291  GLU291      0.1567
    120  C        101.1050   88.3670   64.3650 C.2   291  GLU291      0.2260
    121  O        101.9480   89.2710   64.2670 O.2   291  GLU291     -0.2867
    122  CB       100.7750   86.1890   63.1130 C.3   291  GLU291      0.0388
    123  CG       102.2550   85.7510   63.1650 C.3   291  GLU291      0.1160
    124  CD       102.4010   84.2300   63.0980 C.2   291  GLU291      0.3649
    125  OE1      102.3170   83.5910   64.1640 O.co2 291  GLU291     -0.2457
    126  OE2      102.5800   83.6770   61.9820 O.co2 291  GLU291     -0.2457
    127  N        111.7930   86.4390   57.4810 N.3   312  ASP312     -0.1239
    128  CA       110.8130   87.4960   57.2710 C.3   312  ASP312      0.1674
    129  C        109.8690   87.4150   58.4760 C.2   312  ASP312      0.2266
    130  O        108.8660   86.6880   58.4830 O.2   312  ASP312     -0.2867
    131  CB       110.0720   87.2160   55.9590 C.3   312  ASP312      0.1410
    132  CG       108.8780   88.1320   55.7350 C.2   312  ASP312      0.3668
    133  OD1      108.9360   89.3350   56.0810 O.co2 312  ASP312     -0.2456
    134  OD2      107.8700   87.6330   55.1940 O.co2 312  ASP312     -0.2456
@<TRIPOS>BOND
     1    81    80    2
     2    64    63    2
     3    80    79    1
     4    63    62    1
     5    78    79    1
     6    72    73    2
     7    72    71    1
     8    70    71    1
     9    79    82    1
    10    71    74    1
    11    19    20    1
    12    82    83    1
    13    62    61    1
    14    62    65    1
    15    15    14    2
    16    14    13    1
    17    25    23    1
    18    20    21    1
    19    20    23    1
    20    76    75   ar
    21    65    66    1
    22    74    75    1
    23    22    21    2
    24    21    26   am
    25    23    24    1
    26    83    84    2
    27    83    85   am
    28    75    77   ar
    29    13    16    1
    30    13    12    1
    31   101   100   ar
    32   102   100   ar
    33    86    87    1
    34    98    95    1
    35    98    99    1
    36    96    97    2
    37    96    95    1
    38    26    27    1
    39   100    99    1
    40    16    17    1
    41    16    18    1
    42    66    67    1
    43    67    68    1
    44    94    95    1
    45    94    88   am
    46    54    55    2
    47    54    53    1
    48    27    28    1
    49    27    30    1
    50    87    90    1
    51    87    88    1
    52    29    28    2
    53    90    91    1
    54    88    89    2
    55    53    52    1
    56    53    56    1
    57    57    56    1
    58    57    58    1
    59    68    69    1
    60    30    31    1
    61    59    58    1
    62    59    60    1
    63    91    93   ar
    64    91    92   ar
    65    31    32    1
    66    49    51    1
    67    49    48    1
    68     3     4    2
    69     3     2    1
    70    47    46    2
    71    45    44    1
    72    45    48    1
    73    45    46    1
    74    32    33    1
    75    50    48    1
    76    11     9   ar
    77    11    10   ar
    78     9     7   ar
    79     2     1    1
    80     2     5    1
    81   111   110    1
    82    10     8   ar
    83    33    34    2
    84     7     6   ar
    85   134   132   ar
    86     8     6   ar
    87     6     5    1
    88   110   109    1
    89   132   131    1
    90   132   133   ar
    91   131   128    1
    92    34    35    1
    93    34    36    1
    94    43    41    1
    95   109   108    1
    96    40    39    2
    97   128   127    1
    98   128   129    1
    99   108   107    1
   100    39    38    1
   101   115   114    2
   102    41    38    1
   103    41    42    1
   104    38    37    1
   105   103   104    1
   106   107   104    1
   107   129   130    2
   108   112   113    1
   109   114   113    1
   110   104   105    1
   111   113   116    1
   112   106   105    2
   113   117   116    1
   114   118   119    1
   115   126   124   ar
   116   124   123    1
   117   124   125   ar
   118   122   119    1
   119   122   123    1
   120   119   120    1
   121   121   120    2
