@<TRIPOS>MOLECULE
tmp/3r12A00.pdb
 120 113 0 0 0
SMALL
GASTEIGER

@<TRIPOS>ATOM
      1  N         16.1390   21.6360   58.0920 N.3    45  THR45      -0.1218
      2  CA        15.5860   22.8010   58.7640 C.3    45  THR45       0.1862
      3  C         16.2420   23.1920   60.0850 C.2    45  THR45       0.2287
      4  O         16.6410   22.3570   60.9010 O.2    45  THR45      -0.2866
      5  CB        14.0890   22.5460   59.0020 C.3    45  THR45       0.1770
      6  OG1       13.5320   22.1820   57.7440 O.3    45  THR45      -0.2211
      7  CG2       13.3220   23.7550   59.5990 C.3    45  THR45       0.0375
      8  N         14.7370   26.3120   62.4270 N.3    47  LEU47      -0.1231
      9  CA        13.8070   27.4270   62.6550 C.3    47  LEU47       0.1693
     10  C         13.8240   27.8570   64.1400 C.2    47  LEU47       0.2591
     11  O         12.9540   28.5870   64.6080 O.2    47  LEU47      -0.2718
     12  CB        12.4060   27.0000   62.1810 C.3    47  LEU47       0.0284
     13  CG        12.2420   26.8950   60.6590 C.3    47  LEU47       0.0019
     14  CD1       10.9120   26.2250   60.2340 C.3    47  LEU47       0.0001
     15  CD2       12.3200   28.2750   60.0260 C.3    47  LEU47       0.0001
     16  N         14.8370   27.3910   64.8820 N.am   48  LYS48      -0.1980
     17  CA        14.9290   27.6980   66.3250 C.3    48  LYS48       0.1596
     18  C         15.2130   29.1860   66.4760 C.2    48  LYS48       0.2287
     19  O         16.0320   29.7580   65.7360 O.2    48  LYS48      -0.2864
     20  CB        16.0360   26.9060   67.0120 C.3    48  LYS48       0.0298
     21  CG        15.8830   25.4030   66.9980 C.3    48  LYS48       0.0038
     22  CD        14.6160   24.9390   67.6800 C.3    48  LYS48       0.0206
     23  CE        14.6170   23.4130   67.7940 C.3    48  LYS48       0.1093
     24  NZ        13.2770   22.8610   68.0690 N.3    48  LYS48      -0.1314
     25  N         15.7480   25.0550   55.1420 N.3    72  CYS72      -0.1235
     26  CA        14.6370   25.8880   55.5660 C.3    72  CYS72       0.1677
     27  C         15.0840   26.6120   56.8240 C.2    72  CYS72       0.2270
     28  O         15.4490   25.9740   57.8120 O.2    72  CYS72      -0.2867
     29  CB        13.3570   25.0810   55.8550 C.3    72  CYS72       0.0956
     30  SG        11.9240   26.1060   56.3400 S.3    72  CYS72      -0.0801
     31  N          1.1520   21.7760   53.8520 N.3   184  LYS184     -0.1245
     32  CA         2.1490   21.2770   54.7990 C.3   184  LYS184      0.1561
     33  C          1.4460   21.0160   56.1060 C.2   184  LYS184      0.2260
     34  O          0.5460   21.7590   56.4770 O.2   184  LYS184     -0.2867
     35  CB         3.2920   22.2890   54.9470 C.3   184  LYS184      0.0271
     36  CG         4.3770   21.9510   56.0080 C.3   184  LYS184      0.0035
     37  CD         5.6320   22.8300   55.7570 C.3   184  LYS184      0.0206
     38  CE         6.7680   22.5920   56.7490 C.3   184  LYS184      0.1093
     39  NZ         6.6290   23.2500   58.0850 N.3   184  LYS184     -0.1314
     40  N          3.9290   23.2580   61.8950 N.3   187  THR187     -0.1203
     41  CA         5.0410   24.1690   62.1250 C.3   187  THR187      0.1994
     42  C          6.1830   23.5350   62.9450 C.2   187  THR187      0.2618
     43  O          7.3420   23.9780   62.8190 O.2   187  THR187     -0.2717
     44  CB         4.5870   25.4120   62.8710 C.3   187  THR187      0.1784
     45  OG1        4.0790   25.0220   64.1660 O.3   187  THR187     -0.2211
     46  CG2        3.5330   26.1930   62.0560 C.3   187  THR187      0.0376
     47  N          5.8530   22.5150   63.7530 N.am  188  GLY188     -0.1942
     48  CA         6.7340   22.0370   64.8460 C.3   188  GLY188      0.2014
     49  C          6.6970   22.8560   66.1200 C.2   188  GLY188      0.2638
     50  O          7.3990   22.5530   67.0900 O.2   188  GLY188     -0.2714
     51  N          5.8950   23.9130   66.1310 N.am  189  PHE189     -0.1973
     52  CA         5.7140   24.7510   67.2920 C.3   189  PHE189      0.1639
     53  C          4.2790   24.6480   67.8400 C.2   189  PHE189      0.2290
     54  O          3.8360   25.4600   68.6690 O.2   189  PHE189     -0.2864
     55  CB         6.0580   26.2020   66.9280 C.3   189  PHE189      0.0560
     56  CG         7.5320   26.4290   66.6890 C.ar  189  PHE189     -0.0200
     57  CD1        8.0850   26.2250   65.4360 C.ar  189  PHE189     -0.0042
     58  CD2        8.3550   26.8960   67.7180 C.ar  189  PHE189     -0.0042
     59  CE1        9.4440   26.4580   65.1950 C.ar  189  PHE189     -0.0003
     60  CE2        9.7320   27.1170   67.4860 C.ar  189  PHE189     -0.0003
     61  CZ        10.2630   26.8960   66.2340 C.ar  189  PHE189     -0.0000
     62  N          3.7810   18.4360   52.0790 N.3   211  LYS211     -0.1245
     63  CA         5.0100   18.4210   52.8820 C.3   211  LYS211      0.1561
     64  C          4.6870   17.9880   54.3070 C.2   211  LYS211      0.2260
     65  O          3.9250   18.6290   55.0330 O.2   211  LYS211     -0.2867
     66  CB         5.7070   19.7750   52.8750 C.3   211  LYS211      0.0271
     67  CG         7.0220   19.7710   53.6720 C.3   211  LYS211      0.0035
     68  CD         7.8340   21.0340   53.3900 C.3   211  LYS211      0.0206
     69  CE         9.0430   21.2200   54.3410 C.3   211  LYS211      0.1093
     70  NZ         9.6610   22.5990   54.3020 N.3   211  LYS211     -0.1314
     71  N          5.8070   17.4720   58.0870 N.3   213  SER213     -0.1202
     72  CA         6.7810   17.9990   58.9890 C.3   213  SER213      0.2020
     73  C          6.2610   17.9500   60.4260 C.2   213  SER213      0.2619
     74  O          5.0530   17.8400   60.6550 O.2   213  SER213     -0.2717
     75  CB         7.1180   19.4410   58.6030 C.3   213  SER213      0.2103
     76  OG         6.0890   20.3360   58.9950 O.3   213  SER213     -0.2182
     77  N          7.1880   18.1090   61.3630 N.am  214  GLY214     -0.1942
     78  CA         6.8880   18.1380   62.7920 C.3   214  GLY214      0.2014
     79  C          6.9970   16.7130   63.2850 C.2   214  GLY214      0.2639
     80  O          6.2230   15.8450   62.8630 O.2   214  GLY214     -0.2714
     81  N          7.9630   16.4630   64.1690 N.am  215  GLY215     -0.1939
     82  CA         8.1700   15.1440   64.7680 C.3   215  GLY215      0.2014
     83  C          8.9030   14.1300   63.9050 C.2   215  GLY215      0.2639
     84  O          8.9820   12.9640   64.2670 O.2   215  GLY215     -0.2714
     85  N          9.3990   14.5370   62.7330 N.am  216  ILE216     -0.1963
     86  CA        10.0270   13.5720   61.8490 C.3   216  ILE216      0.1727
     87  C         11.4900   13.4330   62.2280 C.2   216  ILE216      0.2616
     88  O         12.3240   14.2520   61.8480 O.2   216  ILE216     -0.2715
     89  CB         9.8600   13.9360   60.3660 C.3   216  ILE216      0.0290
     90  CG1        8.3490   14.0430   60.0510 C.3   216  ILE216      0.0022
     91  CG2       10.5270   12.8840   59.5020 C.3   216  ILE216      0.0023
     92  CD1        8.0380   14.4220   58.6370 C.3   216  ILE216      0.0001
     93  N         11.7740   12.3940   62.9990 N.am  217  ARG217     -0.1977
     94  CA        13.0540   12.2370   63.6970 C.3   217  ARG217      0.1597
     95  C         13.9480   11.1700   63.0610 C.2   217  ARG217      0.2287
     96  O         15.1970   11.2730   63.1040 O.2   217  ARG217     -0.2864
     97  CB        12.7920   11.9020   65.1790 C.3   217  ARG217      0.0334
     98  CG        12.0720   12.9790   65.9920 C.3   217  ARG217      0.0492
     99  CD        13.0210   14.0800   66.5060 C.3   217  ARG217      0.2205
    100  NE        13.3540   15.0270   65.4430 N.pl3 217  ARG217     -0.0865
    101  CZ        12.6230   16.0890   65.0770 C.cat 217  ARG217      0.5346
    102  NH1       11.4800   16.3940   65.6860 N.pl3 217  ARG217      0.1354
    103  NH2       13.0420   16.8600   64.0780 N.pl3 217  ARG217      0.1354
    104  N          9.8110   18.0310   56.0040 N.3   232  GLY232     -0.1210
    105  CA        10.4380   19.1070   56.7710 C.3   232  GLY232      0.1956
    106  C         10.9600   18.5230   58.0570 C.2   232  GLY232      0.2613
    107  O         10.2050   17.9180   58.8110 O.2   232  GLY232     -0.2717
    108  N         12.2610   18.6750   58.2970 N.am  233  THR233     -0.1938
    109  CA        12.8660   18.1370   59.4940 C.3   233  THR233      0.2028
    110  C         14.2080   18.8010   59.7670 C.2   233  THR233      0.2642
    111  O         14.9620   19.1330   58.8420 O.2   233  THR233     -0.2714
    112  CB        13.1050   16.6050   59.3900 C.3   233  THR233      0.1808
    113  OG1       13.6540   16.1270   60.6190 O.3   233  THR233     -0.2208
    114  CG2       14.0490   16.2430   58.2110 C.3   233  THR233      0.0379
    115  N         14.5280   18.8930   61.0430 N.am  234  SER234     -0.1949
    116  CA        15.8450   19.3210   61.4700 C.3   234  SER234      0.1924
    117  C         16.7710   18.1270   61.7190 C.2   234  SER234      0.2314
    118  O         17.9240   18.3290   62.0640 O.2   234  SER234     -0.2863
    119  CB        15.7150   20.1460   62.7550 C.3   234  SER234      0.2116
    120  OG        15.0030   19.4260   63.7410 O.3   234  SER234     -0.2180
@<TRIPOS>BOND
     1    62    63    1
     2    66    63    1
     3    66    67    1
     4    63    64    1
     5    68    67    1
     6    68    69    1
     7    31    32    1
     8    70    69    1
     9    64    65    2
    10    32    35    1
    11    32    33    1
    12    35    36    1
    13    25    26    1
    14    26    29    1
    15    26    27    1
    16    37    36    1
    17    37    38    1
    18    29    30    1
    19   104   105    1
    20    33    34    2
    21    38    39    1
    22   105   106    1
    23    27    28    2
    24     6     5    1
    25   106   108   am
    26   106   107    2
    27    71    72    1
    28     1     2    1
    29   114   112    1
    30   108   109    1
    31    75    72    1
    32    75    76    1
    33    92    90    1
    34     2     5    1
    35     2     3    1
    36   111   110    2
    37    72    73    1
    38     5     7    1
    39   112   109    1
    40   112   113    1
    41   109   110    1
    42    91    89    1
    43   110   115   am
    44    15    13    1
    45    90    89    1
    46     3     4    2
    47    14    13    1
    48    89    86    1
    49    73    74    2
    50    73    77   am
    51    13    12    1
    52   115   116    1
    53    77    78    1
    54   116   117    1
    55   116   119    1
    56   117   118    2
    57    88    87    2
    58    86    87    1
    59    86    85    1
    60    40    41    1
    61    46    44    1
    62    41    44    1
    63    41    42    1
    64    12     9    1
    65    87    93   am
    66     8     9    1
    67     9    10    1
    68    85    83   am
    69   119   120    1
    70    78    79    1
    71    43    42    2
    72    80    79    2
    73    44    45    1
    74    42    47   am
    75    93    94    1
    76    95    96    2
    77    95    94    1
    78    79    81   am
    79    94    97    1
    80    47    48    1
    81    83    84    2
    82    83    82    1
    83   103   101    1
    84    10    11    2
    85    10    16   am
    86    81    82    1
    87    48    49    1
    88    16    17    1
    89   101   100    2
    90   101   102    1
    91    97    98    1
    92    59    57   ar
    93    59    61   ar
    94    57    56   ar
    95   100    99    1
    96    19    18    2
    97    98    99    1
    98    49    51   am
    99    49    50    2
   100    51    52    1
   101    61    60   ar
   102    17    18    1
   103    17    20    1
   104    56    55    1
   105    56    58   ar
   106    55    52    1
   107    21    20    1
   108    21    22    1
   109    52    53    1
   110    60    58   ar
   111    22    23    1
   112    23    24    1
   113    53    54    2
