@<TRIPOS>MOLECULE
tmp/3r16A00.pdb
 141 137 0 0 0
SMALL
GASTEIGER

@<TRIPOS>ATOM
      1  N          8.5910    5.9500   11.2600 N.3    89  GLN89      -0.1245
      2  CA         8.8310    4.7910   10.4020 C.3    89  GLN89       0.1566
      3  C          8.5730    3.5110   11.1720 C.2    89  GLN89       0.2260
      4  O          8.5710    3.5150   12.4020 O.2    89  GLN89      -0.2867
      5  CB        10.2790    4.7860    9.8740 C.3    89  GLN89       0.0367
      6  CG        11.3490    4.9560   10.9540 C.3    89  GLN89       0.0905
      7  CD        12.1190    3.6830   11.2570 C.2    89  GLN89       0.2608
      8  OE1       11.5980    2.5740   11.1230 O.2    89  GLN89      -0.2717
      9  NE2       13.3740    3.8470   11.6690 N.am   89  GLN89      -0.0878
     10  N          9.9520   -0.8140   10.9130 N.3    91  HIS91      -0.1241
     11  CA        10.8360   -1.7690   10.2810 C.3    91  HIS91       0.1621
     12  C         10.8010   -3.0380   11.1110 C.2    91  HIS91       0.2264
     13  O         10.1450   -3.0930   12.1560 O.2    91  HIS91      -0.2867
     14  CB        12.2670   -1.2400   10.2460 C.3    91  HIS91       0.0745
     15  CG        12.8300   -0.9790   11.6050 C.ar   91  HIS91       0.0817
     16  ND1       12.6950    0.2340   12.2510 N.ar   91  HIS91      -0.2268
     17  CD2       13.5040   -1.7870   12.4550 C.ar   91  HIS91       0.1154
     18  CE1       13.2670    0.1610   13.4390 C.ar   91  HIS91       0.1986
     19  NE2       13.7730   -1.0530   13.5850 N.ar   91  HIS91      -0.2212
     20  N         13.1780   -6.7450   12.4010 N.3    93  HIS93      -0.1241
     21  CA        14.3950   -7.5400   12.5050 C.3    93  HIS93       0.1621
     22  C         13.9620   -8.9940   12.3950 C.2    93  HIS93       0.2264
     23  O         12.9170   -9.3610   12.9300 O.2    93  HIS93      -0.2867
     24  CB        15.0570   -7.3070   13.8570 C.3    93  HIS93       0.0745
     25  CG        15.3370   -5.8660   14.1340 C.ar   93  HIS93       0.0817
     26  ND1       16.5740   -5.2930   13.9120 N.ar   93  HIS93      -0.2268
     27  CD2       14.5270   -4.8700   14.5680 C.ar   93  HIS93       0.1154
     28  CE1       16.5150   -4.0050   14.2190 C.ar   93  HIS93       0.1986
     29  NE2       15.2840   -3.7240   14.6040 N.ar   93  HIS93      -0.2212
     30  N          9.2310   -2.9910   14.8030 N.3   116  HIS116     -0.1241
     31  CA         9.4610   -1.7790   15.5790 C.3   116  HIS116      0.1621
     32  C          8.7790   -0.6200   14.9050 C.2   116  HIS116      0.2264
     33  O          9.1370   -0.2560   13.7760 O.2   116  HIS116     -0.2867
     34  CB        10.9570   -1.4960   15.6720 C.3   116  HIS116      0.0745
     35  CG        11.6720   -2.4610   16.5540 C.ar  116  HIS116      0.0817
     36  ND1       13.0360   -2.6550   16.5070 N.ar  116  HIS116     -0.2268
     37  CD2       11.2000   -3.3090   17.4990 C.ar  116  HIS116      0.1154
     38  CE1       13.3760   -3.5750   17.3940 C.ar  116  HIS116      0.1986
     39  NE2       12.2810   -3.9870   18.0080 N.ar  116  HIS116     -0.2212
     40  N          8.4970    3.1760   15.2060 N.3   118  VAL118     -0.1245
     41  CA         9.3490    4.1820   15.8370 C.3   118  VAL118      0.1561
     42  C          8.6380    5.5350   15.8930 C.2   118  VAL118      0.2260
     43  O          8.1880    6.0390   14.8570 O.2   118  VAL118     -0.2867
     44  CB        10.6720    4.3240   15.0660 C.3   118  VAL118      0.0252
     45  CG1       11.5890    5.3530   15.7430 C.3   118  VAL118      0.0019
     46  CG2       11.3840    2.9630   14.9480 C.3   118  VAL118      0.0019
     47  N         13.0790   14.6340   14.7360 N.3   127  PHE127     -0.1227
     48  CA        13.6350   13.3470   15.1300 C.3   127  PHE127      0.1736
     49  C         15.0840   13.4640   15.5690 C.2   127  PHE127      0.2596
     50  O         15.4910   12.8300   16.5480 O.2   127  PHE127     -0.2718
     51  CB        13.5120   12.3440   13.9780 C.3   127  PHE127      0.0547
     52  CG        14.0240   10.9730   14.3040 C.ar  127  PHE127     -0.0202
     53  CD1       13.2230   10.0580   14.9710 C.ar  127  PHE127     -0.0042
     54  CD2       15.3010   10.5840   13.9270 C.ar  127  PHE127     -0.0042
     55  CE1       13.6890    8.7800   15.2740 C.ar  127  PHE127     -0.0003
     56  CE2       15.7680    9.3190   14.2260 C.ar  127  PHE127     -0.0003
     57  CZ        14.9530    8.4110   14.8970 C.ar  127  PHE127     -0.0000
     58  N         15.8650   14.2700   14.8470 N.am  128  GLY128     -0.1957
     59  CA        17.2750   14.4220   15.1560 C.3   128  GLY128      0.1869
     60  C         17.5270   15.0200   16.5320 C.2   128  GLY128      0.2309
     61  O         18.5110   14.6870   17.1840 O.2   128  GLY128     -0.2863
     62  N         16.4030   12.2130   19.4220 N.3   131  VAL131     -0.1245
     63  CA        17.2750   11.0780   19.7580 C.3   131  VAL131      0.1561
     64  C         18.3740   11.4860   20.7290 C.2   131  VAL131      0.2260
     65  O         19.1030   10.6320   21.2410 O.2   131  VAL131     -0.2867
     66  CB        17.9210   10.4120   18.5130 C.3   131  VAL131      0.0252
     67  CG1       16.8530    9.8670   17.5930 C.3   131  VAL131      0.0019
     68  CG2       18.8540   11.3790   17.7760 C.3   131  VAL131      0.0019
     69  N         12.2740    9.1520   22.2290 N.3   137  LEU137     -0.1245
     70  CA        11.6160    8.2080   21.3290 C.3   137  LEU137      0.1561
     71  C         10.7260    7.2610   22.1100 C.2   137  LEU137      0.2260
     72  O         10.9670    6.9850   23.2850 O.2   137  LEU137     -0.2867
     73  CB        12.6390    7.3610   20.5620 C.3   137  LEU137      0.0270
     74  CG        13.6730    7.9710   19.6090 C.3   137  LEU137      0.0019
     75  CD1       14.1080    6.9230   18.5650 C.3   137  LEU137      0.0001
     76  CD2       13.2370    9.2570   18.9430 C.3   137  LEU137      0.0001
     77  N          9.3580    3.3920   21.0950 N.3   139  VAL139     -0.1245
     78  CA         9.2850    2.3700   20.0660 C.3   139  VAL139      0.1561
     79  C          8.3420    1.2860   20.5450 C.2   139  VAL139      0.2260
     80  O          8.5010    0.7470   21.6450 O.2   139  VAL139     -0.2867
     81  CB        10.6630    1.7700   19.7170 C.3   139  VAL139      0.0252
     82  CG1       10.5400    0.7700   18.5500 C.3   139  VAL139      0.0019
     83  CG2       11.6340    2.8660   19.3380 C.3   139  VAL139      0.0019
     84  N         18.2880    2.7630   21.1660 N.3   194  LEU194     -0.1231
     85  CA        18.2590    2.2420   19.8030 C.3   194  LEU194      0.1693
     86  C         18.9990    0.9130   19.8280 C.2   194  LEU194      0.2593
     87  O         19.9970    0.7700   20.5380 O.2   194  LEU194     -0.2718
     88  CB        19.0010    3.1830   18.8600 C.3   194  LEU194      0.0284
     89  CG        18.4940    4.6230   18.7720 C.3   194  LEU194      0.0019
     90  CD1       19.3920    5.4270   17.8210 C.3   194  LEU194      0.0001
     91  CD2       17.0350    4.6530   18.3350 C.3   194  LEU194      0.0001
     92  N         18.5450   -0.0540   19.0360 N.am  195  THR195     -0.1939
     93  CA        19.2090   -1.3600   19.0280 C.3   195  THR195      0.2028
     94  C         20.2420   -1.5130   17.9160 C.2   195  THR195      0.2643
     95  O         20.7980   -2.5980   17.7340 O.2   195  THR195     -0.2714
     96  CB        18.2130   -2.5110   18.8890 C.3   195  THR195      0.1808
     97  OG1       17.6200   -2.4540   17.5880 O.3   195  THR195     -0.2208
     98  CG2       17.1410   -2.4460   19.9740 C.3   195  THR195      0.0379
     99  N         20.4670   -0.4470   17.1480 N.am  196  THR196     -0.1937
    100  CA        21.5900   -0.4060   16.2200 C.3   196  THR196      0.2013
    101  C         22.3750    0.8580   16.4860 C.2   196  THR196      0.2484
    102  O         21.8610    1.8070   17.0860 O.2   196  THR196     -0.2729
    103  CB        21.1620   -0.3710   14.7310 C.3   196  THR196      0.1807
    104  OG1       20.7100    0.9390   14.3930 O.3   196  THR196     -0.2208
    105  CG2       20.0670   -1.3670   14.4370 C.3   196  THR196      0.0379
    106  N         23.6270    0.8870   16.0310 N.am  197  PRO197     -0.2715
    107  CA        24.3640    2.1460   16.1400 C.3   197  PRO197      0.1521
    108  C         23.5120    3.2730   15.5680 C.2   197  PRO197      0.2440
    109  O         22.8290    3.0610   14.5580 O.2   197  PRO197     -0.2731
    110  CB        25.6000    1.8740   15.2780 C.3   197  PRO197      0.0310
    111  CG        25.8510    0.3980   15.5110 C.3   197  PRO197      0.0237
    112  CD        24.4520   -0.1890   15.4460 C.3   197  PRO197      0.0939
    113  N         23.5560    4.4650   16.1760 N.am  198  PRO198     -0.2727
    114  CA        24.4580    4.8780   17.2650 C.3   198  PRO198      0.1402
    115  C         24.0620    4.4500   18.6910 C.2   198  PRO198      0.2269
    116  O         24.6770    4.9380   19.6420 O.2   198  PRO198     -0.2865
    117  CB        24.4430    6.4060   17.1550 C.3   198  PRO198      0.0296
    118  CG        23.0990    6.7250   16.5990 C.3   198  PRO198      0.0237
    119  CD        22.7590    5.5970   15.6600 C.3   198  PRO198      0.0939
    120  N         21.8610    5.1400   20.7970 N.3   200  LEU200     -0.1245
    121  CA        21.5360    6.2320   21.7070 C.3   200  LEU200      0.1561
    122  C         20.4860    5.8250   22.7410 C.2   200  LEU200      0.2260
    123  O         19.5090    5.1280   22.4270 O.2   200  LEU200     -0.2867
    124  CB        21.0620    7.4510   20.9050 C.3   200  LEU200      0.0270
    125  CG        22.1540    8.0060   19.9860 C.3   200  LEU200      0.0019
    126  CD1       21.5680    9.0680   19.0610 C.3   200  LEU200      0.0001
    127  CD2       23.2980    8.5980   20.8210 C.3   200  LEU200      0.0001
    128  N         10.8040    1.9030   25.6270 N.3   205  TRP205     -0.1241
    129  CA        10.3610    0.7010   24.9350 C.3   205  TRP205      0.1605
    130  C          9.0140    0.2560   25.4510 C.2   205  TRP205      0.2264
    131  O          8.7980    0.1840   26.6570 O.2   205  TRP205     -0.2867
    132  CB        11.3950   -0.4300   25.1000 C.3   205  TRP205      0.0550
    133  CG        12.4830   -0.2960   24.0980 C.ar  205  TRP205      0.0003
    134  CD1       13.7030    0.2800   24.2800 C.ar  205  TRP205      0.0946
    135  CD2       12.4310   -0.7100   22.7210 C.ar  205  TRP205      0.0152
    136  NE1       14.4180    0.2560   23.1040 N.ar  205  TRP205     -0.2442
    137  CE2       13.6640   -0.3560   22.1360 C.ar  205  TRP205      0.0810
    138  CE3       11.4630   -1.3520   21.9320 C.ar  205  TRP205      0.0012
    139  CZ2       13.9550   -0.6080   20.7940 C.ar  205  TRP205      0.0191
    140  CZ3       11.7550   -1.6140   20.5950 C.ar  205  TRP205      0.0001
    141  CH2       12.9920   -1.2360   20.0410 C.ar  205  TRP205      0.0015
@<TRIPOS>BOND
     1     5     2    1
     2     5     6    1
     3    14    11    1
     4    14    15    1
     5    11    10    1
     6    11    12    1
     7     2     3    1
     8     2     1    1
     9     6     7    1
    10    12    13    2
    11     8     7    2
    12     3     4    2
    13     7     9   am
    14    15    16   ar
    15    15    17   ar
    16    16    18   ar
    17    22    21    1
    18    22    23    2
    19    20    21    1
    20    17    19   ar
    21    21    24    1
    22    18    19   ar
    23    33    32    2
    24    24    25    1
    25    26    25   ar
    26    26    28   ar
    27    54    56   ar
    28    54    52   ar
    29    51    52    1
    30    51    48    1
    31    25    27   ar
    32    28    29   ar
    33    56    57   ar
    34    52    53   ar
    35   104   103    1
    36   105   103    1
    37   109   108    2
    38    27    29   ar
    39   103   100    1
    40    47    48    1
    41    30    31    1
    42    58    59    1
    43    58    49   am
    44    43    42    2
    45    57    55   ar
    46    32    31    1
    47    46    44    1
    48    53    55   ar
    49    44    45    1
    50    44    41    1
    51    48    49    1
    52    59    60    1
    53    40    41    1
    54   110   111    1
    55   110   107    1
    56   112   111    1
    57   112   106    1
    58   108   107    1
    59   108   113   am
    60    49    50    2
    61    31    34    1
    62   119   113    1
    63   119   118    1
    64    34    35    1
    65    41    42    1
    66   106   107    1
    67   106   101   am
    68   113   114    1
    69   100   101    1
    70   100    99    1
    71   101   102    2
    72    36    35   ar
    73    36    38   ar
    74    60    61    2
    75    35    37   ar
    76   118   117    1
    77    99    94   am
    78   117   114    1
    79   114   115    1
    80    38    39   ar
    81    37    39   ar
    82    97    96    1
    83    67    66    1
    84    95    94    2
    85    68    66    1
    86    90    89    1
    87    94    93    1
    88    91    89    1
    89    66    63    1
    90    82    81    1
    91    75    74    1
    92   115   116    2
    93    89    88    1
    94    88    85    1
    95    96    93    1
    96    96    98    1
    97    76    74    1
    98    93    92    1
    99    92    86   am
   100   126   125    1
   101    83    81    1
   102    62    63    1
   103    74    73    1
   104    81    78    1
   105    63    64    1
   106    85    86    1
   107    85    84    1
   108    86    87    2
   109   125   127    1
   110   125   124    1
   111   141   140   ar
   112   141   139   ar
   113    78    79    1
   114    78    77    1
   115    79    80    2
   116    73    70    1
   117   140   138   ar
   118    64    65    2
   119   139   137   ar
   120   120   121    1
   121   124   121    1
   122    70    71    1
   123    70    69    1
   124   121   122    1
   125   138   135   ar
   126    71    72    2
   127   137   135   ar
   128   137   136   ar
   129   123   122    2
   130   135   133   ar
   131   136   134   ar
   132   133   134   ar
   133   133   132    1
   134   129   132    1
   135   129   130    1
   136   129   128    1
   137   130   131    2
