@<TRIPOS>MOLECULE
tmp/3r1aC01.pdb
 132 123 0 0 0
SMALL
GASTEIGER

@<TRIPOS>ATOM
      1  N       -145.1470   -1.6160  -25.2100 N.3    74  ILE74      -0.1245
      2  CA      -145.5080   -1.9930  -23.8490 C.3    74  ILE74       0.1561
      3  C       -145.9600   -0.7730  -23.0510 C.2    74  ILE74       0.2260
      4  O       -145.2640    0.2420  -22.9950 O.2    74  ILE74      -0.2867
      5  CB      -144.3550   -2.6970  -23.1190 C.3    74  ILE74       0.0252
      6  CG1     -144.4430   -4.2060  -23.3330 C.3    74  ILE74       0.0019
      7  CG2     -144.4210   -2.4150  -21.6310 C.3    74  ILE74       0.0019
      8  CD1     -145.6780   -4.8250  -22.7180 C.3    74  ILE74       0.0001
      9  N       -143.4160    1.1240  -20.3220 N.3    77  VAL77      -0.1245
     10  CA      -142.0490    1.4130  -20.7470 C.3    77  VAL77       0.1561
     11  C       -141.9840    2.0730  -22.1220 C.2    77  VAL77       0.2260
     12  O       -140.9020    2.2590  -22.6810 O.2    77  VAL77      -0.2867
     13  CB      -141.1730    0.1470  -20.7480 C.3    77  VAL77       0.0252
     14  CG1     -141.3770   -0.6250  -19.4640 C.3    77  VAL77       0.0019
     15  CG2     -141.4910   -0.7230  -21.9520 C.3    77  VAL77       0.0019
     16  N       -138.7530    4.0950  -24.3910 N.3    81  PHE81      -0.1241
     17  CA      -138.2380    3.5900  -25.6580 C.3    81  PHE81       0.1605
     18  C       -138.9100    4.2810  -26.8390 C.2    81  PHE81       0.2264
     19  O       -138.2420    4.7270  -27.7710 O.2    81  PHE81      -0.2867
     20  CB      -138.4370    2.0770  -25.7550 C.3    81  PHE81       0.0534
     21  CG      -137.6320    1.2930  -24.7590 C.ar   81  PHE81      -0.0203
     22  CD1     -136.3980    0.7730  -25.1070 C.ar   81  PHE81      -0.0042
     23  CD2     -138.1100    1.0740  -23.4760 C.ar   81  PHE81      -0.0042
     24  CE1     -135.6530    0.0510  -24.1970 C.ar   81  PHE81      -0.0003
     25  CE2     -137.3690    0.3510  -22.5600 C.ar   81  PHE81      -0.0003
     26  CZ      -136.1380   -0.1610  -22.9220 C.ar   81  PHE81      -0.0000
     27  N       -135.1130   -3.4720  -29.1330 N.3    87  ILE87      -0.1231
     28  CA      -136.2720   -4.2570  -28.7120 C.3    87  ILE87       0.1692
     29  C       -137.6040   -3.7600  -29.2750 C.2    87  ILE87       0.2592
     30  O       -138.3720   -4.5390  -29.8360 O.2    87  ILE87      -0.2718
     31  CB      -136.3810   -4.3460  -27.1760 C.3    87  ILE87       0.0266
     32  CG1     -135.2190   -5.1580  -26.6040 C.3    87  ILE87       0.0019
     33  CG2     -137.7010   -4.9810  -26.7780 C.3    87  ILE87       0.0020
     34  CD1     -135.3440   -5.4490  -25.1220 C.3    87  ILE87       0.0001
     35  N       -137.8770   -2.4680  -29.1220 N.am   88  PHE88      -0.1976
     36  CA      -139.1780   -1.9240  -29.5040 C.3    88  PHE88       0.1639
     37  C       -139.2080   -1.3210  -30.9080 C.2    88  PHE88       0.2290
     38  O       -140.2700   -0.9410  -31.4030 O.2    88  PHE88      -0.2864
     39  CB      -139.6540   -0.9010  -28.4700 C.3    88  PHE88       0.0560
     40  CG      -139.9480   -1.4970  -27.1220 C.ar   88  PHE88      -0.0200
     41  CD1     -141.2550   -1.7110  -26.7140 C.ar   88  PHE88      -0.0042
     42  CD2     -138.9180   -1.8500  -26.2670 C.ar   88  PHE88      -0.0042
     43  CE1     -141.5270   -2.2610  -25.4740 C.ar   88  PHE88      -0.0003
     44  CE2     -139.1840   -2.4010  -25.0290 C.ar   88  PHE88      -0.0003
     45  CZ      -140.4900   -2.6060  -24.6320 C.ar   88  PHE88      -0.0000
     46  N       -138.3460   -3.8530  -12.7910 N.3   179  PHE179     -0.1241
     47  CA      -139.0050   -5.0610  -13.2560 C.3   179  PHE179      0.1605
     48  C       -140.1050   -5.4580  -12.2790 C.2   179  PHE179      0.2264
     49  O       -141.2160   -5.7970  -12.6830 O.2   179  PHE179     -0.2867
     50  CB      -137.9930   -6.1940  -13.4160 C.3   179  PHE179      0.0534
     51  CG      -138.5170   -7.3710  -14.1860 C.ar  179  PHE179     -0.0203
     52  CD1     -139.1470   -7.1920  -15.4080 C.ar  179  PHE179     -0.0042
     53  CD2     -138.3680   -8.6590  -13.6980 C.ar  179  PHE179     -0.0042
     54  CE1     -139.6280   -8.2740  -16.1240 C.ar  179  PHE179     -0.0003
     55  CE2     -138.8440   -9.7460  -14.4090 C.ar  179  PHE179     -0.0003
     56  CZ      -139.4750   -9.5530  -15.6240 C.ar  179  PHE179     -0.0000
     57  N       -142.9070   -3.3930  -13.1540 N.3   182  ILE182     -0.1245
     58  CA      -143.5260   -3.5890  -14.4590 C.3   182  ILE182      0.1561
     59  C       -144.4180   -4.8220  -14.4320 C.2   182  ILE182      0.2260
     60  O       -145.4650   -4.8620  -15.0790 O.2   182  ILE182     -0.2867
     61  CB      -142.4780   -3.7500  -15.5720 C.3   182  ILE182      0.0252
     62  CG1     -141.6470   -2.4750  -15.7110 C.3   182  ILE182      0.0019
     63  CG2     -143.1480   -4.0700  -16.8960 C.3   182  ILE182      0.0019
     64  CD1     -140.5630   -2.5680  -16.7670 C.3   182  ILE182      0.0001
     65  N       -136.0060    4.3030  -15.1560 N.3   211  LEU211     -0.1245
     66  CA      -135.4070    4.1590  -16.4780 C.3   211  LEU211      0.1561
     67  C       -134.6330    5.4070  -16.8950 C.2   211  LEU211      0.2260
     68  O       -133.5580    5.3080  -17.4850 O.2   211  LEU211     -0.2867
     69  CB      -136.4630    3.8040  -17.5240 C.3   211  LEU211      0.0270
     70  CG      -137.1260    2.4420  -17.3350 C.3   211  LEU211      0.0019
     71  CD1     -137.6350    1.9180  -18.6650 C.3   211  LEU211      0.0001
     72  CD2     -136.1420    1.4640  -16.7250 C.3   211  LEU211      0.0001
     73  N       -131.7380   -1.2490  -23.6410 N.3   267  SER267     -0.1217
     74  CA      -132.3630   -2.5200  -23.9900 C.3   267  SER267      0.1889
     75  C       -131.4600   -3.6970  -23.6370 C.2   267  SER267      0.2288
     76  O       -131.8460   -4.5790  -22.8690 O.2   267  SER267     -0.2866
     77  CB      -132.7090   -2.5560  -25.4790 C.3   267  SER267      0.2089
     78  OG      -133.5960   -1.5060  -25.8200 O.3   267  SER267     -0.2183
     79  N       -130.5920   -3.7540  -19.7110 N.3   270  PHE270     -0.1227
     80  CA      -131.6810   -4.2360  -18.8730 C.3   270  PHE270      0.1736
     81  C       -131.8860   -5.7320  -19.0630 C.2   270  PHE270      0.2595
     82  O       -131.8010   -6.5040  -18.1090 O.2   270  PHE270     -0.2718
     83  CB      -132.9740   -3.4790  -19.1850 C.3   270  PHE270      0.0547
     84  CG      -134.0200   -3.5930  -18.1120 C.ar  270  PHE270     -0.0202
     85  CD1     -135.2060   -2.8860  -18.2090 C.ar  270  PHE270     -0.0042
     86  CD2     -133.8160   -4.4000  -17.0030 C.ar  270  PHE270     -0.0042
     87  CE1     -136.1700   -2.9880  -17.2260 C.ar  270  PHE270     -0.0003
     88  CE2     -134.7770   -4.5040  -16.0160 C.ar  270  PHE270     -0.0003
     89  CZ      -135.9550   -3.7970  -16.1270 C.ar  270  PHE270     -0.0000
     90  N       -132.1450   -6.1380  -20.2990 N.am  271  ALA271     -0.1980
     91  CA      -132.3960   -7.5430  -20.5980 C.3   271  ALA271      0.1597
     92  C       -131.3040   -8.4630  -20.0580 C.2   271  ALA271      0.2287
     93  O       -131.5700   -9.3250  -19.2210 O.2   271  ALA271     -0.2864
     94  CB      -132.5680   -7.7430  -22.0960 C.3   271  ALA271      0.0319
     95  N       -131.3120   -8.4520  -15.9480 N.3   274  GLU274     -0.1231
     96  CA      -132.5060   -8.8500  -15.2050 C.3   274  GLU274      0.1699
     97  C       -132.8530  -10.3380  -15.2690 C.2   274  GLU274      0.2592
     98  O       -132.7370  -11.0510  -14.2740 O.2   274  GLU274     -0.2718
     99  CB      -133.7120   -8.0200  -15.6540 C.3   274  GLU274      0.0402
    100  CG      -135.0060   -8.3970  -14.9600 C.3   274  GLU274      0.1161
    101  CD      -134.9440   -8.1900  -13.4600 C.2   274  GLU274      0.3649
    102  OE1     -135.4290   -9.0710  -12.7180 O.co2 274  GLU274     -0.2457
    103  OE2     -134.4140   -7.1470  -13.0240 O.co2 274  GLU274     -0.2457
    104  N       -133.2810  -10.7970  -16.4390 N.am  275  THR275     -0.1953
    105  CA      -133.8850  -12.1210  -16.5660 C.3   275  THR275      0.1897
    106  C       -132.9100  -13.2860  -16.3830 C.2   275  THR275      0.2313
    107  O       -133.2430  -14.2810  -15.7370 O.2   275  THR275     -0.2863
    108  CB      -134.6220  -12.2680  -17.9030 C.3   275  THR275      0.1794
    109  OG1     -135.4340  -11.1080  -18.1220 O.3   275  THR275     -0.2208
    110  CG2     -135.5040  -13.5070  -17.8870 C.3   275  THR275      0.0378
    111  N       -141.1500  -14.6430  -18.6500 N.3   336  ILE336     -0.1245
    112  CA      -141.9360  -13.8010  -19.5480 C.3   336  ILE336      0.1561
    113  C       -143.1820  -14.5690  -19.9900 C.2   336  ILE336      0.2260
    114  O       -143.2270  -15.1180  -21.0900 O.2   336  ILE336     -0.2867
    115  CB      -141.1220  -13.3100  -20.7680 C.3   336  ILE336      0.0252
    116  CG1     -140.0030  -12.3610  -20.3300 C.3   336  ILE336      0.0019
    117  CG2     -142.0170  -12.5720  -21.7400 C.3   336  ILE336      0.0019
    118  CD1     -138.8280  -13.0360  -19.6660 C.3   336  ILE336      0.0001
    119  N       -143.2360  -10.7020  -25.3900 N.3   340  VAL340     -0.1245
    120  CA      -143.1800   -9.2620  -25.5950 C.3   340  VAL340      0.1561
    121  C       -144.1740   -9.0440  -26.7310 C.2   340  VAL340      0.2260
    122  O       -144.2520   -9.8580  -27.6460 O.2   340  VAL340     -0.2867
    123  CB      -141.7430   -8.7910  -25.8620 C.3   340  VAL340      0.0252
    124  CG1     -141.7150   -7.2980  -26.1090 C.3   340  VAL340      0.0019
    125  CG2     -140.8340   -9.1630  -24.6990 C.3   340  VAL340      0.0019
    126  N       -146.3090   -8.8580  -16.9270 N.3   450  VAL450     -0.1245
    127  CA      -145.4760   -8.9160  -18.1240 C.3   450  VAL450      0.1561
    128  C       -144.1760   -9.6440  -17.7940 C.2   450  VAL450      0.2260
    129  O       -143.4890  -10.1610  -18.6760 O.2   450  VAL450     -0.2867
    130  CB      -145.1880   -7.5120  -18.6940 C.3   450  VAL450      0.0252
    131  CG1     -145.9650   -6.4510  -17.9220 C.3   450  VAL450      0.0019
    132  CG2     -143.6980   -7.2170  -18.6740 C.3   450  VAL450      0.0019
@<TRIPOS>BOND
     1    38    37    2
     2    37    36    1
     3    30    29    2
     4    36    35    1
     5    36    39    1
     6    29    35   am
     7    29    28    1
     8    27    28    1
     9    28    31    1
    10    39    40    1
    11    19    18    2
    12   122   121    2
    13    31    33    1
    14    31    32    1
    15    40    41   ar
    16    40    42   ar
    17    18    17    1
    18   121   120    1
    19    41    43   ar
    20    32    34    1
    21    42    44   ar
    22   124   123    1
    23   123   120    1
    24   123   125    1
    25    78    77    1
    26    20    17    1
    27    20    21    1
    28    17    16    1
    29   120   119    1
    30    77    74    1
    31    43    45   ar
    32     1     2    1
    33    22    21   ar
    34    22    24   ar
    35    44    45   ar
    36    21    23   ar
    37    24    26   ar
    38    74    73    1
    39    74    75    1
    40     2     5    1
    41     2     3    1
    42    75    76    2
    43    23    25   ar
    44     6     5    1
    45     6     8    1
    46     5     7    1
    47     3     4    2
    48    26    25   ar
    49    12    11    2
    50    11    10    1
    51    94    91    1
    52    15    13    1
    53   117   115    1
    54   114   113    2
    55   115   116    1
    56   115   112    1
    57    13    10    1
    58    13    14    1
    59    10     9    1
    60    91    90    1
    61    91    92    1
    62   116   118    1
    63    90    81   am
    64    92    93    2
    65   113   112    1
    66    79    80    1
    67   112   111    1
    68    83    80    1
    69    83    84    1
    70    81    80    1
    71    81    82    2
    72   130   132    1
    73   130   127    1
    74   130   131    1
    75   129   128    2
    76    71    70    1
    77    85    84   ar
    78    85    87   ar
    79   127   128    1
    80   127   126    1
    81   109   108    1
    82    84    86   ar
    83   108   110    1
    84   108   105    1
    85    69    70    1
    86    69    66    1
    87    68    67    2
    88    70    72    1
    89    87    89   ar
    90    86    88   ar
    91    63    61    1
    92    67    66    1
    93    64    62    1
    94   105   104    1
    95   105   106    1
    96    66    65    1
    97   104    97   am
    98   106   107    2
    99    89    88   ar
   100    54    56   ar
   101    54    52   ar
   102    95    96    1
   103    62    61    1
   104    99    96    1
   105    99   100    1
   106    56    55   ar
   107    61    58    1
   108    52    51   ar
   109    97    96    1
   110    97    98    2
   111    60    59    2
   112   100   101    1
   113    58    59    1
   114    58    57    1
   115    55    53   ar
   116    51    53   ar
   117    51    50    1
   118   101   103   ar
   119   101   102   ar
   120    50    47    1
   121    47    46    1
   122    47    48    1
   123    49    48    2
