@<TRIPOS>MOLECULE
tmp/3r1bC02.pdb
 118 113 0 0 0
SMALL
GASTEIGER

@<TRIPOS>ATOM
      1  N        -53.4370    2.4760  -53.5480 N.3   307  ARG307     -0.1245
      2  CA       -52.1980    2.9840  -52.9690 C.3   307  ARG307      0.1563
      3  C        -51.9040    4.4350  -53.3710 C.2   307  ARG307      0.2260
      4  O        -51.4290    5.2240  -52.5600 O.2   307  ARG307     -0.2867
      5  CB       -51.0270    2.0790  -53.3530 C.3   307  ARG307      0.0307
      6  CG       -49.7930    2.2630  -52.4880 C.3   307  ARG307      0.0489
      7  CD       -48.7090    1.2980  -52.9080 C.3   307  ARG307      0.2205
      8  NE       -48.3170    1.5060  -54.2980 N.pl3 307  ARG307     -0.0865
      9  CZ       -47.7520    0.5760  -55.0600 C.cat 307  ARG307      0.5346
     10  NH1      -47.5190   -0.6340  -54.5700 N.pl3 307  ARG307      0.1354
     11  NH2      -47.4270    0.8540  -56.3150 N.pl3 307  ARG307      0.1354
     12  N        -48.7410    4.3270  -47.5590 N.3   314  ASP314     -0.1239
     13  CA       -47.6220    4.0820  -48.4580 C.3   314  ASP314      0.1674
     14  C        -46.3240    4.5900  -47.8370 C.2   314  ASP314      0.2266
     15  O        -45.2670    3.9770  -47.9880 O.2   314  ASP314     -0.2867
     16  CB       -47.8760    4.7530  -49.8100 C.3   314  ASP314      0.1410
     17  CG       -46.8560    4.3630  -50.8590 C.2   314  ASP314      0.3668
     18  OD1      -46.0420    3.4540  -50.5930 O.co2 314  ASP314     -0.2456
     19  OD2      -46.8750    4.9580  -51.9570 O.co2 314  ASP314     -0.2456
     20  N        -42.8370    2.5100  -46.7480 N.3   318  HIS318     -0.1241
     21  CA       -41.4870    2.9670  -47.0550 C.3   318  HIS318      0.1621
     22  C        -40.6550    2.9630  -45.7810 C.2   318  HIS318      0.2264
     23  O        -39.5450    2.4310  -45.7500 O.2   318  HIS318     -0.2867
     24  CB       -41.5100    4.3790  -47.6450 C.3   318  HIS318      0.0745
     25  CG       -41.8720    4.4260  -49.0940 C.ar  318  HIS318      0.0817
     26  ND1      -43.1650    4.2620  -49.5470 N.ar  318  HIS318     -0.2268
     27  CD2      -41.1120    4.6220  -50.1970 C.ar  318  HIS318      0.1154
     28  CE1      -43.1840    4.3540  -50.8630 C.ar  318  HIS318      0.1986
     29  NE2      -41.9500    4.5720  -51.2840 N.ar  318  HIS318     -0.2212
     30  N        -41.3720   10.5440  -45.8180 N.3   377  PHE377     -0.1241
     31  CA       -41.9350   10.4890  -47.1620 C.3   377  PHE377      0.1605
     32  C        -43.1910   11.3160  -47.4480 C.2   377  PHE377      0.2264
     33  O        -43.8700   11.0950  -48.4490 O.2   377  PHE377     -0.2867
     34  CB       -42.2080    9.0020  -47.3940 C.3   377  PHE377      0.0534
     35  CG       -41.0010    8.1290  -47.1960 C.ar  377  PHE377     -0.0203
     36  CD1      -40.1450    7.8570  -48.2520 C.ar  377  PHE377     -0.0042
     37  CD2      -40.7200    7.5820  -45.9530 C.ar  377  PHE377     -0.0042
     38  CE1      -39.0310    7.0540  -48.0730 C.ar  377  PHE377     -0.0003
     39  CE2      -39.6070    6.7790  -45.7680 C.ar  377  PHE377     -0.0003
     40  CZ       -38.7620    6.5150  -46.8300 C.ar  377  PHE377     -0.0000
     41  N        -47.4370   12.0630  -50.8380 N.3   384  LEU384     -0.1231
     42  CA       -46.2510   11.2150  -50.9060 C.3   384  LEU384      0.1693
     43  C        -45.1320   11.8480  -51.7240 C.2   384  LEU384      0.2592
     44  O        -45.2810   12.0840  -52.9240 O.2   384  LEU384     -0.2718
     45  CB       -46.5940    9.8450  -51.4950 C.3   384  LEU384      0.0284
     46  CG       -45.4460    8.8330  -51.4520 C.3   384  LEU384      0.0019
     47  CD1      -45.4120    8.1310  -50.1030 C.3   384  LEU384      0.0001
     48  CD2      -45.5660    7.8210  -52.5780 C.3   384  LEU384      0.0001
     49  N        -44.0070   12.1170  -51.0690 N.am  385  LYS385     -0.1966
     50  CA       -42.8250   12.6040  -51.7660 C.3   385  LYS385      0.1728
     51  C        -41.7830   11.4990  -51.8460 C.2   385  LYS385      0.2616
     52  O        -41.5990   10.7350  -50.8990 O.2   385  LYS385     -0.2715
     53  CB       -42.2340   13.8320  -51.0670 C.3   385  LYS385      0.0311
     54  CG       -41.5410   13.5250  -49.7480 C.3   385  LYS385      0.0038
     55  CD       -40.7420   14.7180  -49.2440 C.3   385  LYS385      0.0206
     56  CE       -40.0080   14.3820  -47.9540 C.3   385  LYS385      0.1093
     57  NZ       -39.2110   15.5330  -47.4430 N.3   385  LYS385     -0.1314
     58  N        -41.1140   11.4130  -52.9890 N.am  386  ARG386     -0.1963
     59  CA       -40.0330   10.4580  -53.1760 C.3   386  ARG386      0.1729
     60  C        -38.8110   10.9130  -52.3840 C.2   386  ARG386      0.2616
     61  O        -38.6320   12.1060  -52.1430 O.2   386  ARG386     -0.2715
     62  CB       -39.7180   10.3280  -54.6680 C.3   386  ARG386      0.0348
     63  CG       -38.3340    9.8080  -55.0130 C.3   386  ARG386      0.0492
     64  CD       -38.2380    9.5640  -56.5130 C.3   386  ARG386      0.2205
     65  NE       -37.0020   10.0790  -57.0930 N.pl3 386  ARG386     -0.0865
     66  CZ       -36.0190    9.3150  -57.5590 C.cat 386  ARG386      0.5346
     67  NH1      -36.1240    7.9930  -57.5170 N.pl3 386  ARG386      0.1354
     68  NH2      -34.9310    9.8740  -58.0710 N.pl3 386  ARG386      0.1354
     69  N        -37.9840    9.9620  -51.9610 N.am  387  ASN387     -0.1972
     70  CA       -36.7980   10.2790  -51.1730 C.3   387  ASN387      0.1688
     71  C        -35.5510    9.5800  -51.7040 C.2   387  ASN387      0.2292
     72  O        -35.4980    8.3540  -51.7730 O.2   387  ASN387     -0.2864
     73  CB       -37.0270    9.9260  -49.7040 C.3   387  ASN387      0.1181
     74  CG       -35.8730   10.3420  -48.8170 C.2   387  ASN387      0.2629
     75  OD1      -34.7070   10.1680  -49.1700 O.2   387  ASN387     -0.2716
     76  ND2      -36.1920   10.8950  -47.6530 N.am  387  ASN387     -0.0877
     77  N        -33.8910    6.6220  -50.1440 N.3   390  PHE390     -0.1241
     78  CA       -34.6590    5.3830  -50.0950 C.3   390  PHE390      0.1605
     79  C        -34.4540    4.3400  -51.1850 C.2   390  PHE390      0.2264
     80  O        -35.1910    4.3070  -52.1710 O.2   390  PHE390     -0.2867
     81  CB       -36.1570    5.6750  -50.0850 C.3   390  PHE390      0.0534
     82  CG       -37.0050    4.4490  -49.9290 C.ar  390  PHE390     -0.0203
     83  CD1      -37.2850    3.9430  -48.6730 C.ar  390  PHE390     -0.0042
     84  CD2      -37.5150    3.7980  -51.0390 C.ar  390  PHE390     -0.0042
     85  CE1      -38.0620    2.8150  -48.5250 C.ar  390  PHE390     -0.0003
     86  CE2      -38.2940    2.6690  -50.8970 C.ar  390  PHE390     -0.0003
     87  CZ       -38.5680    2.1770  -49.6390 C.ar  390  PHE390     -0.0000
     88  N        -34.0390   -1.5620  -52.3940 N.3   393  PHE393     -0.1241
     89  CA       -33.9560   -2.5310  -53.4820 C.3   393  PHE393      0.1605
     90  C        -32.7030   -2.3200  -54.3240 C.2   393  PHE393      0.2264
     91  O        -32.5510   -2.9380  -55.3790 O.2   393  PHE393     -0.2867
     92  CB       -35.1810   -2.4250  -54.3940 C.3   393  PHE393      0.0534
     93  CG       -36.4530   -2.9270  -53.7760 C.ar  393  PHE393     -0.0203
     94  CD1      -36.6690   -4.2850  -53.6110 C.ar  393  PHE393     -0.0042
     95  CD2      -37.4440   -2.0430  -53.3810 C.ar  393  PHE393     -0.0042
     96  CE1      -37.8410   -4.7500  -53.0500 C.ar  393  PHE393     -0.0003
     97  CE2      -38.6200   -2.5040  -52.8180 C.ar  393  PHE393     -0.0003
     98  CZ       -38.8180   -3.8590  -52.6530 C.ar  393  PHE393     -0.0000
     99  N        -38.9140   -6.3790  -57.2470 N.3   403  GLU403     -0.1245
    100  CA       -39.2900   -5.1610  -56.5420 C.3   403  GLU403      0.1567
    101  C        -40.7540   -4.8450  -56.8060 C.2   403  GLU403      0.2260
    102  O        -41.4520   -4.3130  -55.9420 O.2   403  GLU403     -0.2867
    103  CB       -38.4000   -3.9920  -56.9670 C.3   403  GLU403      0.0388
    104  CG       -38.6120   -3.5230  -58.3960 C.3   403  GLU403      0.1160
    105  CD       -39.5910   -2.3700  -58.4940 C.2   403  GLU403      0.3649
    106  OE1      -39.9270   -1.9710  -59.6280 O.co2 403  GLU403     -0.2457
    107  OE2      -40.0210   -1.8580  -57.4380 O.co2 403  GLU403     -0.2457
    108  N        -43.3130   -5.1820  -53.5230 N.3   407  ARG407     -0.1245
    109  CA       -43.9840   -3.9610  -53.0970 C.3   407  ARG407      0.1563
    110  C        -45.4970   -4.1550  -53.0450 C.2   407  ARG407      0.2260
    111  O        -46.1510   -3.7550  -52.0800 O.2   407  ARG407     -0.2867
    112  CB       -43.6220   -2.8060  -54.0280 C.3   407  ARG407      0.0307
    113  CG       -42.7120   -1.7690  -53.3970 C.3   407  ARG407      0.0489
    114  CD       -41.6830   -1.2560  -54.3920 C.3   407  ARG407      0.2205
    115  NE       -42.2280   -1.1120  -55.7400 N.pl3 407  ARG407     -0.0865
    116  CZ       -43.0420   -0.1320  -56.1180 C.cat 407  ARG407      0.5346
    117  NH1      -43.4230    0.7920  -55.2450 N.pl3 407  ARG407      0.1354
    118  NH2      -43.4850   -0.0820  -57.3680 N.pl3 407  ARG407      0.1354
@<TRIPOS>BOND
     1   106   105   ar
     2   105   104    1
     3   105   107   ar
     4   104   103    1
     5    68    66    1
     6    66    67    1
     7    66    65    2
     8   118   116    1
     9    99   100    1
    10    65    64    1
    11   103   100    1
    12   101   100    1
    13   101   102    2
    14    64    63    1
    15    11     9    1
    16   116   115    2
    17   116   117    1
    18   115   114    1
    19    91    90    2
    20     9    10    1
    21     9     8    2
    22    63    62    1
    23    62    59    1
    24    92    93    1
    25    92    89    1
    26   114   113    1
    27    90    89    1
    28     8     7    1
    29   112   113    1
    30   112   109    1
    31    93    94   ar
    32    93    95   ar
    33    94    96   ar
    34     1     2    1
    35   108   109    1
    36    89    88    1
    37    95    97   ar
    38     3     2    1
    39     3     4    2
    40     5     2    1
    41     5     6    1
    42    59    58    1
    43    59    60    1
    44   109   110    1
    45    96    98   ar
    46   110   111    2
    47    58    51   am
    48    44    43    2
    49     7     6    1
    50    97    98   ar
    51    48    46    1
    52    60    61    2
    53    60    69   am
    54    80    79    2
    55    69    70    1
    56    19    17   ar
    57    51    50    1
    58    51    52    2
    59    72    71    2
    60    50    49    1
    61    50    53    1
    62    43    49   am
    63    43    42    1
    64    71    70    1
    65    45    46    1
    66    45    42    1
    67    46    47    1
    68    29    28   ar
    69    29    27   ar
    70    79    78    1
    71    70    73    1
    72    53    54    1
    73    84    86   ar
    74    84    82   ar
    75    42    41    1
    76    86    87   ar
    77    28    26   ar
    78    17    18   ar
    79    17    16    1
    80    27    25   ar
    81    77    78    1
    82    78    81    1
    83    81    82    1
    84    82    83   ar
    85    16    13    1
    86    54    55    1
    87    73    74    1
    88    87    85   ar
    89    26    25   ar
    90    55    56    1
    91    75    74    2
    92    25    24    1
    93    74    76   am
    94    83    85   ar
    95    13    14    1
    96    13    12    1
    97    33    32    2
    98    36    38   ar
    99    36    35   ar
   100    38    40   ar
   101    15    14    2
   102    56    57    1
   103    24    21    1
   104    32    31    1
   105    34    35    1
   106    34    31    1
   107    35    37   ar
   108    31    30    1
   109    21    20    1
   110    21    22    1
   111    40    39   ar
   112    37    39   ar
   113    22    23    2
