@<TRIPOS>MOLECULE
tmp/3r1bD01.pdb
 107 101 0 0 0
SMALL
GASTEIGER

@<TRIPOS>ATOM
      1  N         77.6110   -6.4790  -25.2680 N.3    94  TRP94      -0.1241
      2  CA        77.4380   -6.5290  -23.8140 C.3    94  TRP94       0.1605
      3  C         78.2240   -5.4340  -23.0750 C.2    94  TRP94       0.2264
      4  O         77.7990   -4.9610  -22.0180 O.2    94  TRP94      -0.2867
      5  CB        77.8440   -7.9070  -23.2770 C.3    94  TRP94       0.0550
      6  CG        76.8420   -8.9940  -23.5470 C.ar   94  TRP94       0.0003
      7  CD1       76.9560  -10.0160  -24.4480 C.ar   94  TRP94       0.0946
      8  CD2       75.5820   -9.1740  -22.8950 C.ar   94  TRP94       0.0152
      9  NE1       75.8400  -10.8190  -24.3970 N.ar   94  TRP94      -0.2442
     10  CE2       74.9800  -10.3220  -23.4510 C.ar   94  TRP94       0.0810
     11  CE3       74.9000   -8.4740  -21.8950 C.ar   94  TRP94       0.0012
     12  CZ2       73.7320  -10.7840  -23.0410 C.ar   94  TRP94       0.0191
     13  CZ3       73.6620   -8.9340  -21.4890 C.ar   94  TRP94       0.0001
     14  CH2       73.0910  -10.0770  -22.0610 C.ar   94  TRP94       0.0015
     15  N         66.0860   -7.5830  -19.5460 N.3   267  SER267     -0.1202
     16  CA        67.0120   -8.5410  -18.9720 C.3   267  SER267      0.2020
     17  C         67.7230   -8.0230  -17.7470 C.2   267  SER267      0.2618
     18  O         67.6960   -8.6340  -16.6700 O.2   267  SER267     -0.2717
     19  CB        68.0450   -8.9640  -20.0190 C.3   267  SER267      0.2103
     20  OG        68.8480   -7.8660  -20.4160 O.3   267  SER267     -0.2182
     21  N         68.2890   -6.8400  -17.8900 N.am  268  LEU268     -0.1979
     22  CA        69.0150   -6.2660  -16.7940 C.3   268  LEU268      0.1596
     23  C         68.0450   -6.2840  -15.6610 C.2   268  LEU268      0.2287
     24  O         68.3510   -6.7320  -14.5550 O.2   268  LEU268     -0.2864
     25  CB        69.5120   -4.8370  -16.9990 C.3   268  LEU268      0.0297
     26  CG        69.5030   -3.9420  -15.7600 C.3   268  LEU268      0.0022
     27  CD1       70.2980   -4.5620  -14.6240 C.3   268  LEU268      0.0001
     28  CD2       70.0310   -2.5620  -16.1020 C.3   268  LEU268      0.0001
     29  N         65.4240   -8.0230  -15.0760 N.3   270  PHE270     -0.1227
     30  CA        65.1390   -9.2980  -14.5010 C.3   270  PHE270      0.1736
     31  C         66.3080   -9.8550  -13.7570 C.2   270  PHE270      0.2595
     32  O         66.1840  -10.2160  -12.5960 O.2   270  PHE270     -0.2718
     33  CB        64.7140  -10.2820  -15.5920 C.3   270  PHE270      0.0547
     34  CG        64.4410  -11.6660  -15.0720 C.ar  270  PHE270     -0.0202
     35  CD1       63.3850  -11.9310  -14.2440 C.ar  270  PHE270     -0.0042
     36  CD2       65.3120  -12.6620  -15.3460 C.ar  270  PHE270     -0.0042
     37  CE1       63.2220  -13.2640  -13.7300 C.ar  270  PHE270     -0.0003
     38  CE2       65.1190  -13.9870  -14.8680 C.ar  270  PHE270     -0.0003
     39  CZ        64.0560  -14.2590  -14.0860 C.ar  270  PHE270     -0.0000
     40  N         67.4800   -9.8550  -14.3580 N.am  271  ALA271     -0.1980
     41  CA        68.5160  -10.5060  -13.6060 C.3   271  ALA271      0.1597
     42  C         68.7710   -9.8230  -12.2910 C.2   271  ALA271      0.2287
     43  O         68.7490  -10.4580  -11.2220 O.2   271  ALA271     -0.2864
     44  CB        69.8610  -10.4370  -14.3920 C.3   271  ALA271      0.0319
     45  N         65.8170  -10.1850   -9.7800 N.3   274  GLU274     -0.1231
     46  CA        65.5900  -11.4820   -9.2190 C.3   274  GLU274      0.1699
     47  C         66.6780  -11.8230   -8.2490 C.2   274  GLU274      0.2592
     48  O         66.4020  -12.2210   -7.1220 O.2   274  GLU274     -0.2718
     49  CB        65.5200  -12.5370  -10.3220 C.3   274  GLU274      0.0402
     50  CG        65.2830  -13.9550   -9.8450 C.3   274  GLU274      0.1161
     51  CD        63.8400  -14.2340   -9.4780 C.2   274  GLU274      0.3649
     52  OE1       63.0050  -13.3080   -9.5440 O.co2 274  GLU274     -0.2457
     53  OE2       63.5320  -15.3920   -9.1240 O.co2 274  GLU274     -0.2457
     54  N         67.9220  -11.6040   -8.6400 N.am  275  THR275     -0.1953
     55  CA        68.9590  -12.0210   -7.7310 C.3   275  THR275      0.1897
     56  C         68.8960  -11.2760   -6.4170 C.2   275  THR275      0.2313
     57  O         68.9520  -11.8790   -5.3410 O.2   275  THR275     -0.2863
     58  CB        70.3440  -11.8800   -8.3670 C.3   275  THR275      0.1794
     59  OG1       70.3690  -12.6060   -9.6030 O.3   275  THR275     -0.2208
     60  CG2       71.4080  -12.4320   -7.4390 C.3   275  THR275      0.0378
     61  N         72.2780  -18.3990   -5.2310 N.3   335  LEU335     -0.1231
     62  CA        71.3220  -18.0630   -6.2830 C.3   335  LEU335      0.1693
     63  C         71.7000  -18.6480   -7.6410 C.2   335  LEU335      0.2591
     64  O         70.9020  -19.3440   -8.2670 O.2   335  LEU335     -0.2718
     65  CB        71.1640  -16.5460   -6.3910 C.3   335  LEU335      0.0284
     66  CG        69.9120  -15.9530   -5.7410 C.3   335  LEU335      0.0019
     67  CD1       68.7060  -16.1140   -6.6550 C.3   335  LEU335      0.0001
     68  CD2       69.6570  -16.5860   -4.3790 C.3   335  LEU335      0.0001
     69  N         72.9140  -18.3590   -8.0940 N.am  336  ILE336     -0.1980
     70  CA        73.3990  -18.8980   -9.3590 C.3   336  ILE336      0.1595
     71  C         74.4820  -19.9470   -9.1110 C.2   336  ILE336      0.2287
     72  O         75.6280  -19.6090   -8.8180 O.2   336  ILE336     -0.2864
     73  CB        73.9240  -17.7840  -10.2830 C.3   336  ILE336      0.0276
     74  CG1       72.8220  -16.7560  -10.5440 C.3   336  ILE336      0.0022
     75  CG2       74.4270  -18.3670  -11.5910 C.3   336  ILE336      0.0022
     76  CD1       73.0680  -15.8900  -11.7570 C.3   336  ILE336      0.0001
     77  N         77.3310  -19.1920  -15.4360 N.3   340  VAL340     -0.1245
     78  CA        76.8950  -19.1100  -16.8120 C.3   340  VAL340      0.1561
     79  C         77.7960  -19.9640  -17.6870 C.2   340  VAL340      0.2260
     80  O         79.0130  -19.9870  -17.4960 O.2   340  VAL340     -0.2867
     81  CB        76.9140  -17.6650  -17.3090 C.3   340  VAL340      0.0252
     82  CG1       77.0550  -17.6270  -18.8210 C.3   340  VAL340      0.0019
     83  CG2       75.6660  -16.9300  -16.8320 C.3   340  VAL340      0.0019
     84  N         84.7720  -12.3130  -16.5610 N.3   407  ARG407     -0.1245
     85  CA        83.3180  -12.1860  -16.6170 C.3   407  ARG407      0.1563
     86  C         82.7340  -11.9230  -15.2300 C.2   407  ARG407      0.2260
     87  O         82.6990  -12.8130  -14.3800 O.2   407  ARG407     -0.2867
     88  CB        82.6880  -13.4340  -17.2360 C.3   407  ARG407      0.0307
     89  CG        81.1620  -13.4490  -17.2990 C.3   407  ARG407      0.0489
     90  CD        80.5540  -12.2830  -18.0580 C.3   407  ARG407      0.2205
     91  NE        79.0750  -12.3630  -18.0020 N.pl3 407  ARG407     -0.0865
     92  CZ        78.3500  -11.9070  -16.9690 C.cat 407  ARG407      0.5346
     93  NH1       78.9460  -11.3510  -15.9110 N.pl3 407  ARG407      0.1354
     94  NH2       77.0180  -12.0240  -17.0530 N.pl3 407  ARG407      0.1354
     95  N         79.6170   -9.3440  -13.0130 N.3   409  CYS409     -0.1235
     96  CA        78.3870   -8.5650  -13.1300 C.3   409  CYS409      0.1677
     97  C         78.5980   -7.0610  -13.3200 C.2   409  CYS409      0.2270
     98  O         79.5540   -6.4830  -12.8040 O.2   409  CYS409     -0.2867
     99  CB        77.5050   -8.7920  -11.8990 C.3   409  CYS409      0.0956
    100  SG        77.1060  -10.5230  -11.5760 S.3   409  CYS409     -0.0801
    101  N         65.3680  -21.4810  -12.5450 N.3   450  VAL450     -0.1245
    102  CA        66.6900  -20.8600  -12.5190 C.3   450  VAL450      0.1561
    103  C         67.4940  -21.0140  -11.2300 C.2   450  VAL450      0.2260
    104  O         66.9600  -20.8490  -10.1290 O.2   450  VAL450     -0.2867
    105  CB        66.5930  -19.3230  -12.6140 C.3   450  VAL450      0.0252
    106  CG1       66.0850  -18.8940  -13.9820 C.3   450  VAL450      0.0019
    107  CG2       65.7020  -18.7800  -11.5140 C.3   450  VAL450      0.0019
@<TRIPOS>BOND
     1     1     2    1
     2     7     9   ar
     3     7     6   ar
     4     9    10   ar
     5     2     5    1
     6     2     3    1
     7     6     5    1
     8     6     8   ar
     9    10    12   ar
    10    10     8   ar
    11     3     4    2
    12    12    14   ar
    13     8    11   ar
    14    14    13   ar
    15    11    13   ar
    16    20    19    1
    17    19    16    1
    18    15    16    1
    19    16    17    1
    20    82    81    1
    21    90    91    1
    22    90    89    1
    23    91    92    2
    24    21    17   am
    25    21    22    1
    26    17    18    2
    27    79    80    2
    28    79    78    1
    29    81    83    1
    30    81    78    1
    31    89    88    1
    32    88    85    1
    33    94    92    1
    34    25    22    1
    35    25    26    1
    36    92    93    1
    37    78    77    1
    38    22    23    1
    39    85    84    1
    40    85    86    1
    41    28    26    1
    42    26    27    1
    43    23    24    2
    44    33    34    1
    45    33    30    1
    46    36    34   ar
    47    36    38   ar
    48    86    87    2
    49    29    30    1
    50    34    35   ar
    51    38    39   ar
    52    30    31    1
    53    44    41    1
    54    40    31   am
    55    40    41    1
    56    35    37   ar
    57    39    37   ar
    58   106   105    1
    59    31    32    2
    60    41    42    1
    61    97    96    1
    62    97    98    2
    63    96    95    1
    64    96    99    1
    65   105   102    1
    66   105   107    1
    67   101   102    1
    68   102   103    1
    69    42    43    2
    70    99   100    1
    71    76    74    1
    72    75    73    1
    73   103   104    2
    74    74    73    1
    75    49    50    1
    76    49    46    1
    77    73    70    1
    78    50    51    1
    79    45    46    1
    80    59    58    1
    81    52    51   ar
    82    51    53   ar
    83    70    71    1
    84    70    69    1
    85    46    47    1
    86    71    72    2
    87    54    47   am
    88    54    55    1
    89    58    55    1
    90    58    60    1
    91    64    63    2
    92    47    48    2
    93    69    63   am
    94    55    56    1
    95    63    62    1
    96    67    66    1
    97    56    57    2
    98    65    62    1
    99    65    66    1
   100    62    61    1
   101    66    68    1
