@<TRIPOS>MOLECULE
tmp/3r1bA03.pdb
 168 160 0 0 0
SMALL
GASTEIGER

@<TRIPOS>ATOM
      1  N         60.7800  -42.3790  -37.0790 N.3    88  PHE88      -0.1241
      2  CA        59.4120  -42.3730  -37.5940 C.3    88  PHE88       0.1605
      3  C         59.0820  -41.1860  -38.4870 C.2    88  PHE88       0.2264
      4  O         57.9120  -40.8780  -38.7090 O.2    88  PHE88      -0.2867
      5  CB        58.4060  -42.4480  -36.4500 C.3    88  PHE88       0.0534
      6  CG        58.0780  -43.8450  -36.0400 C.ar   88  PHE88      -0.0203
      7  CD1       57.3020  -44.6460  -36.8520 C.ar   88  PHE88      -0.0042
      8  CD2       58.5490  -44.3620  -34.8530 C.ar   88  PHE88      -0.0042
      9  CE1       56.9990  -45.9350  -36.4870 C.ar   88  PHE88      -0.0003
     10  CE2       58.2460  -45.6540  -34.4840 C.ar   88  PHE88      -0.0003
     11  CZ        57.4700  -46.4410  -35.2990 C.ar   88  PHE88      -0.0000
     12  N         58.0560  -46.2410  -42.4980 N.3    93  ARG93      -0.1245
     13  CA        58.2150  -46.7350  -41.1360 C.3    93  ARG93       0.1563
     14  C         56.8670  -46.9220  -40.4440 C.2    93  ARG93       0.2260
     15  O         56.6630  -47.8980  -39.7230 O.2    93  ARG93      -0.2867
     16  CB        59.1080  -45.7960  -40.3250 C.3    93  ARG93       0.0307
     17  CG        60.4920  -46.3540  -40.0310 C.3    93  ARG93       0.0489
     18  CD        60.4280  -47.4680  -38.9960 C.3    93  ARG93       0.2205
     19  NE        61.7560  -47.8980  -38.5660 N.pl3  93  ARG93      -0.0865
     20  CZ        62.4000  -48.9500  -39.0600 C.cat  93  ARG93       0.5346
     21  NH1       61.8380  -49.6920  -40.0050 N.pl3  93  ARG93       0.1354
     22  NH2       63.6070  -49.2640  -38.6070 N.pl3  93  ARG93       0.1354
     23  N         55.3250  -49.9930  -41.7060 N.3    96  ALA96      -0.1231
     24  CA        56.0460  -51.1090  -41.1040 C.3    96  ALA96       0.1694
     25  C         55.4850  -51.4650  -39.7330 C.2    96  ALA96       0.2591
     26  O         55.4170  -52.6380  -39.3670 O.2    96  ALA96      -0.2718
     27  CB        57.5230  -50.7890  -41.0010 C.3    96  ALA96       0.0304
     28  N         55.0840  -50.4510  -38.9740 N.am   97  LEU97      -0.1980
     29  CA        54.5260  -50.6810  -37.6480 C.3    97  LEU97       0.1596
     30  C         53.2230  -51.4740  -37.7440 C.2    97  LEU97       0.2287
     31  O         53.0060  -52.4150  -36.9810 O.2    97  LEU97      -0.2864
     32  CB        54.3030  -49.3550  -36.9170 C.3    97  LEU97       0.0297
     33  CG        54.2070  -49.4130  -35.3890 C.3    97  LEU97       0.0022
     34  CD1       52.8630  -49.9460  -34.9270 C.3    97  LEU97       0.0001
     35  CD2       55.3390  -50.2510  -34.8180 C.3    97  LEU97       0.0001
     36  N         53.6830  -55.1240  -39.0700 N.3   100  PHE100     -0.1241
     37  CA        54.2160  -56.0170  -38.0490 C.3   100  PHE100      0.1605
     38  C         53.1500  -56.4360  -37.0440 C.2   100  PHE100      0.2264
     39  O         53.1000  -57.5920  -36.6320 O.2   100  PHE100     -0.2867
     40  CB        55.3810  -55.3540  -37.3120 C.3   100  PHE100      0.0534
     41  CG        55.8580  -56.1290  -36.1170 C.ar  100  PHE100     -0.0203
     42  CD1       55.1970  -56.0310  -34.9030 C.ar  100  PHE100     -0.0042
     43  CD2       56.9660  -56.9540  -36.2050 C.ar  100  PHE100     -0.0042
     44  CE1       55.6300  -56.7430  -33.8030 C.ar  100  PHE100     -0.0003
     45  CE2       57.4050  -57.6670  -35.1060 C.ar  100  PHE100     -0.0003
     46  CZ        56.7360  -57.5600  -33.9030 C.ar  100  PHE100     -0.0000
     47  N         52.6540  -57.0190  -25.0490 N.3   156  VAL156     -0.1245
     48  CA        54.0350  -56.6470  -25.3460 C.3   156  VAL156      0.1561
     49  C         55.0630  -57.2490  -24.3850 C.2   156  VAL156      0.2260
     50  O         56.1010  -57.7500  -24.8180 O.2   156  VAL156     -0.2867
     51  CB        54.2090  -55.1190  -25.3920 C.3   156  VAL156      0.0252
     52  CG1       55.6650  -54.7620  -25.6350 C.3   156  VAL156      0.0019
     53  CG2       53.3210  -54.5210  -26.4720 C.3   156  VAL156      0.0019
     54  N         55.0020  -59.5980  -28.0000 N.3   237  PHE237     -0.1227
     55  CA        55.5790  -58.7890  -29.0670 C.3   237  PHE237      0.1736
     56  C         57.1030  -58.7390  -28.9950 C.2   237  PHE237      0.2595
     57  O         57.7790  -58.8190  -30.0210 O.2   237  PHE237     -0.2718
     58  CB        55.0010  -57.3720  -29.0400 C.3   237  PHE237      0.0547
     59  CG        53.8750  -57.1550  -30.0130 C.ar  237  PHE237     -0.0202
     60  CD1       53.9160  -56.1060  -30.9170 C.ar  237  PHE237     -0.0042
     61  CD2       52.7800  -58.0010  -30.0310 C.ar  237  PHE237     -0.0042
     62  CE1       52.8830  -55.9010  -31.8130 C.ar  237  PHE237     -0.0003
     63  CE2       51.7430  -57.8010  -30.9270 C.ar  237  PHE237     -0.0003
     64  CZ        51.7960  -56.7500  -31.8190 C.ar  237  PHE237     -0.0000
     65  N         57.6390  -58.6140  -27.7850 N.am  238  ILE238     -0.1980
     66  CA        59.0840  -58.4790  -27.6060 C.3   238  ILE238      0.1595
     67  C         59.8580  -59.6920  -28.1220 C.2   238  ILE238      0.2287
     68  O         60.8150  -59.5400  -28.8820 O.2   238  ILE238     -0.2864
     69  CB        59.4630  -58.2040  -26.1390 C.3   238  ILE238      0.0276
     70  CG1       58.9610  -56.8250  -25.7100 C.3   238  ILE238      0.0022
     71  CG2       60.9660  -58.2690  -25.9650 C.3   238  ILE238      0.0022
     72  CD1       59.5980  -55.6840  -26.4740 C.3   238  ILE238      0.0001
     73  N         60.1100  -59.8980  -31.7210 N.3   241  TYR241     -0.1241
     74  CA        61.0260  -58.9070  -32.2750 C.3   241  TYR241      0.1605
     75  C         62.4770  -59.3100  -32.0340 C.2   241  TYR241      0.2264
     76  O         63.3380  -59.0990  -32.8880 O.2   241  TYR241     -0.2867
     77  CB        60.7570  -57.5120  -31.7080 C.3   241  TYR241      0.0534
     78  CG        61.4970  -56.4220  -32.4530 C.ar  241  TYR241     -0.0201
     79  CD1       62.6240  -55.8190  -31.9090 C.ar  241  TYR241     -0.0009
     80  CD2       61.0790  -56.0140  -33.7110 C.ar  241  TYR241     -0.0009
     81  CE1       63.3020  -54.8320  -32.5940 C.ar  241  TYR241      0.0417
     82  CE2       61.7500  -55.0310  -34.4030 C.ar  241  TYR241      0.0417
     83  CZ        62.8590  -54.4430  -33.8410 C.ar  241  TYR241      0.1957
     84  OH        63.5260  -53.4600  -34.5330 O.3   241  TYR241     -0.2866
     85  N         63.9680  -61.4910  -34.3800 N.3   244  ARG244     -0.1231
     86  CA        64.1340  -60.7900  -35.6430 C.3   244  ARG244      0.1694
     87  C         65.4930  -60.1060  -35.6840 C.2   244  ARG244      0.2591
     88  O         66.1170  -60.0090  -36.7490 O.2   244  ARG244     -0.2718
     89  CB        63.0460  -59.7360  -35.7910 C.3   244  ARG244      0.0321
     90  CG        62.7050  -59.3640  -37.2110 C.3   244  ARG244      0.0489
     91  CD        61.2160  -59.0840  -37.2860 C.3   244  ARG244      0.2205
     92  NE        60.8210  -58.5230  -38.5680 N.pl3 244  ARG244     -0.0865
     93  CZ        59.5590  -58.4440  -38.9770 C.cat 244  ARG244      0.5346
     94  NH1       58.5730  -58.8980  -38.2090 N.pl3 244  ARG244      0.1354
     95  NH2       59.2760  -57.9160  -40.1580 N.pl3 244  ARG244      0.1354
     96  N         65.9480  -59.6320  -34.5240 N.am  245  MET245     -0.1979
     97  CA        67.2150  -58.9140  -34.4320 C.3   245  MET245      0.1605
     98  C         68.3350  -59.7930  -33.8890 C.2   245  MET245      0.2287
     99  O         69.4220  -59.3040  -33.5720 O.2   245  MET245     -0.2864
    100  CB        67.0600  -57.6630  -33.5690 C.3   245  MET245      0.0413
    101  CG        66.4380  -57.9070  -32.2110 C.3   245  MET245      0.0598
    102  SD        66.1480  -56.3740  -31.3070 S.3   245  MET245     -0.1393
    103  CE        65.7570  -56.9810  -29.6680 C.3   245  MET245      0.0692
    104  N         69.7990  -61.8750  -35.6600 N.3   247  LYS247     -0.1231
    105  CA        70.7460  -61.8000  -36.7640 C.3   247  LYS247      0.1693
    106  C         71.6500  -60.5840  -36.6320 C.2   247  LYS247      0.2592
    107  O         72.8510  -60.6450  -36.8810 O.2   247  LYS247     -0.2718
    108  CB        70.0140  -61.7620  -38.1040 C.3   247  LYS247      0.0285
    109  CG        69.2200  -60.4970  -38.3440 C.3   247  LYS247      0.0035
    110  CD        68.6680  -60.4650  -39.7570 C.3   247  LYS247      0.0206
    111  CE        67.8750  -59.1980  -40.0090 C.3   247  LYS247      0.1093
    112  NZ        67.3930  -59.1140  -41.4140 N.3   247  LYS247     -0.1314
    113  N         71.0370  -59.4740  -36.2360 N.am  248  ASP248     -0.1974
    114  CA        71.7080  -58.1860  -36.1100 C.3   248  ASP248      0.1709
    115  C         72.5500  -58.0780  -34.8500 C.2   248  ASP248      0.2293
    116  O         73.1510  -57.0430  -34.5830 O.2   248  ASP248     -0.2864
    117  CB        70.6900  -57.0460  -36.0520 C.3   248  ASP248      0.1436
    118  CG        70.1130  -56.7110  -37.4150 C.2   248  ASP248      0.3671
    119  OD1       70.8040  -56.9390  -38.4290 O.co2 248  ASP248     -0.2456
    120  OD2       68.9710  -56.2130  -37.4730 O.co2 248  ASP248     -0.2456
    121  N         68.3090  -50.3220  -32.2320 N.3   257  HIS257     -0.1241
    122  CA        67.1340  -51.1780  -32.0600 C.3   257  HIS257      0.1621
    123  C         66.3490  -50.8050  -30.8050 C.2   257  HIS257      0.2264
    124  O         65.2140  -50.3460  -30.8840 O.2   257  HIS257     -0.2867
    125  CB        67.5470  -52.6510  -31.9540 C.3   257  HIS257      0.0745
    126  CG        67.3410  -53.4400  -33.2090 C.ar  257  HIS257      0.0817
    127  ND1       66.1390  -53.4710  -33.8830 N.ar  257  HIS257     -0.2268
    128  CD2       68.1790  -54.2490  -33.9000 C.ar  257  HIS257      0.1154
    129  CE1       66.2500  -54.2520  -34.9420 C.ar  257  HIS257      0.1986
    130  NE2       67.4790  -54.7380  -34.9750 N.ar  257  HIS257     -0.2212
    131  N         64.4880  -47.6930  -31.1310 N.3   260  ASN260     -0.1225
    132  CA        63.3700  -47.9550  -32.0210 C.3   260  ASN260      0.1785
    133  C         62.2160  -48.5100  -31.2030 C.2   260  ASN260      0.2597
    134  O         61.0900  -48.0140  -31.2690 O.2   260  ASN260     -0.2718
    135  CB        63.7850  -48.9400  -33.1170 C.3   260  ASN260      0.1169
    136  CG        62.5920  -49.6510  -33.7730 C.2   260  ASN260      0.2627
    137  OD1       61.6090  -50.0010  -33.1170 O.2   260  ASN260     -0.2716
    138  ND2       62.6940  -49.8830  -35.0740 N.am  260  ASN260     -0.0877
    139  N         62.5170  -49.5390  -30.4200 N.am  261  LEU261     -0.1980
    140  CA        61.5110  -50.2180  -29.6190 C.3   261  LEU261      0.1596
    141  C         60.8250  -49.2980  -28.6090 C.2   261  LEU261      0.2287
    142  O         59.6040  -49.1820  -28.6190 O.2   261  LEU261     -0.2864
    143  CB        62.1090  -51.4630  -28.9470 C.3   261  LEU261      0.0297
    144  CG        61.7600  -51.8700  -27.5100 C.3   261  LEU261      0.0022
    145  CD1       60.2650  -51.8550  -27.2140 C.3   261  LEU261      0.0001
    146  CD2       62.3390  -53.2460  -27.2300 C.3   261  LEU261      0.0001
    147  N         58.0920  -46.8620  -30.0230 N.3   264  THR264     -0.1203
    148  CA        56.9900  -47.6370  -30.5910 C.3   264  THR264      0.1994
    149  C         55.9870  -48.0820  -29.5250 C.2   264  THR264      0.2617
    150  O         54.7760  -47.9460  -29.7250 O.2   264  THR264     -0.2717
    151  CB        57.4840  -48.8730  -31.3620 C.3   264  THR264      0.1784
    152  OG1       57.7690  -48.5110  -32.7150 O.3   264  THR264     -0.2211
    153  CG2       56.4220  -49.9400  -31.3890 C.3   264  THR264      0.0376
    154  N         56.5230  -48.6540  -28.4520 N.am  265  VAL265     -0.1979
    155  CA        55.7370  -49.0940  -27.3190 C.3   265  VAL265      0.1595
    156  C         55.0790  -47.9380  -26.6030 C.2   265  VAL265      0.2287
    157  O         53.9220  -48.0200  -26.2380 O.2   265  VAL265     -0.2864
    158  CB        56.6120  -49.8250  -26.2970 C.3   265  VAL265      0.0276
    159  CG1       57.8670  -49.0260  -26.0260 C.3   265  VAL265      0.0022
    160  CG2       55.8410  -50.0490  -25.0120 C.3   265  VAL265      0.0022
    161  N         52.5990  -46.5400  -29.0040 N.3   268  LEU268     -0.1245
    162  CA        51.5340  -47.5170  -29.0080 C.3   268  LEU268      0.1561
    163  C         50.8770  -47.4810  -27.6480 C.2   268  LEU268      0.2260
    164  O         49.6600  -47.4770  -27.5070 O.2   268  LEU268     -0.2867
    165  CB        52.1570  -48.8990  -29.2020 C.3   268  LEU268      0.0270
    166  CG        51.3920  -50.0370  -29.8670 C.3   268  LEU268      0.0019
    167  CD1       51.4850  -49.8890  -31.3660 C.3   268  LEU268      0.0001
    168  CD2       51.9970  -51.3560  -29.4510 C.3   268  LEU268      0.0001
@<TRIPOS>BOND
     1    12    13    1
     2    23    24    1
     3   112   111    1
     4    13    14    1
     5    13    16    1
     6    24    27    1
     7    24    25    1
     8    14    15    2
     9    16    17    1
    10    95    93    1
    11    17    18    1
    12   111   110    1
    13    21    20    1
    14   110   109    1
    15    25    26    2
    16    25    28   am
    17    36    37    1
    18    20    22    1
    19    20    19    2
    20    18    19    1
    21    93    92    2
    22    93    94    1
    23    28    29    1
    24     4     3    2
    25    92    91    1
    26     3     2    1
    27   119   118   ar
    28   109   108    1
    29   108   105    1
    30    37    40    1
    31    37    38    1
    32    30    29    1
    33    30    31    2
    34    29    32    1
    35     2     1    1
    36     2     5    1
    37   120   118   ar
    38   118   117    1
    39    40    41    1
    40    91    90    1
    41    90    89    1
    42    38    39    2
    43    32    33    1
    44   107   106    2
    45     7     9   ar
    46     7     6   ar
    47   105   106    1
    48   105   104    1
    49    88    87    2
    50   106   113   am
    51     9    11   ar
    52     5     6    1
    53   113   114    1
    54    43    41   ar
    55    43    45   ar
    56    41    42   ar
    57   114   117    1
    58   114   115    1
    59     6     8   ar
    60    89    86    1
    61    87    86    1
    62    87    96   am
    63    86    85    1
    64    33    34    1
    65    33    35    1
    66    11    10   ar
    67    45    46   ar
    68   138   136   am
    69   130   129   ar
    70   130   128   ar
    71   129   127   ar
    72    42    44   ar
    73     8    10   ar
    74   115   116    2
    75    84    83    1
    76    96    97    1
    77    97    98    1
    78    97   100    1
    79    82    83   ar
    80    82    80   ar
    81    46    44   ar
    82   128   126   ar
    83    98    99    2
    84   127   126   ar
    85    83    81   ar
    86   136   137    2
    87   136   135    1
    88    80    78   ar
    89   100   101    1
    90   126   125    1
    91   135   132    1
    92    76    75    2
    93   152   151    1
    94    81    79   ar
    95    78    79   ar
    96    78    77    1
    97    74    75    1
    98    74    73    1
    99    74    77    1
   100   121   122    1
   101   101   102    1
   102   122   125    1
   103   122   123    1
   104   132   133    1
   105   132   131    1
   106    64    62   ar
   107    64    63   ar
   108    62    60   ar
   109   153   151    1
   110   167   166    1
   111   151   148    1
   112   102   103    1
   113   134   133    2
   114   133   139   am
   115    63    61   ar
   116    60    59   ar
   117   124   123    2
   118   148   147    1
   119   148   149    1
   120   139   140    1
   121    61    59   ar
   122    57    56    2
   123    59    58    1
   124   166   168    1
   125   166   165    1
   126   150   149    2
   127   140   143    1
   128   140   141    1
   129   149   154   am
   130   165   162    1
   131    55    58    1
   132    55    56    1
   133    55    54    1
   134   162   161    1
   135   162   163    1
   136    56    65   am
   137   143   144    1
   138    68    67    2
   139   142   141    2
   140   154   155    1
   141    67    66    1
   142    65    66    1
   143   163   164    2
   144    66    69    1
   145   144   146    1
   146   144   145    1
   147   155   156    1
   148   155   158    1
   149   156   157    2
   150    72    70    1
   151    53    51    1
   152   158   159    1
   153   158   160    1
   154    69    71    1
   155    69    70    1
   156    52    51    1
   157    51    48    1
   158    48    47    1
   159    48    49    1
   160    50    49    2
