@<TRIPOS>MOLECULE
tmp/3r1bB03.pdb
 160 153 0 0 0
SMALL
GASTEIGER

@<TRIPOS>ATOM
      1  N          5.4700  -38.3330  -44.8140 N.3    93  ARG93      -0.1245
      2  CA         5.4710  -37.4410  -43.6620 C.3    93  ARG93       0.1563
      3  C          4.9200  -38.1340  -42.4210 C.2    93  ARG93       0.2260
      4  O          5.4650  -37.9920  -41.3260 O.2    93  ARG93      -0.2867
      5  CB         4.6610  -36.1780  -43.9650 C.3    93  ARG93       0.0307
      6  CG         4.4000  -35.2580  -42.7620 C.3    93  ARG93       0.0489
      7  CD         5.6800  -34.6630  -42.2310 C.3    93  ARG93       0.2205
      8  NE         5.4430  -33.8330  -41.0300 N.pl3  93  ARG93      -0.0865
      9  CZ         5.3710  -34.2980  -39.7810 C.cat  93  ARG93       0.5346
     10  NH1        5.4950  -35.6060  -39.5290 N.pl3  93  ARG93       0.1354
     11  NH2        5.3050  -33.4340  -38.7740 N.pl3  93  ARG93       0.1354
     12  N          7.4310  -40.2620  -41.1050 N.3    96  ALA96      -0.1231
     13  CA         8.4200  -39.3870  -40.4880 C.3    96  ALA96       0.1694
     14  C          8.0390  -38.9960  -39.0620 C.2    96  ALA96       0.2591
     15  O          8.9080  -38.7200  -38.2360 O.2    96  ALA96      -0.2718
     16  CB         8.6270  -38.1430  -41.3400 C.3    96  ALA96       0.0304
     17  N          6.7400  -38.9720  -38.7800 N.am   97  LEU97      -0.1980
     18  CA         6.2550  -38.5990  -37.4540 C.3    97  LEU97       0.1596
     19  C          6.3640  -39.7550  -36.4610 C.2    97  LEU97       0.2287
     20  O          6.7920  -39.5630  -35.3220 O.2    97  LEU97      -0.2864
     21  CB         4.8130  -38.0970  -37.5260 C.3    97  LEU97       0.0297
     22  CG         4.1780  -37.7090  -36.1880 C.3    97  LEU97       0.0022
     23  CD1        4.9590  -36.5880  -35.5250 C.3    97  LEU97       0.0001
     24  CD2        2.7210  -37.3130  -36.3780 C.3    97  LEU97       0.0001
     25  N         10.0430  -40.1230  -35.4090 N.3   100  PHE100     -0.1241
     26  CA        10.4350  -39.1370  -34.4090 C.3   100  PHE100      0.1605
     27  C          9.8990  -39.4790  -33.0230 C.2   100  PHE100      0.2264
     28  O         10.6480  -39.4980  -32.0460 O.2   100  PHE100     -0.2867
     29  CB         9.9620  -37.7360  -34.8050 C.3   100  PHE100      0.0534
     30  CG        10.2920  -36.6790  -33.7860 C.ar  100  PHE100     -0.0203
     31  CD1        9.4410  -36.4340  -32.7200 C.ar  100  PHE100     -0.0042
     32  CD2       11.4590  -35.9400  -33.8880 C.ar  100  PHE100     -0.0042
     33  CE1        9.7450  -35.4700  -31.7780 C.ar  100  PHE100     -0.0003
     34  CE2       11.7670  -34.9730  -32.9490 C.ar  100  PHE100     -0.0003
     35  CZ        10.9090  -34.7390  -31.8920 C.ar  100  PHE100     -0.0000
     36  N          4.9940  -32.7560  -24.3610 N.3   156  VAL156     -0.1245
     37  CA         5.3580  -31.8170  -25.4180 C.3   156  VAL156      0.1561
     38  C          5.8340  -30.4660  -24.8830 C.2   156  VAL156      0.2260
     39  O          6.7960  -29.8930  -25.3960 O.2   156  VAL156     -0.2867
     40  CB         4.1960  -31.5940  -26.4030 C.3   156  VAL156      0.0252
     41  CG1        4.6300  -30.6720  -27.5280 C.3   156  VAL156      0.0019
     42  CG2        3.7220  -32.9200  -26.9640 C.3   156  VAL156      0.0019
     43  N          9.4450  -32.8410  -25.8560 N.3   237  PHE237     -0.1227
     44  CA         9.3630  -32.9790  -27.3060 C.3   237  PHE237      0.1736
     45  C          9.7930  -31.7240  -28.0580 C.2   237  PHE237      0.2595
     46  O         10.6280  -31.7930  -28.9580 O.2   237  PHE237     -0.2718
     47  CB         7.9450  -33.3730  -27.7210 C.3   237  PHE237      0.0547
     48  CG         7.7670  -34.8460  -27.9420 C.ar  237  PHE237     -0.0202
     49  CD1        6.9950  -35.3130  -28.9920 C.ar  237  PHE237     -0.0042
     50  CD2        8.3790  -35.7640  -27.1070 C.ar  237  PHE237     -0.0042
     51  CE1        6.8290  -36.6680  -29.1990 C.ar  237  PHE237     -0.0003
     52  CE2        8.2190  -37.1210  -27.3110 C.ar  237  PHE237     -0.0003
     53  CZ         7.4430  -37.5730  -28.3580 C.ar  237  PHE237     -0.0000
     54  N          9.2210  -30.5810  -27.6950 N.am  238  ILE238     -0.1980
     55  CA         9.5330  -29.3350  -28.3880 C.3   238  ILE238      0.1595
     56  C         11.0270  -29.0090  -28.3370 C.2   238  ILE238      0.2287
     57  O         11.6160  -28.6180  -29.3450 O.2   238  ILE238     -0.2864
     58  CB         8.7090  -28.1530  -27.8500 C.3   238  ILE238      0.0276
     59  CG1        7.2180  -28.4070  -28.0750 C.3   238  ILE238      0.0022
     60  CG2        9.1240  -26.8620  -28.5350 C.3   238  ILE238      0.0022
     61  CD1        6.3400  -27.2100  -27.7780 C.3   238  ILE238      0.0001
     62  N         12.8970  -31.1480  -30.7380 N.3   241  TYR241     -0.1241
     63  CA        12.6680  -30.7050  -32.1060 C.3   241  TYR241      0.1605
     64  C         13.5000  -29.4640  -32.4170 C.2   241  TYR241      0.2264
     65  O         14.1470  -29.3870  -33.4610 O.2   241  TYR241     -0.2867
     66  CB        11.1860  -30.4380  -32.3620 C.3   241  TYR241      0.0534
     67  CG        10.8660  -30.2180  -33.8230 C.ar  241  TYR241     -0.0201
     68  CD1       10.4760  -28.9700  -34.2900 C.ar  241  TYR241     -0.0009
     69  CD2       10.9720  -31.2560  -34.7370 C.ar  241  TYR241     -0.0009
     70  CE1       10.1880  -28.7680  -35.6270 C.ar  241  TYR241      0.0417
     71  CE2       10.6890  -31.0640  -36.0740 C.ar  241  TYR241      0.0417
     72  CZ        10.2960  -29.8190  -36.5150 C.ar  241  TYR241      0.1957
     73  OH        10.0120  -29.6270  -37.8480 O.3   241  TYR241     -0.2866
     74  N         17.1530  -29.9440  -33.6200 N.3   244  ARG244     -0.1245
     75  CA        17.4460  -30.2500  -35.0160 C.3   244  ARG244      0.1563
     76  C         16.9770  -29.1290  -35.9340 C.2   244  ARG244      0.2260
     77  O         17.1280  -29.2050  -37.1530 O.2   244  ARG244     -0.2867
     78  CB        16.8360  -31.5880  -35.4400 C.3   244  ARG244      0.0307
     79  CG        15.3640  -31.5410  -35.7970 C.3   244  ARG244      0.0489
     80  CD        14.8860  -32.9170  -36.2340 C.3   244  ARG244      0.2205
     81  NE        15.1760  -33.9300  -35.2220 N.pl3 244  ARG244     -0.0865
     82  CZ        14.9460  -35.2310  -35.3730 C.cat 244  ARG244      0.5346
     83  NH1       14.4210  -35.6870  -36.5020 N.pl3 244  ARG244      0.1354
     84  NH2       15.2430  -36.0760  -34.3950 N.pl3 244  ARG244      0.1354
     85  N         19.9950  -26.1470  -36.9770 N.3   247  LYS247     -0.1231
     86  CA        20.7650  -26.2700  -38.2060 C.3   247  LYS247      0.1693
     87  C         20.3620  -25.1680  -39.1810 C.2   247  LYS247      0.2592
     88  O         21.1240  -24.8070  -40.0790 O.2   247  LYS247     -0.2718
     89  CB        20.5400  -27.6410  -38.8500 C.3   247  LYS247      0.0285
     90  CG        20.7750  -28.7840  -37.8980 C.3   247  LYS247      0.0035
     91  CD        22.2290  -29.1080  -37.7770 C.3   247  LYS247      0.0206
     92  CE        22.5240  -30.3180  -36.9020 C.3   247  LYS247      0.1093
     93  NZ        22.0050  -30.2350  -35.5420 N.3   247  LYS247     -0.1314
     94  N         19.1630  -24.6290  -38.9870 N.am  248  ASP248     -0.1974
     95  CA        18.5970  -23.6550  -39.9130 C.3   248  ASP248      0.1709
     96  C         18.0840  -22.4020  -39.2100 C.2   248  ASP248      0.2293
     97  O         17.0550  -21.8470  -39.5970 O.2   248  ASP248     -0.2864
     98  CB        17.4600  -24.2920  -40.7130 C.3   248  ASP248      0.1436
     99  CG        17.8910  -25.5530  -41.4330 C.2   248  ASP248      0.3671
    100  OD1       19.0400  -25.5960  -41.9210 O.co2 248  ASP248     -0.2456
    101  OD2       17.0810  -26.5010  -41.5070 O.co2 248  ASP248     -0.2456
    102  N          8.4540  -21.8320  -41.0070 N.3   256  PHE256     -0.1227
    103  CA         7.8900  -23.0190  -41.6450 C.3   256  PHE256      0.1736
    104  C          7.7010  -24.1680  -40.6580 C.2   256  PHE256      0.2595
    105  O          6.7070  -24.8930  -40.7090 O.2   256  PHE256     -0.2718
    106  CB         8.7810  -23.4900  -42.7930 C.3   256  PHE256      0.0547
    107  CG         8.6870  -24.9650  -43.0550 C.ar  256  PHE256     -0.0202
    108  CD1        7.7320  -25.4690  -43.9230 C.ar  256  PHE256     -0.0042
    109  CD2        9.5440  -25.8500  -42.4200 C.ar  256  PHE256     -0.0042
    110  CE1        7.6400  -26.8290  -44.1580 C.ar  256  PHE256     -0.0003
    111  CE2        9.4560  -27.2100  -42.6510 C.ar  256  PHE256     -0.0003
    112  CZ         8.5040  -27.7000  -43.5210 C.ar  256  PHE256     -0.0000
    113  N          8.6780  -24.3370  -39.7740 N.am  257  HIS257     -0.1975
    114  CA         8.6400  -25.3860  -38.7660 C.3   257  HIS257      0.1656
    115  C          7.4890  -25.1470  -37.7790 C.2   257  HIS257      0.2291
    116  O          6.6260  -26.0060  -37.6170 O.2   257  HIS257     -0.2864
    117  CB         9.9750  -25.4570  -38.0200 C.3   257  HIS257      0.0771
    118  CG        11.0530  -26.2090  -38.7450 C.ar  257  HIS257      0.0820
    119  ND1       11.6030  -27.3710  -38.2490 N.ar  257  HIS257     -0.2267
    120  CD2       11.7070  -25.9490  -39.9020 C.ar  257  HIS257      0.1154
    121  CE1       12.5410  -27.8020  -39.0750 C.ar  257  HIS257      0.1986
    122  NE2       12.6220  -26.9560  -40.0870 N.ar  257  HIS257     -0.2212
    123  N          4.0900  -26.4520  -39.1920 N.3   260  ASN260     -0.1225
    124  CA         3.7860  -27.8500  -38.8620 C.3   260  ASN260      0.1785
    125  C          3.6650  -28.2310  -37.3940 C.2   260  ASN260      0.2597
    126  O          2.9970  -29.2030  -37.0420 O.2   260  ASN260     -0.2718
    127  CB         4.9460  -28.7640  -39.3010 C.3   260  ASN260      0.1169
    128  CG         5.1770  -29.9520  -38.3570 C.2   260  ASN260      0.2627
    129  OD1        4.3350  -30.2920  -37.5240 O.2   260  ASN260     -0.2716
    130  ND2        6.3380  -30.5860  -38.4950 N.am  260  ASN260     -0.0877
    131  N          4.3220  -27.4530  -36.5420 N.am  261  LEU261     -0.1980
    132  CA         4.3720  -27.7410  -35.1110 C.3   261  LEU261      0.1596
    133  C          2.9280  -27.8760  -34.6360 C.2   261  LEU261      0.2287
    134  O          2.5900  -28.8020  -33.8960 O.2   261  LEU261     -0.2864
    135  CB         5.0440  -26.5620  -34.4040 C.3   261  LEU261      0.0297
    136  CG         5.4780  -26.6780  -32.9370 C.3   261  LEU261      0.0022
    137  CD1        4.3470  -27.1590  -32.0350 C.3   261  LEU261      0.0001
    138  CD2        6.7000  -27.5770  -32.7940 C.3   261  LEU261      0.0001
    139  N          0.8370  -31.0790  -35.9690 N.3   264  THR264     -0.1203
    140  CA         1.1200  -32.2860  -35.2050 C.3   264  THR264      0.1994
    141  C          0.5050  -32.2280  -33.8120 C.2   264  THR264      0.2617
    142  O         -0.2500  -33.1160  -33.4240 O.2   264  THR264     -0.2717
    143  CB         2.6320  -32.5320  -35.0820 C.3   264  THR264      0.1784
    144  OG1        3.2010  -32.6770  -36.3890 O.3   264  THR264     -0.2211
    145  CG2        2.8980  -33.7910  -34.2770 C.3   264  THR264      0.0376
    146  N          0.8340  -31.1830  -33.0610 N.am  265  VAL265     -0.1979
    147  CA         0.2850  -31.0120  -31.7200 C.3   265  VAL265      0.1595
    148  C         -1.2380  -31.0280  -31.7470 C.2   265  VAL265      0.2287
    149  O         -1.8740  -31.7080  -30.9450 O.2   265  VAL265     -0.2864
    150  CB         0.7690  -29.7050  -31.0660 C.3   265  VAL265      0.0276
    151  CG1        0.0280  -29.4600  -29.7640 C.3   265  VAL265      0.0022
    152  CG2        2.2670  -29.7600  -30.8250 C.3   265  VAL265      0.0022
    153  N         -2.2820  -34.5720  -32.4070 N.3   268  LEU268     -0.1245
    154  CA        -2.1520  -35.4010  -31.2090 C.3   268  LEU268      0.1561
    155  C         -3.2650  -35.0890  -30.2100 C.2   268  LEU268      0.2260
    156  O         -3.9990  -35.9830  -29.7900 O.2   268  LEU268     -0.2867
    157  CB        -0.7740  -35.2270  -30.5530 C.3   268  LEU268      0.0270
    158  CG         0.4620  -35.6860  -31.3430 C.3   268  LEU268      0.0019
    159  CD1        1.7330  -35.5990  -30.5020 C.3   268  LEU268      0.0001
    160  CD2        0.2850  -37.1010  -31.8740 C.3   268  LEU268      0.0001
@<TRIPOS>BOND
     1     1     2    1
     2   110   108   ar
     3   110   112   ar
     4     5     2    1
     5     5     6    1
     6   108   107   ar
     7     2     3    1
     8   112   111   ar
     9   107   106    1
    10   107   109   ar
    11   106   103    1
    12     6     7    1
    13   111   109   ar
    14     3     4    2
    15     7     8    1
    16   100    99   ar
    17   103   102    1
    18   103   104    1
    19   101    99   ar
    20    99    98    1
    21    16    13    1
    22    12    13    1
    23     8     9    2
    24    98    95    1
    25   105   104    2
    26   104   113   am
    27    13    14    1
    28   122   120   ar
    29   122   121   ar
    30    88    87    2
    31    95    96    1
    32    95    94    1
    33   120   118   ar
    34     9    10    1
    35     9    11    1
    36   113   114    1
    37    97    96    2
    38   127   124    1
    39   127   128    1
    40   123   124    1
    41    87    94   am
    42    87    86    1
    43   121   119   ar
    44    14    17   am
    45    14    15    2
    46   124   125    1
    47    89    86    1
    48    89    90    1
    49    17    18    1
    50   114   117    1
    51   114   115    1
    52   118   119   ar
    53   118   117    1
    54   130   128   am
    55   128   129    2
    56    86    85    1
    57    90    91    1
    58    73    72    1
    59   115   116    2
    60    91    92    1
    61    21    18    1
    62    21    22    1
    63    18    19    1
    64   125   126    2
    65   125   131   am
    66    77    76    2
    67    92    93    1
    68   131   132    1
    69    72    71   ar
    70    72    70   ar
    71    83    82    1
    72    19    20    2
    73   144   143    1
    74    24    22    1
    75    80    79    1
    76    80    81    1
    77    22    23    1
    78    71    69   ar
    79   139   140    1
    80    76    75    1
    81    79    78    1
    82    70    68   ar
    83    78    75    1
    84    25    26    1
    85    82    81    2
    86    82    84    1
    87   140   143    1
    88   140   141    1
    89   132   133    1
    90   132   135    1
    91   143   145    1
    92    75    74    1
    93    29    26    1
    94    29    30    1
    95    69    67   ar
    96   133   134    2
    97    26    27    1
    98   135   136    1
    99    68    67   ar
   100    32    30   ar
   101    32    34   ar
   102    67    66    1
   103   141   142    2
   104   141   146   am
   105    30    31   ar
   106    65    64    2
   107   146   147    1
   108    27    28    2
   109    34    35   ar
   110   136   138    1
   111   136   137    1
   112    31    33   ar
   113    64    63    1
   114   153   154    1
   115    66    63    1
   116    63    62    1
   117    35    33   ar
   118   160   158    1
   119   148   147    1
   120   148   149    2
   121   147   150    1
   122   158   157    1
   123   158   159    1
   124   154   157    1
   125   154   155    1
   126   150   152    1
   127   150   151    1
   128   155   156    2
   129    57    56    2
   130    51    49   ar
   131    51    53   ar
   132    49    48   ar
   133    46    45    2
   134    60    58    1
   135    55    56    1
   136    55    58    1
   137    55    54    1
   138    53    52   ar
   139    59    58    1
   140    59    61    1
   141    45    54   am
   142    45    44    1
   143    48    47    1
   144    48    50   ar
   145    47    44    1
   146    41    40    1
   147    52    50   ar
   148    44    43    1
   149    42    40    1
   150    40    37    1
   151    37    38    1
   152    37    36    1
   153    39    38    2
