@<TRIPOS>MOLECULE
tmp/3r1bD03.pdb
 120 111 0 0 0
SMALL
GASTEIGER

@<TRIPOS>ATOM
      1  N         76.1520    3.6840  -19.2720 N.3   101  SER101     -0.1202
      2  CA        75.5590    3.9120  -17.9540 C.3   101  SER101      0.2020
      3  C         76.5160    4.6420  -17.0300 C.2   101  SER101      0.2618
      4  O         76.2760    5.7850  -16.6410 O.2   101  SER101     -0.2717
      5  CB        75.1850    2.5770  -17.3120 C.3   101  SER101      0.2103
      6  OG        74.5130    1.7370  -18.2340 O.3   101  SER101     -0.2182
      7  N         77.5910    3.9530  -16.6680 N.am  102  LEU102     -0.1979
      8  CA        78.6760    4.5390  -15.8960 C.3   102  LEU102      0.1596
      9  C         78.9500    5.9960  -16.2680 C.2   102  LEU102      0.2287
     10  O         78.9780    6.8750  -15.4050 O.2   102  LEU102     -0.2864
     11  CB        79.9410    3.7150  -16.1100 C.3   102  LEU102      0.0297
     12  CG        81.0690    3.7700  -15.1010 C.3   102  LEU102      0.0022
     13  CD1       80.6420    3.2430  -13.7370 C.3   102  LEU102      0.0001
     14  CD2       82.2570    2.9600  -15.6280 C.3   102  LEU102      0.0001
     15  N         75.9140    8.9240  -15.3750 N.3   105  MET105     -0.1230
     16  CA        75.5910    9.3670  -14.0210 C.3   105  MET105      0.1702
     17  C         76.5220   10.4650  -13.4930 C.2   105  MET105      0.2592
     18  O         76.1350   11.2110  -12.5870 O.2   105  MET105     -0.2718
     19  CB        75.5920    8.1820  -13.0510 C.3   105  MET105      0.0401
     20  CG        74.4130    7.2250  -13.2190 C.3   105  MET105      0.0596
     21  SD        72.7870    7.9590  -12.9280 S.3   105  MET105     -0.1393
     22  CE        72.8810    8.3290  -11.1810 C.3   105  MET105      0.0692
     23  N         77.7360   10.5620  -14.0420 N.am  106  ARG106     -0.1980
     24  CA        78.6640   11.6390  -13.6720 C.3   106  ARG106      0.1597
     25  C         78.4080   12.8970  -14.5000 C.2   106  ARG106      0.2287
     26  O         78.4830   14.0170  -13.9840 O.2   106  ARG106     -0.2864
     27  CB        80.1300   11.2230  -13.8630 C.3   106  ARG106      0.0334
     28  CG        80.6250   11.3550  -15.3010 C.3   106  ARG106      0.0492
     29  CD        82.1300   11.1620  -15.4750 C.3   106  ARG106      0.2205
     30  NE        82.4320   10.9410  -16.8860 N.pl3 106  ARG106     -0.0865
     31  CZ        82.8700    9.7840  -17.3730 C.cat 106  ARG106      0.5346
     32  NH1       83.0870    8.7540  -16.5600 N.pl3 106  ARG106      0.1354
     33  NH2       83.1090    9.6550  -18.6700 N.pl3 106  ARG106      0.1354
     34  N         73.5790   13.9890  -11.3080 N.3   110  MET110     -0.1245
     35  CA        72.7240   13.2870  -10.3640 C.3   110  MET110      0.1570
     36  C         73.4210   13.2740   -9.0120 C.2   110  MET110      0.2261
     37  O         73.9780   12.2570   -8.5960 O.2   110  MET110     -0.2867
     38  CB        72.4240   11.8680  -10.8310 C.3   110  MET110      0.0387
     39  CG        71.8650   11.8200  -12.2320 C.3   110  MET110      0.0595
     40  SD        70.5180   12.9990  -12.4390 S.3   110  MET110     -0.1393
     41  CE        70.2520   12.8790  -14.2060 C.3   110  MET110      0.0692
     42  N         71.7140   10.7290   -6.1810 N.3   114  SER114     -0.1202
     43  CA        72.7650    9.7730   -6.4970 C.3   114  SER114      0.2020
     44  C         72.1920    8.3660   -6.6200 C.2   114  SER114      0.2618
     45  O         70.9870    8.1680   -6.4790 O.2   114  SER114     -0.2717
     46  CB        73.8410    9.8150   -5.4080 C.3   114  SER114      0.2103
     47  OG        74.3240    8.5210   -5.0960 O.3   114  SER114     -0.2182
     48  N         73.0540    7.3930   -6.8950 N.am  115  VAL115     -0.1979
     49  CA        72.6420    5.9950   -6.9070 C.3   115  VAL115      0.1595
     50  C         72.4600    5.4850   -5.4810 C.2   115  VAL115      0.2287
     51  O         71.4270    4.9010   -5.1490 O.2   115  VAL115     -0.2864
     52  CB        73.6560    5.1060   -7.6530 C.3   115  VAL115      0.0276
     53  CG1       73.6240    3.6840   -7.1140 C.3   115  VAL115      0.0022
     54  CG2       73.3760    5.1260   -9.1490 C.3   115  VAL115      0.0022
     55  N         64.7810    1.2630   -8.0760 N.3   151  ILE151     -0.1231
     56  CA        66.1100    1.7470   -8.4390 C.3   151  ILE151      0.1692
     57  C         66.2250    1.9250   -9.9510 C.2   151  ILE151      0.2591
     58  O         66.5920    2.9970  -10.4330 O.2   151  ILE151     -0.2718
     59  CB        67.2150    0.7970   -7.9390 C.3   151  ILE151      0.0266
     60  CG1       67.1080    0.6170   -6.4240 C.3   151  ILE151      0.0019
     61  CG2       68.5940    1.3140   -8.3330 C.3   151  ILE151      0.0020
     62  CD1       66.8580    1.9090   -5.6790 C.3   151  ILE151      0.0001
     63  N         65.9030    0.8730  -10.6960 N.am  152  ILE152     -0.1980
     64  CA        65.9110    0.9420  -12.1520 C.3   152  ILE152      0.1595
     65  C         64.8850    1.9570  -12.6570 C.2   152  ILE152      0.2287
     66  O         65.1410    2.6850  -13.6130 O.2   152  ILE152     -0.2864
     67  CB        65.6420   -0.4360  -12.8000 C.3   152  ILE152      0.0276
     68  CG1       66.8530   -1.3600  -12.6360 C.3   152  ILE152      0.0022
     69  CG2       65.3100   -0.2780  -14.2750 C.3   152  ILE152      0.0022
     70  CD1       66.9770   -1.9880  -11.2640 C.3   152  ILE152      0.0001
     71  N         66.3950    5.5370  -11.8780 N.3   155  ILE155     -0.1231
     72  CA        67.5020    5.8710  -12.7640 C.3   155  ILE155      0.1692
     73  C         67.0870    5.9310  -14.2300 C.2   155  ILE155      0.2591
     74  O         67.5630    6.7800  -14.9820 O.2   155  ILE155     -0.2718
     75  CB        68.6510    4.8620  -12.6170 C.3   155  ILE155      0.0266
     76  CG1       69.1500    4.8300  -11.1720 C.3   155  ILE155      0.0019
     77  CG2       69.7830    5.2100  -13.5640 C.3   155  ILE155      0.0020
     78  CD1       70.2700    3.8370  -10.9330 C.3   155  ILE155      0.0001
     79  N         66.1970    5.0320  -14.6350 N.am  156  VAL156     -0.1980
     80  CA        65.8390    4.9130  -16.0450 C.3   156  VAL156      0.1595
     81  C         64.5810    5.6930  -16.4330 C.2   156  VAL156      0.2287
     82  O         64.5460    6.3340  -17.4830 O.2   156  VAL156     -0.2864
     83  CB        65.6820    3.4370  -16.4700 C.3   156  VAL156      0.0276
     84  CG1       65.4420    3.3410  -17.9680 C.3   156  VAL156      0.0022
     85  CG2       66.9170    2.6380  -16.0740 C.3   156  VAL156      0.0022
     86  N         67.7470    8.1630  -17.7300 N.3   237  PHE237     -0.1241
     87  CA        68.4710    7.4610  -18.7850 C.3   237  PHE237      0.1605
     88  C         67.7860    7.5420  -20.1480 C.2   237  PHE237      0.2264
     89  O         68.4550    7.6390  -21.1770 O.2   237  PHE237     -0.2867
     90  CB        68.7150    5.9990  -18.4040 C.3   237  PHE237      0.0534
     91  CG        69.9440    5.7890  -17.5660 C.ar  237  PHE237     -0.0203
     92  CD1       70.5240    4.5360  -17.4660 C.ar  237  PHE237     -0.0042
     93  CD2       70.5170    6.8430  -16.8760 C.ar  237  PHE237     -0.0042
     94  CE1       71.6560    4.3390  -16.6990 C.ar  237  PHE237     -0.0003
     95  CE2       71.6470    6.6520  -16.1050 C.ar  237  PHE237     -0.0003
     96  CZ        72.2170    5.3990  -16.0160 C.ar  237  PHE237     -0.0000
     97  N         68.2890   -6.8400  -17.8900 N.3   268  LEU268     -0.1245
     98  CA        69.0150   -6.2660  -16.7940 C.3   268  LEU268      0.1561
     99  C         68.0450   -6.2840  -15.6610 C.2   268  LEU268      0.2260
    100  O         68.3510   -6.7320  -14.5550 O.2   268  LEU268     -0.2867
    101  CB        69.5120   -4.8370  -16.9990 C.3   268  LEU268      0.0270
    102  CG        69.5030   -3.9420  -15.7600 C.3   268  LEU268      0.0019
    103  CD1       70.2980   -4.5620  -14.6240 C.3   268  LEU268      0.0001
    104  CD2       70.0310   -2.5620  -16.1020 C.3   268  LEU268      0.0001
    105  N         77.6880   -6.4410  -14.0670 N.3   410  LEU410     -0.1245
    106  CA        77.5720   -4.9890  -14.1200 C.3   410  LEU410      0.1561
    107  C         76.9210   -4.5530  -12.8140 C.2   410  LEU410      0.2260
    108  O         76.8150   -3.3580  -12.5310 O.2   410  LEU410     -0.2867
    109  CB        76.6810   -4.5760  -15.3040 C.3   410  LEU410      0.0270
    110  CG        76.5000   -3.1400  -15.8330 C.3   410  LEU410      0.0019
    111  CD1       75.6240   -3.1130  -17.0830 C.3   410  LEU410      0.0001
    112  CD2       75.9070   -2.2140  -14.8010 C.3   410  LEU410      0.0001
    113  N         76.3320   -2.6460   -7.3260 N.3   414  ILE414     -0.1245
    114  CA        75.0010   -2.1920   -6.9380 C.3   414  ILE414      0.1561
    115  C         74.2740   -3.2320   -6.0840 C.2   414  ILE414      0.2260
    116  O         73.5720   -2.8840   -5.1370 O.2   414  ILE414     -0.2867
    117  CB        74.1420   -1.8300   -8.1670 C.3   414  ILE414      0.0252
    118  CG1       72.9700   -0.9390   -7.7590 C.3   414  ILE414      0.0019
    119  CG2       73.6560   -3.0830   -8.8750 C.3   414  ILE414      0.0019
    120  CD1       72.0820   -0.5500   -8.9110 C.3   414  ILE414      0.0001
@<TRIPOS>BOND
     1    89    88    2
     2    88    87    1
     3     1     2    1
     4    87    90    1
     5    87    86    1
     6    33    31    1
     7    90    91    1
     8     6     5    1
     9    84    83    1
    10     2     5    1
    11     2     3    1
    12    97    98    1
    13    91    92   ar
    14    91    93   ar
    15    82    81    2
    16    92    94   ar
    17    31    30    2
    18    31    32    1
    19   111   110    1
    20     3     7   am
    21     3     4    2
    22   101    98    1
    23   101   102    1
    24    30    29    1
    25    93    95   ar
    26    98    99    1
    27    94    96   ar
    28     7     8    1
    29    83    85    1
    30    83    80    1
    31    81    80    1
    32     9     8    1
    33     9    10    2
    34    11     8    1
    35    11    12    1
    36    95    96   ar
    37   104   102    1
    38    80    79    1
    39   110   109    1
    40   110   112    1
    41   102   103    1
    42    99   100    2
    43    14    12    1
    44    29    28    1
    45    15    16    1
    46   109   106    1
    47    28    27    1
    48    12    13    1
    49    74    73    2
    50    79    73   am
    51    25    26    2
    52    25    24    1
    53    69    67    1
    54    73    72    1
    55    41    40    1
    56   106   105    1
    57   106   107    1
    58    23    24    1
    59    23    17   am
    60    16    17    1
    61    16    19    1
    62    27    24    1
    63    66    65    2
    64    77    75    1
    65    17    18    2
    66    20    19    1
    67    20    21    1
    68    21    22    1
    69   107   108    2
    70    67    68    1
    71    67    64    1
    72    72    75    1
    73    72    71    1
    74    65    64    1
    75    68    70    1
    76    75    76    1
    77    40    39    1
    78    39    38    1
    79    64    63    1
    80    34    35    1
    81    76    78    1
    82    38    35    1
    83    63    57   am
    84    58    57    2
    85    35    36    1
    86    57    56    1
    87    54    52    1
    88    36    37    2
    89   120   118    1
    90   119   117    1
    91    56    55    1
    92    56    59    1
    93    61    59    1
    94   117   118    1
    95   117   114    1
    96    59    60    1
    97    52    53    1
    98    52    49    1
    99   113   114    1
   100   114   115    1
   101    49    48    1
   102    49    50    1
   103    48    44   am
   104    44    43    1
   105    44    45    2
   106    43    42    1
   107    43    46    1
   108    60    62    1
   109   115   116    2
   110    50    51    2
   111    46    47    1
