@<TRIPOS>MOLECULE
tmp/3r1bC01.pdb
 80 75 0 0 0
SMALL
GASTEIGER

@<TRIPOS>ATOM
      1  N        -22.4140   -8.7220  -62.6320 N.3    71  ARG71      -0.1245
      2  CA       -22.5710   -9.4630  -61.3870 C.3    71  ARG71       0.1563
      3  C        -21.3620   -9.3460  -60.4620 C.2    71  ARG71       0.2260
      4  O        -20.2650   -9.0010  -60.8980 O.2    71  ARG71      -0.2867
      5  CB       -22.8590  -10.9390  -61.6870 C.3    71  ARG71       0.0307
      6  CG       -22.9810  -11.8340  -60.4560 C.3    71  ARG71       0.0489
      7  CD       -24.1930  -11.4730  -59.6030 C.3    71  ARG71       0.2205
      8  NE       -24.1630  -10.0820  -59.1600 N.pl3  71  ARG71      -0.0865
      9  CZ       -25.0450   -9.5360  -58.3310 C.cat  71  ARG71       0.5346
     10  NH1      -26.0380  -10.2660  -57.8400 N.pl3  71  ARG71       0.1354
     11  NH2      -24.9320   -8.2590  -57.9910 N.pl3  71  ARG71       0.1354
     12  N        -23.8400  -24.0250  -60.6710 N.3    84  TYR84      -0.1241
     13  CA       -24.5050  -22.7620  -60.3620 C.3    84  TYR84       0.1605
     14  C        -23.7950  -21.5850  -61.0210 C.2    84  TYR84       0.2264
     15  O        -24.4260  -20.7440  -61.6630 O.2    84  TYR84      -0.2867
     16  CB       -24.5800  -22.5500  -58.8490 C.3    84  TYR84       0.0534
     17  CG       -25.2900  -21.2920  -58.4260 C.ar   84  TYR84      -0.0201
     18  CD1      -26.6180  -21.0890  -58.7140 C.ar   84  TYR84      -0.0009
     19  CD2      -24.6390  -20.3050  -57.7600 C.ar   84  TYR84      -0.0009
     20  CE1      -27.2950  -19.9360  -58.3450 C.ar   84  TYR84       0.0417
     21  CE2      -25.2980  -19.1310  -57.3920 C.ar   84  TYR84       0.0417
     22  CZ       -26.6090  -18.9820  -57.6390 C.ar   84  TYR84       0.1957
     23  OH       -27.2370  -17.7950  -57.2620 O.3    84  TYR84      -0.2866
     24  N        -33.9720  -19.7550  -56.1950 N.3   258  SER258     -0.1217
     25  CA       -33.3160  -18.4840  -55.9790 C.3   258  SER258      0.1889
     26  C        -34.3370  -17.3630  -55.9720 C.2   258  SER258      0.2288
     27  O        -34.2090  -16.4070  -55.2110 O.2   258  SER258     -0.2866
     28  CB       -32.3510  -18.1920  -57.1250 C.3   258  SER258      0.2089
     29  OG       -31.8610  -16.8680  -57.0550 O.3   258  SER258     -0.2183
     30  N        -36.6080  -18.2090  -52.6330 N.3   261  PHE261     -0.1227
     31  CA       -36.0400  -17.9510  -51.3220 C.3   261  PHE261      0.1736
     32  C        -35.8190  -16.4710  -51.0410 C.2   261  PHE261      0.2595
     33  O        -36.1520  -15.9820  -49.9660 O.2   261  PHE261     -0.2718
     34  CB       -34.7230  -18.7110  -51.1370 C.3   261  PHE261      0.0547
     35  CG       -33.8970  -18.4010  -49.9140 C.ar  261  PHE261     -0.0202
     36  CD1      -33.2100  -17.2300  -49.7320 C.ar  261  PHE261     -0.0042
     37  CD2      -33.6420  -19.4460  -48.9860 C.ar  261  PHE261     -0.0042
     38  CE1      -32.3430  -17.0310  -48.6930 C.ar  261  PHE261     -0.0003
     39  CE2      -32.7780  -19.2450  -47.9390 C.ar  261  PHE261     -0.0003
     40  CZ       -32.1030  -18.0550  -47.8010 C.ar  261  PHE261     -0.0000
     41  N        -35.2450  -15.7600  -52.0020 N.am  262  ALA262     -0.1966
     42  CA       -34.9030  -14.3670  -51.7570 C.3   262  ALA262      0.1728
     43  C        -36.0090  -13.3270  -51.6630 C.2   262  ALA262      0.2616
     44  O        -35.9280  -12.3990  -50.8610 O.2   262  ALA262     -0.2715
     45  CB       -33.9580  -13.8740  -52.8400 C.3   262  ALA262      0.0334
     46  N        -37.0480  -13.4790  -52.4710 N.am  263  GLY263     -0.1955
     47  CA       -38.1180  -12.5090  -52.4330 C.3   263  GLY263      0.1869
     48  C        -39.0260  -12.8220  -51.2740 C.2   263  GLY263      0.2309
     49  O        -39.4200  -11.9470  -50.5050 O.2   263  GLY263     -0.2863
     50  N        -38.5510  -14.7280  -48.4520 N.3   265  GLU265     -0.1231
     51  CA       -38.0410  -14.6000  -47.0860 C.3   265  GLU265      0.1699
     52  C        -37.8680  -13.1280  -46.7370 C.2   265  GLU265      0.2592
     53  O        -38.2700  -12.6750  -45.6640 O.2   265  GLU265     -0.2718
     54  CB       -36.7140  -15.3370  -46.9230 C.3   265  GLU265      0.0402
     55  CG       -36.4920  -15.9610  -45.5380 C.3   265  GLU265      0.1161
     56  CD       -35.1660  -16.7040  -45.4290 C.2   265  GLU265      0.3649
     57  OE1      -34.3160  -16.5500  -46.3300 O.co2 265  GLU265     -0.2457
     58  OE2      -34.9740  -17.4450  -44.4430 O.co2 265  GLU265     -0.2457
     59  N        -37.2630  -12.3870  -47.6560 N.am  266  THR266     -0.1953
     60  CA       -37.0820  -10.9580  -47.4650 C.3   266  THR266      0.1897
     61  C        -38.4310  -10.2480  -47.3320 C.2   266  THR266      0.2313
     62  O        -38.5900   -9.3700  -46.4860 O.2   266  THR266     -0.2863
     63  CB       -36.2680  -10.3230  -48.6100 C.3   266  THR266      0.1794
     64  OG1      -35.0310  -11.0260  -48.7720 O.3   266  THR266     -0.2208
     65  CG2      -35.9700   -8.8710  -48.2960 C.3   266  THR266      0.0378
     66  N        -31.0620   -5.9670  -46.0350 N.3   327  ILE327     -0.1245
     67  CA       -29.8490   -6.2350  -46.8010 C.3   327  ILE327      0.1561
     68  C        -28.8690   -5.0970  -46.5390 C.2   327  ILE327      0.2260
     69  O        -28.6300   -4.2570  -47.4060 O.2   327  ILE327     -0.2867
     70  CB       -30.1290   -6.3770  -48.3140 C.3   327  ILE327      0.0252
     71  CG1      -31.0320   -7.5820  -48.5880 C.3   327  ILE327      0.0019
     72  CG2      -28.8320   -6.5460  -49.0860 C.3   327  ILE327      0.0019
     73  CD1      -32.4800   -7.3810  -48.2040 C.3   327  ILE327      0.0001
     74  N        -25.3590   -5.9880  -52.0400 N.3   331  VAL331     -0.1245
     75  CA       -24.9720   -7.0980  -52.8980 C.3   331  VAL331      0.1561
     76  C        -23.8800   -6.6200  -53.8440 C.2   331  VAL331      0.2260
     77  O        -24.0980   -5.7040  -54.6350 O.2   331  VAL331     -0.2867
     78  CB       -26.1680   -7.6280  -53.7080 C.3   331  VAL331      0.0252
     79  CG1      -25.7050   -8.6400  -54.7440 C.3   331  VAL331      0.0019
     80  CG2      -27.2060   -8.2390  -52.7780 C.3   331  VAL331      0.0019
@<TRIPOS>BOND
     1     1     2    1
     2     5     2    1
     3     5     6    1
     4    15    14    2
     5     2     3    1
     6    14    13    1
     7     4     3    2
     8    12    13    1
     9     6     7    1
    10    13    16    1
    11     7     8    1
    12     8     9    2
    13    16    17    1
    14    18    17   ar
    15    18    20   ar
    16    17    19   ar
    17    20    22   ar
    18     9    11    1
    19     9    10    1
    20    19    21   ar
    21    22    21   ar
    22    22    23    1
    23    28    29    1
    24    28    25    1
    25    24    25    1
    26    25    26    1
    27    26    27    2
    28    79    78    1
    29    77    76    2
    30    76    75    1
    31    78    75    1
    32    78    80    1
    33    75    74    1
    34    45    42    1
    35    30    31    1
    36    46    47    1
    37    46    43   am
    38    47    48    1
    39    41    42    1
    40    41    32   am
    41    42    43    1
    42    43    44    2
    43    31    34    1
    44    31    32    1
    45    48    49    2
    46    34    35    1
    47    32    33    2
    48    35    36   ar
    49    35    37   ar
    50    36    38   ar
    51    72    70    1
    52    37    39   ar
    53    64    63    1
    54    38    40   ar
    55    63    65    1
    56    63    60    1
    57    71    70    1
    58    71    73    1
    59    50    51    1
    60    70    67    1
    61    39    40   ar
    62    59    60    1
    63    59    52   am
    64    60    61    1
    65    69    68    2
    66    61    62    2
    67    51    54    1
    68    51    52    1
    69    54    55    1
    70    67    68    1
    71    67    66    1
    72    52    53    2
    73    57    56   ar
    74    55    56    1
    75    56    58   ar
