@<TRIPOS>MOLECULE
tmp/3r1mA00.pdb
 128 119 0 0 0
SMALL
GASTEIGER

@<TRIPOS>ATOM
      1  N         26.8510   57.2270   26.4770 N.3    11  ASP11      -0.1239
      2  CA        27.5190   58.5160   26.5120 C.3    11  ASP11       0.1674
      3  C         26.8110   59.3150   27.5920 C.2    11  ASP11       0.2266
      4  O         25.5990   59.5500   27.4750 O.2    11  ASP11      -0.2867
      5  CB        27.3370   59.1750   25.1410 C.3    11  ASP11       0.1410
      6  CG        28.1520   60.4490   24.9720 C.2    11  ASP11       0.3668
      7  OD1       28.4030   61.1850   25.9410 O.co2  11  ASP11      -0.2456
      8  OD2       28.5070   60.6970   23.7890 O.co2  11  ASP11      -0.2456
      9  N         32.6450   66.0790   21.8220 N.3    18  HIS18      -0.1241
     10  CA        32.3560   64.6300   21.8640 C.3    18  HIS18       0.1621
     11  C         33.6750   63.8300   21.8790 C.2    18  HIS18       0.2264
     12  O         33.8460   62.8470   21.1420 O.2    18  HIS18      -0.2867
     13  CB        31.5370   64.2130   20.6520 C.3    18  HIS18       0.0745
     14  CG        30.1380   64.7440   20.6310 C.ar   18  HIS18       0.0817
     15  ND1       29.1660   64.3030   21.5080 N.ar   18  HIS18      -0.2268
     16  CD2       29.5350   65.6390   19.8120 C.ar   18  HIS18       0.1154
     17  CE1       28.0250   64.9130   21.2330 C.ar   18  HIS18       0.1986
     18  NE2       28.2220   65.7330   20.2110 N.ar   18  HIS18      -0.2212
     19  N         33.8250   59.2120   23.7250 N.3    52  ASP52      -0.1239
     20  CA        32.8770   59.7340   24.7270 C.3    52  ASP52       0.1674
     21  C         31.8870   58.6830   25.2490 C.2    52  ASP52       0.2266
     22  O         30.9190   59.0470   25.9180 O.2    52  ASP52      -0.2867
     23  CB        32.1130   60.9570   24.1830 C.3    52  ASP52       0.1410
     24  CG        31.3610   60.6700   22.9080 C.2    52  ASP52       0.3668
     25  OD1       31.3560   59.5120   22.4280 O.co2  52  ASP52      -0.2456
     26  OD2       30.7550   61.6260   22.3700 O.co2  52  ASP52      -0.2456
     27  N         23.9880   62.6350   27.7220 N.3    94  GLN94      -0.1231
     28  CA        23.5950   62.5320   26.3100 C.3    94  GLN94       0.1698
     29  C         22.6980   61.3580   25.9520 C.2    94  GLN94       0.2592
     30  O         21.6490   61.5390   25.3200 O.2    94  GLN94      -0.2718
     31  CB        24.8430   62.5400   25.3940 C.3    94  GLN94       0.0381
     32  CG        24.5170   62.6010   23.8940 C.3    94  GLN94       0.0905
     33  CD        25.7540   62.6250   22.9640 C.2    94  GLN94       0.2608
     34  OE1       26.8740   62.8910   23.4020 O.2    94  GLN94      -0.2717
     35  NE2       25.5230   62.3730   21.6670 N.am   94  GLN94      -0.0878
     36  N         23.1160   60.1500   26.3190 N.am   95  ASP95      -0.1974
     37  CA        22.4230   58.9520   25.8450 C.3    95  ASP95       0.1709
     38  C         21.3580   58.4820   26.8230 C.2    95  ASP95       0.2293
     39  O         20.7610   57.4280   26.6180 O.2    95  ASP95      -0.2864
     40  CB        23.3940   57.7880   25.6110 C.3    95  ASP95       0.1436
     41  CG        24.2270   57.9510   24.3640 C.2    95  ASP95       0.3671
     42  OD1       23.9960   58.9190   23.6010 O.co2  95  ASP95      -0.2456
     43  OD2       25.1100   57.0820   24.1490 O.co2  95  ASP95      -0.2456
     44  N         33.5920   54.1190   18.7340 N.3   131  ASP131     -0.1225
     45  CA        33.0180   55.4390   18.8700 C.3   131  ASP131      0.1805
     46  C         32.9600   56.0800   17.4900 C.2   131  ASP131      0.2597
     47  O         33.8620   55.9000   16.6570 O.2   131  ASP131     -0.2718
     48  CB        33.8530   56.3070   19.8220 C.3   131  ASP131      0.1424
     49  CG        33.2080   57.6680   20.0960 C.2   131  ASP131      0.3668
     50  OD1       31.9700   57.7610   20.0090 O.co2 131  ASP131     -0.2456
     51  OD2       33.9550   58.6250   20.3710 O.co2 131  ASP131     -0.2456
     52  N         31.8970   56.8490   17.2960 N.am  132  LYS132     -0.1979
     53  CA        31.6060   57.6220   16.0750 C.3   132  LYS132      0.1596
     54  C         31.1130   56.7810   14.9130 C.2   132  LYS132      0.2287
     55  O         31.3320   57.1170   13.7440 O.2   132  LYS132     -0.2864
     56  CB        32.7750   58.5640   15.7000 C.3   132  LYS132      0.0298
     57  CG        33.2490   59.4250   16.8380 C.3   132  LYS132      0.0038
     58  CD        32.1920   60.4740   17.1610 C.3   132  LYS132      0.0206
     59  CE        32.6320   61.4960   18.2160 C.3   132  LYS132      0.1093
     60  NZ        32.5860   60.9110   19.6130 N.3   132  LYS132     -0.1314
     61  N         20.0930   54.9430   17.8960 N.3   221  LEU221     -0.1245
     62  CA        19.5320   56.1850   18.4460 C.3   221  LEU221      0.1561
     63  C         18.5980   56.9000   17.4630 C.2   221  LEU221      0.2260
     64  O         17.5650   57.4430   17.8640 O.2   221  LEU221     -0.2867
     65  CB        20.6470   57.1490   18.8950 C.3   221  LEU221      0.0270
     66  CG        21.4200   56.8650   20.1920 C.3   221  LEU221      0.0019
     67  CD1       22.7940   57.5290   20.1580 C.3   221  LEU221      0.0001
     68  CD2       20.6480   57.3180   21.4260 C.3   221  LEU221      0.0001
     69  N         18.3710   62.5380   14.6860 N.3   228  TYR228     -0.1241
     70  CA        19.7670   62.3490   15.0630 C.3   228  TYR228      0.1605
     71  C         20.0460   62.9910   16.4230 C.2   228  TYR228      0.2264
     72  O         19.7850   64.1780   16.6140 O.2   228  TYR228     -0.2867
     73  CB        20.7070   62.8960   13.9730 C.3   228  TYR228      0.0534
     74  CG        22.1430   62.9570   14.4280 C.ar  228  TYR228     -0.0201
     75  CD1       22.6930   64.1480   14.8700 C.ar  228  TYR228     -0.0009
     76  CD2       22.9400   61.8100   14.4570 C.ar  228  TYR228     -0.0009
     77  CE1       23.9970   64.2140   15.3190 C.ar  228  TYR228      0.0417
     78  CE2       24.2600   61.8720   14.9040 C.ar  228  TYR228      0.0417
     79  CZ        24.7800   63.0810   15.3210 C.ar  228  TYR228      0.1957
     80  OH        26.0730   63.1850   15.7940 O.3   228  TYR228     -0.2866
     81  N         22.9820   61.5310   18.1400 N.3   230  GLY230     -0.1210
     82  CA        24.3330   61.0590   18.3530 C.3   230  GLY230      0.1956
     83  C         24.5510   59.8300   17.5090 C.2   230  GLY230      0.2611
     84  O         23.6210   59.3270   16.8570 O.2   230  GLY230     -0.2717
     85  N         25.7830   59.3380   17.5120 N.am  231  LYS231     -0.1979
     86  CA        26.0960   58.0690   16.8790 C.3   231  LYS231      0.1596
     87  C         25.8280   56.9580   17.9070 C.2   231  LYS231      0.2287
     88  O         26.0730   57.1310   19.1110 O.2   231  LYS231     -0.2864
     89  CB        27.5690   58.0320   16.4170 C.3   231  LYS231      0.0298
     90  CG        27.8680   58.5510   14.9850 C.3   231  LYS231      0.0038
     91  CD        27.9520   60.0740   14.9210 C.3   231  LYS231      0.0206
     92  CE        29.0280   60.6310   15.8430 C.3   231  LYS231      0.1093
     93  NZ        29.0610   62.1240   15.9050 N.3   231  LYS231     -0.1314
     94  N         27.2880   54.1360   18.4760 N.3   233  ASP233     -0.1239
     95  CA        28.5360   53.7320   19.0980 C.3   233  ASP233      0.1674
     96  C         28.4710   52.3300   19.6900 C.2   233  ASP233      0.2266
     97  O         28.2880   52.1480   20.9090 O.2   233  ASP233     -0.2867
     98  CB        29.0660   54.8020   20.0560 C.3   233  ASP233      0.1410
     99  CG        29.1660   56.1620   19.3860 C.2   233  ASP233      0.3668
    100  OD1       29.4380   56.1610   18.1770 O.co2 233  ASP233     -0.2456
    101  OD2       28.9220   57.1960   20.0410 O.co2 233  ASP233     -0.2456
    102  N         31.8400   63.0690   11.8720 N.3   264  MET264     -0.1230
    103  CA        31.3100   64.3920   12.2180 C.3   264  MET264      0.1702
    104  C         29.8040   64.5010   12.0370 C.2   264  MET264      0.2592
    105  O         29.2840   64.2020   10.9620 O.2   264  MET264     -0.2718
    106  CB        31.9870   65.4180   11.2990 C.3   264  MET264      0.0401
    107  CG        31.4690   66.8510   11.4450 C.3   264  MET264      0.0596
    108  SD        31.5890   67.5720   13.0820 S.3   264  MET264     -0.1393
    109  CE        33.3740   67.4180   13.3930 C.3   264  MET264      0.0692
    110  N         29.1040   64.9300   13.1050 N.am  265  ARG265     -0.1980
    111  CA        27.6560   65.2340   13.0190 C.3   265  ARG265      0.1597
    112  C         26.8120   64.0460   12.5680 C.2   265  ARG265      0.2287
    113  O         25.7090   64.2450   12.0120 O.2   265  ARG265     -0.2864
    114  CB        27.4150   66.4480   12.0950 C.3   265  ARG265      0.0334
    115  CG        28.0080   67.6980   12.6450 C.3   265  ARG265      0.0492
    116  CD        27.9260   68.8890   11.6920 C.3   265  ARG265      0.2205
    117  NE        28.6010   70.0470   12.2560 N.pl3 265  ARG265     -0.0865
    118  CZ        28.0190   70.9240   13.0750 C.cat 265  ARG265      0.5346
    119  NH1       26.7430   70.7310   13.4290 N.pl3 265  ARG265      0.1354
    120  NH2       28.6950   71.9660   13.5380 N.pl3 265  ARG265      0.1354
    121  N         36.0520   65.1490   14.5940 N.3   286  ASP286     -0.1239
    122  CA        35.3400   64.3200   15.6090 C.3   286  ASP286      0.1674
    123  C         35.5370   62.8240   15.3350 C.2   286  ASP286      0.2266
    124  O         34.6300   62.0090   15.4820 O.2   286  ASP286     -0.2867
    125  CB        33.8580   64.6840   15.7100 C.3   286  ASP286      0.1410
    126  CG        33.6080   65.9770   16.5030 C.2   286  ASP286      0.3668
    127  OD1       34.5380   66.5420   17.1130 O.co2 286  ASP286     -0.2456
    128  OD2       32.4220   66.4100   16.4870 O.co2 286  ASP286     -0.2456
@<TRIPOS>BOND
     1   105   104    2
     2   106   107    1
     3   106   103    1
     4   107   108    1
     5   116   117    1
     6   116   115    1
     7   102   103    1
     8   113   112    2
     9   104   103    1
    10   104   110   am
    11   114   115    1
    12   114   111    1
    13   117   118    2
    14   112   111    1
    15   111   110    1
    16   118   119    1
    17   118   120    1
    18   108   109    1
    19    55    54    2
    20    73    74    1
    21    73    70    1
    22    74    76   ar
    23    74    75   ar
    24    76    78   ar
    25   121   122    1
    26    69    70    1
    27    75    77   ar
    28    78    79   ar
    29    54    53    1
    30    91    90    1
    31    91    92    1
    32    90    89    1
    33    70    71    1
    34    77    79   ar
    35    79    80    1
    36   123   124    2
    37   123   122    1
    38   122   125    1
    39    56    53    1
    40    56    57    1
    41   125   126    1
    42    92    93    1
    43    53    52    1
    44    89    86    1
    45    71    72    2
    46   128   126   ar
    47   126   127   ar
    48    47    46    2
    49    57    58    1
    50    84    83    2
    51    86    85    1
    52    86    87    1
    53    58    59    1
    54    52    46   am
    55    63    64    2
    56    63    62    1
    57    46    45    1
    58    83    85   am
    59    83    82    1
    60    61    62    1
    61    87    88    2
    62    81    82    1
    63   100    99   ar
    64    59    60    1
    65    62    65    1
    66    94    95    1
    67    44    45    1
    68    45    48    1
    69    65    66    1
    70    95    96    1
    71    95    98    1
    72    99   101   ar
    73    99    98    1
    74    96    97    2
    75    16    18   ar
    76    16    14   ar
    77    48    49    1
    78    50    49   ar
    79    49    51   ar
    80    67    66    1
    81    66    68    1
    82    18    17   ar
    83    14    13    1
    84    14    15   ar
    85    13    10    1
    86    12    11    2
    87    17    15   ar
    88    35    33   am
    89     9    10    1
    90    10    11    1
    91    26    24   ar
    92    25    24   ar
    93    24    23    1
    94    33    34    2
    95    33    32    1
    96    42    41   ar
    97    19    20    1
    98     8     6   ar
    99    32    31    1
   100    43    41   ar
   101    23    20    1
   102    41    40    1
   103    20    21    1
   104     6     5    1
   105     6     7   ar
   106     5     2    1
   107    21    22    2
   108    30    29    2
   109    31    28    1
   110    40    37    1
   111    37    36    1
   112    37    38    1
   113    29    28    1
   114    29    36   am
   115    28    27    1
   116     1     2    1
   117     2     3    1
   118    39    38    2
   119     4     3    2
