@<TRIPOS>MOLECULE
tmp/3r1nA00.pdb
 172 159 0 0 0
SMALL
GASTEIGER

@<TRIPOS>ATOM
      1  N         17.6390   16.2780   13.2830 N.3    18  LEU18      -0.1231
      2  CA        17.0480   15.3290   14.2670 C.3    18  LEU18       0.1693
      3  C         17.6660   13.9030   14.0680 C.2    18  LEU18       0.2593
      4  O         17.0420   12.8910   14.4490 O.2    18  LEU18      -0.2718
      5  CB        15.4940   15.2390   14.1550 C.3    18  LEU18       0.0284
      6  CG        14.5450   16.4640   13.9880 C.3    18  LEU18       0.0019
      7  CD1       13.1990   16.0490   13.3680 C.3    18  LEU18       0.0001
      8  CD2       14.2980   17.2870   15.2930 C.3    18  LEU18       0.0001
      9  N         18.8780   13.8360   13.4770 N.am   19  GLY19      -0.1942
     10  CA        19.6240   12.5700   13.2600 C.3    19  GLY19       0.2014
     11  C         19.9110   12.1180   11.8110 C.2    19  GLY19       0.2639
     12  O         19.5470   12.8040   10.8480 O.2    19  GLY19      -0.2714
     13  N         20.6030   10.9670   11.6810 N.am   20  LEU20      -0.1963
     14  CA        20.9420   10.3090   10.3810 C.3    20  LEU20       0.1728
     15  C         20.5640    8.7820   10.2960 C.2    20  LEU20       0.2616
     16  O         20.8080    8.0100   11.2520 O.2    20  LEU20      -0.2715
     17  CB        22.4620   10.4480   10.0860 C.3    20  LEU20       0.0311
     18  CG        23.2200   11.7890   10.1640 C.3    20  LEU20       0.0022
     19  CD1       24.7320   11.5360   10.1400 C.3    20  LEU20       0.0001
     20  CD2       22.8210   12.7420    9.0400 C.3    20  LEU20       0.0001
     21  N         20.0060    8.3560    9.1460 N.am   21  GLY21      -0.1955
     22  CA        19.7470    6.9170    8.8350 C.3    21  GLY21       0.1869
     23  C         20.9860    6.1710    8.3260 C.2    21  GLY21       0.2309
     24  O         22.0960    6.3600    8.8540 O.2    21  GLY21      -0.2863
     25  N         17.8320   13.2930    8.8690 N.3    26  VAL26      -0.1245
     26  CA        16.4640   13.7100    9.2730 C.3    26  VAL26       0.1561
     27  C         16.4870   15.1440    9.7850 C.2    26  VAL26       0.2260
     28  O         17.2380   15.4630   10.6890 O.2    26  VAL26      -0.2867
     29  CB        15.7930   12.7910   10.3370 C.3    26  VAL26       0.0252
     30  CG1       14.4230   13.3250   10.7030 C.3    26  VAL26       0.0019
     31  CG2       15.6760   11.3880    9.8530 C.3    26  VAL26       0.0019
     32  N          4.7240   21.0630   12.9400 N.3    37  LYS37      -0.1245
     33  CA         6.0660   20.5840   12.9150 C.3    37  LYS37       0.1561
     34  C          6.0530   19.1260   12.4490 C.2    37  LYS37       0.2260
     35  O          5.2400   18.3100   12.9270 O.2    37  LYS37      -0.2867
     36  CB         6.6380   20.7210   14.3090 C.3    37  LYS37       0.0271
     37  CG         8.0910   20.3480   14.4630 C.3    37  LYS37       0.0035
     38  CD         8.4030   20.3740   15.9640 C.3    37  LYS37       0.0206
     39  CE         9.8210   20.7070   16.2370 C.3    37  LYS37       0.1093
     40  NZ        10.0870   20.9370   17.6870 N.3    37  LYS37      -0.1314
     41  N          8.9730   15.9550   10.3710 N.3    39  ALA39      -0.1245
     42  CA        10.3620   15.5070   10.2270 C.3    39  ALA39       0.1562
     43  C         10.5670   15.2030    8.7510 C.2    39  ALA39       0.2260
     44  O          9.6480   14.7080    8.1090 O.2    39  ALA39      -0.2867
     45  CB        10.6410   14.2840   11.0580 C.3    39  ALA39       0.0290
     46  N         13.0420   13.3320    5.9700 N.3    41  LYS41      -0.1245
     47  CA        14.1700   12.4460    5.6700 C.3    41  LYS41       0.1561
     48  C         14.6340   12.6220    4.2120 C.2    41  LYS41       0.2260
     49  O         13.8600   12.3770    3.2810 O.2    41  LYS41      -0.2867
     50  CB        13.7850   10.9900    5.9490 C.3    41  LYS41       0.0271
     51  CG        15.0050   10.1000    5.9790 C.3    41  LYS41       0.0035
     52  CD        14.6590    8.6080    6.3400 C.3    41  LYS41       0.0206
     53  CE        15.9970    7.8550    6.3910 C.3    41  LYS41       0.1093
     54  NZ        15.9530    6.3950    6.7950 N.3    41  LYS41      -0.1314
     55  N          5.6250    4.8790   12.4540 N.3    66  VAL66      -0.1245
     56  CA         5.7360    6.2980   12.0880 C.3    66  VAL66       0.1561
     57  C          5.0730    6.5510   10.7070 C.2    66  VAL66       0.2260
     58  O          5.4010    5.8380    9.7110 O.2    66  VAL66      -0.2867
     59  CB         7.2330    6.7780   12.1240 C.3    66  VAL66       0.0252
     60  CG1        7.3710    8.2110   11.5810 C.3    66  VAL66       0.0019
     61  CG2        7.7810    6.6660   13.6470 C.3    66  VAL66       0.0019
     62  N          7.3780   12.9320    7.4900 N.3    86  MET86      -0.1230
     63  CA         6.8470   12.0530    8.5480 C.3    86  MET86       0.1702
     64  C          6.2760   12.9160    9.6580 C.2    86  MET86       0.2592
     65  O          6.6080   14.0760    9.7800 O.2    86  MET86      -0.2718
     66  CB         8.0150   11.2050    9.1780 C.3    86  MET86       0.0401
     67  CG         8.4350   10.1520    8.2930 C.3    86  MET86       0.0596
     68  SD         9.9010    9.3030    8.9240 S.3    86  MET86      -0.1393
     69  CE        11.0280   10.4150    8.1460 C.3    86  MET86       0.0692
     70  N          5.3730   12.3460   10.4560 N.am   87  GLU87      -0.1966
     71  CA         4.9380   12.9940   11.6590 C.3    87  GLU87       0.1733
     72  C          6.1820   13.2070   12.5470 C.2    87  GLU87       0.2616
     73  O          7.0800   12.3970   12.5960 O.2    87  GLU87      -0.2715
     74  CB         3.8730   12.1480   12.3970 C.3    87  GLU87       0.0429
     75  CG         4.3680   10.7050   12.8230 C.3    87  GLU87       0.1163
     76  CD         3.3640    9.8880   13.5990 C.2    87  GLU87       0.3649
     77  OE1        3.1090    8.7280   13.2270 O.co2  87  GLU87      -0.2457
     78  OE2        2.8020   10.3720   14.5880 O.co2  87  GLU87      -0.2457
     79  N          6.2080   14.3290   13.2450 N.am   88  CYS88      -0.1954
     80  CA         7.2110   14.6400   14.2410 C.3    88  CYS88       0.1843
     81  C          7.1200   13.7600   15.4690 C.2    88  CYS88       0.2625
     82  O          6.1600   13.8820   16.2140 O.2    88  CYS88      -0.2714
     83  CB         7.0920   16.1120   14.6710 C.3    88  CYS88       0.0997
     84  SG         8.5820   16.6510   15.5290 S.3    88  CYS88      -0.0797
     85  N          8.1320   12.8990   15.6940 N.am   89  MET89      -0.1963
     86  CA         8.2380   12.1000   16.9320 C.3    89  MET89       0.1736
     87  C          9.0420   12.7710   18.0540 C.2    89  MET89       0.2616
     88  O         10.1410   12.3510   18.3900 O.2    89  MET89      -0.2715
     89  CB         8.8070   10.7270   16.6180 C.3    89  MET89       0.0427
     90  CG         8.0440   10.0740   15.4550 C.3    89  MET89       0.0599
     91  SD         6.3850    9.5270   15.9190 S.3    89  MET89      -0.1393
     92  CE         6.7660    8.2810   17.0990 C.3    89  MET89       0.0692
     93  N          8.4670   13.8110   18.6520 N.am   90  GLU90      -0.1977
     94  CA         9.2230   14.6570   19.5890 C.3    90  GLU90       0.1602
     95  C          9.4110   14.1030   20.9840 C.2    90  GLU90       0.2287
     96  O         10.1420   14.6600   21.7670 O.2    90  GLU90      -0.2864
     97  CB         8.6740   16.0780   19.6640 C.3    90  GLU90       0.0415
     98  CG         7.1910   16.1720   19.8470 C.3    90  GLU90       0.1163
     99  CD         6.7250   17.6050   19.9310 C.2    90  GLU90       0.3649
    100  OE1        5.8780   17.8710   20.8160 O.co2  90  GLU90      -0.2457
    101  OE2        7.2040   18.4480   19.1240 O.co2  90  GLU90      -0.2457
    102  N         10.9860   11.4050   21.2510 N.3    92  GLY92      -0.1210
    103  CA        12.3600   10.8250   21.1670 C.3    92  GLY92       0.1956
    104  C         12.4480    9.3200   21.4410 C.2    92  GLY92       0.2611
    105  O         11.4560    8.6070   21.3580 O.2    92  GLY92      -0.2717
    106  N         13.6340    8.8360   21.7600 N.am   93  GLU93      -0.1979
    107  CA        13.8790    7.3940   21.7600 C.3    93  GLU93       0.1602
    108  C         13.2890    6.7010   23.0060 C.2    93  GLU93       0.2287
    109  O         13.3860    7.1990   24.1620 O.2    93  GLU93      -0.2864
    110  CB        15.3950    7.1200   21.7040 C.3    93  GLU93       0.0415
    111  CG        15.9490    7.1950   20.2780 C.3    93  GLU93       0.1163
    112  CD        17.4480    7.4070   20.2270 C.2    93  GLU93       0.3649
    113  OE1       17.8930    8.0940   19.3130 O.co2  93  GLU93      -0.2457
    114  OE2       18.1670    6.8730   21.0700 O.co2  93  GLU93      -0.2457
    115  N         15.7460   -1.6920   16.5340 N.3   134  LYS134     -0.1245
    116  CA        16.7330   -1.3750   17.5390 C.3   134  LYS134      0.1561
    117  C         16.3470   -0.0570   18.2040 C.2   134  LYS134      0.2260
    118  O         15.5600    0.6420   17.6350 O.2   134  LYS134     -0.2867
    119  CB        18.0870   -1.2130   16.8540 C.3   134  LYS134      0.0271
    120  CG        18.3310    0.0710   16.0140 C.3   134  LYS134      0.0035
    121  CD        19.3790   -0.3040   14.9510 C.3   134  LYS134      0.0206
    122  CE        20.1500    0.8650   14.3850 C.3   134  LYS134      0.1093
    123  NZ        20.9130    0.5080   13.1760 N.3   134  LYS134     -0.1314
    124  N         17.2570    3.0860   18.5960 N.3   136  GLU136     -0.1231
    125  CA        17.2570    4.3450   17.8910 C.3   136  GLU136      0.1699
    126  C         16.1100    4.4800   16.9230 C.2   136  GLU136      0.2592
    127  O         15.8310    5.5770   16.5390 O.2   136  GLU136     -0.2718
    128  CB        18.4900    4.5320   17.0240 C.3   136  GLU136      0.0402
    129  CG        19.7730    4.6040   17.7080 C.3   136  GLU136      0.1161
    130  CD        20.5600    3.2930   17.5340 C.2   136  GLU136      0.3649
    131  OE1       21.6750    3.3780   17.0330 O.co2 136  GLU136     -0.2457
    132  OE2       20.0290    2.2040   17.8780 O.co2 136  GLU136     -0.2457
    133  N         15.5020    3.3610   16.5240 N.am  137  ASN137     -0.1974
    134  CA        14.3750    3.3360   15.5790 C.3   137  ASN137      0.1688
    135  C         13.0140    3.2270   16.2790 C.2   137  ASN137      0.2292
    136  O         12.0190    3.0310   15.5950 O.2   137  ASN137     -0.2864
    137  CB        14.5410    2.1240   14.6140 C.3   137  ASN137      0.1181
    138  CG        15.7130    2.3130   13.6640 C.2   137  ASN137      0.2629
    139  OD1       16.1650    3.4690   13.4140 O.2   137  ASN137     -0.2716
    140  ND2       16.2450    1.2060   13.1730 N.am  137  ASN137     -0.0877
    141  N         10.6240    5.2630   18.6580 N.3   139  LEU139     -0.1245
    142  CA        10.4430    6.6500   19.0630 C.3   139  LEU139      0.1561
    143  C          9.0210    6.8760   19.6160 C.2   139  LEU139      0.2260
    144  O          8.1560    6.1410   19.2510 O.2   139  LEU139     -0.2867
    145  CB        10.6250    7.5560   17.8620 C.3   139  LEU139      0.0270
    146  CG        11.9470    7.4130   17.1030 C.3   139  LEU139      0.0019
    147  CD1       11.9080    8.2240   15.8680 C.3   139  LEU139      0.0001
    148  CD2       13.1070    7.7990   18.0050 C.3   139  LEU139      0.0001
    149  N          6.2980   14.0260   24.5080 N.3   143  LYS143     -0.1245
    150  CA         6.8270   13.9100   25.8610 C.3   143  LYS143      0.1561
    151  C          5.6920   13.7320   26.8680 C.2   143  LYS143      0.2260
    152  O          5.9430   13.7540   28.0570 O.2   143  LYS143     -0.2867
    153  CB         7.6550   15.1350   26.2260 C.3   143  LYS143      0.0271
    154  CG         8.9050   15.3550   25.3590 C.3   143  LYS143      0.0035
    155  CD        10.0670   14.4220   25.7310 C.3   143  LYS143      0.0206
    156  CE        11.1830   14.5070   24.6220 C.3   143  LYS143      0.1093
    157  NZ        12.5600   14.6890   25.1750 N.3   143  LYS143     -0.1314
    158  N         10.2280    3.1820   13.1550 N.3   152  THR152     -0.1203
    159  CA        10.5790    3.9100   11.9560 C.3   152  THR152      0.1994
    160  C         11.8360    3.2870   11.2590 C.2   152  THR152      0.2617
    161  O         12.4220    2.3330   11.7630 O.2   152  THR152     -0.2717
    162  CB        10.7980    5.4280   12.2570 C.3   152  THR152      0.1784
    163  OG1       10.5080    6.1950   11.0740 O.3   152  THR152     -0.2211
    164  CG2       12.2240    5.7920   12.7410 C.3   152  THR152      0.0376
    165  N         12.1310    3.8030   10.0770 N.am  153  ASP153     -0.1973
    166  CA        13.3630    3.5070    9.2610 C.3   153  ASP153      0.1709
    167  C         13.2390    2.1690    8.5370 C.2   153  ASP153      0.2293
    168  O         13.6740    1.1430    9.0470 O.2   153  ASP153     -0.2864
    169  CB        14.6400    3.5200   10.0970 C.3   153  ASP153      0.1436
    170  CG        15.8750    3.6690    9.2450 C.2   153  ASP153      0.3671
    171  OD1       16.9330    4.0140    9.7990 O.co2 153  ASP153     -0.2456
    172  OD2       15.7950    3.4890    8.0160 O.co2 153  ASP153     -0.2456
@<TRIPOS>BOND
     1    49    48    2
     2    48    47    1
     3    47    50    1
     4    47    46    1
     5    50    51    1
     6    51    52    1
     7    52    53    1
     8    53    54    1
     9    62    63    1
    10   172   170   ar
    11    44    43    2
    12    69    68    1
    13    67    68    1
    14    67    66    1
    15    23    22    1
    16    23    24    2
    17   167   168    2
    18   167   166    1
    19    63    66    1
    20    63    64    1
    21    43    42    1
    22    22    21    1
    23    25    26    1
    24    20    18    1
    25    21    15   am
    26   170   171   ar
    27   170   169    1
    28   166   165    1
    29   166   169    1
    30    26    27    1
    31    26    29    1
    32    64    65    2
    33    64    70   am
    34    58    57    2
    35    27    28    2
    36    31    29    1
    37   165   160   am
    38    17    18    1
    39    17    14    1
    40    19    18    1
    41    42    41    1
    42    42    45    1
    43    15    14    1
    44    15    16    2
    45    29    30    1
    46    14    13    1
    47    70    71    1
    48    57    56    1
    49    12    11    2
    50   163   162    1
    51   160   161    2
    52   160   159    1
    53    60    59    1
    54    71    74    1
    55    71    72    1
    56    13    11   am
    57    11    10    1
    58   159   162    1
    59   159   158    1
    60    56    59    1
    61    56    55    1
    62    59    61    1
    63   162   164    1
    64    74    75    1
    65    34    33    1
    66    34    35    2
    67    72    73    2
    68    72    79   am
    69    75    76    1
    70    33    32    1
    71    33    36    1
    72   140   138   am
    73   123   122    1
    74    77    76   ar
    75    79    80    1
    76    10     9    1
    77     1     2    1
    78     7     6    1
    79   139   138    2
    80     9     3   am
    81    76    78   ar
    82   138   137    1
    83     6     5    1
    84     6     8    1
    85     3     2    1
    86     3     4    2
    87     5     2    1
    88    80    83    1
    89    80    81    1
    90    36    37    1
    91   122   121    1
    92    37    38    1
    93   137   134    1
    94    83    84    1
    95   121   120    1
    96    90    91    1
    97    90    89    1
    98    81    85   am
    99    81    82    2
   100   134   135    1
   101   134   133    1
   102   136   135    2
   103    85    86    1
   104   147   146    1
   105    91    92    1
   106    38    39    1
   107   120   119    1
   108    39    40    1
   109   133   126   am
   110   115   116    1
   111   127   126    2
   112    89    86    1
   113   119   116    1
   114   126   125    1
   115    86    87    1
   116   128   129    1
   117   128   125    1
   118   131   130   ar
   119   146   145    1
   120   146   148    1
   121   130   129    1
   122   130   132   ar
   123   116   117    1
   124   118   117    2
   125   145   142    1
   126   125   124    1
   127    87    88    2
   128    87    93   am
   129    93    94    1
   130   141   142    1
   131   142   143    1
   132   101    99   ar
   133   144   143    2
   134   113   112   ar
   135    94    97    1
   136    94    95    1
   137    97    98    1
   138    98    99    1
   139    99   100   ar
   140   112   111    1
   141   112   114   ar
   142   111   110    1
   143    95    96    2
   144   103   102    1
   145   103   104    1
   146   105   104    2
   147   104   106   am
   148   110   107    1
   149   106   107    1
   150   107   108    1
   151   108   109    2
   152   149   150    1
   153   156   157    1
   154   156   155    1
   155   154   155    1
   156   154   153    1
   157   150   153    1
   158   150   151    1
   159   151   152    2
