@<TRIPOS>MOLECULE
tmp/3r1oB00.pdb
 196 188 0 0 0
SMALL
GASTEIGER

@<TRIPOS>ATOM
      1  N         -2.5330  -11.4550   44.1190 N.3     6  TYR6       -0.1241
      2  CA        -2.5120  -12.5130   43.1180 C.3     6  TYR6        0.1605
      3  C         -2.3900  -13.9160   43.6830 C.2     6  TYR6        0.2264
      4  O         -2.7610  -14.8560   42.9860 O.2     6  TYR6       -0.2867
      5  CB        -1.4080  -12.2630   42.0790 C.3     6  TYR6        0.0534
      6  CG        -1.6180  -11.0140   41.2580 C.ar    6  TYR6       -0.0201
      7  CD1       -0.8270   -9.8850   41.4700 C.ar    6  TYR6       -0.0009
      8  CD2       -2.5930  -10.9520   40.2720 C.ar    6  TYR6       -0.0009
      9  CE1       -0.9980   -8.7340   40.7020 C.ar    6  TYR6        0.0417
     10  CE2       -2.7850   -9.8030   39.5100 C.ar    6  TYR6        0.0417
     11  CZ        -1.9790   -8.6960   39.7260 C.ar    6  TYR6        0.1957
     12  OH        -2.1610   -7.5570   38.9800 O.3     6  TYR6       -0.2866
     13  N         -6.0260  -16.0120   44.0890 N.3     9  PRO9       -0.2102
     14  CA        -6.5280  -16.4750   42.7810 C.3     9  PRO9        0.1504
     15  C         -5.6040  -17.4710   42.0860 C.2     9  PRO9        0.2575
     16  O         -6.1020  -18.4460   41.5210 O.2     9  PRO9       -0.2718
     17  CB        -6.6720  -15.1780   41.9670 C.3     9  PRO9        0.0282
     18  CG        -6.7180  -14.0950   42.9600 C.3     9  PRO9        0.0208
     19  CD        -5.8650  -14.5420   44.0930 C.3     9  PRO9        0.0893
     20  N         -4.2740  -17.2540   42.1570 N.am   10  ALA10      -0.1980
     21  CA        -3.2850  -18.1420   41.5320 C.3    10  ALA10       0.1597
     22  C         -3.2720  -19.5430   42.1250 C.2    10  ALA10       0.2287
     23  O         -3.1810  -20.5110   41.3710 O.2    10  ALA10      -0.2864
     24  CB        -1.9030  -17.5400   41.6090 C.3    10  ALA10       0.0319
     25  N         -6.2680  -21.3080   40.7980 N.3    13  LEU13      -0.1245
     26  CA        -6.0580  -21.6000   39.3830 C.3    13  LEU13       0.1561
     27  C         -5.2440  -22.8790   39.2620 C.2    13  LEU13       0.2260
     28  O         -5.6190  -23.7780   38.5140 O.2    13  LEU13      -0.2867
     29  CB        -5.2770  -20.4310   38.7620 C.3    13  LEU13       0.0270
     30  CG        -5.9780  -19.5600   37.7270 C.3    13  LEU13       0.0019
     31  CD1       -7.2240  -18.9270   38.2800 C.3    13  LEU13       0.0001
     32  CD2       -5.0430  -18.4710   37.2450 C.3    13  LEU13       0.0001
     33  N          5.1880  -30.0760   36.9440 N.3    28  LEU28      -0.1245
     34  CA         5.0760  -28.6220   36.9960 C.3    28  LEU28       0.1561
     35  C          6.2510  -27.9830   37.7180 C.2    28  LEU28       0.2260
     36  O          6.7350  -26.9430   37.2790 O.2    28  LEU28      -0.2867
     37  CB         3.7420  -28.2000   37.6440 C.3    28  LEU28       0.0270
     38  CG         2.4740  -28.6460   36.9250 C.3    28  LEU28       0.0019
     39  CD1        1.2590  -28.2620   37.7040 C.3    28  LEU28       0.0001
     40  CD2        2.4000  -28.0680   35.5150 C.3    28  LEU28       0.0001
     41  N          9.5310  -25.7580   36.6980 N.3    31  CYS31      -0.1235
     42  CA         9.5430  -24.3000   36.5240 C.3    31  CYS31       0.1677
     43  C         10.4400  -23.5630   37.5350 C.2    31  CYS31       0.2270
     44  O         10.8150  -22.4160   37.2870 O.2    31  CYS31      -0.2867
     45  CB         8.1230  -23.7340   36.5070 C.3    31  CYS31       0.0956
     46  SG         7.1910  -23.9740   38.0500 S.3    31  CYS31      -0.0801
     47  N         10.4210  -23.8160   31.2730 N.3    36  VAL36      -0.1231
     48  CA         8.9850  -23.9490   31.0060 C.3    36  VAL36       0.1678
     49  C          8.6940  -25.4600   30.9330 C.2    36  VAL36       0.2434
     50  O          9.3670  -26.1500   30.1640 O.2    36  VAL36      -0.2733
     51  CB         8.5380  -23.1950   29.7220 C.3    36  VAL36       0.0265
     52  CG1        7.0740  -23.4650   29.3990 C.3    36  VAL36       0.0020
     53  CG2        8.7900  -21.6940   29.8400 C.3    36  VAL36       0.0020
     54  N          7.7750  -25.9950   31.7770 N.am   37  PRO37      -0.2729
     55  CA         7.4990  -27.4460   31.7580 C.3    37  PRO37       0.1401
     56  C          7.1070  -27.9740   30.3780 C.2    37  PRO37       0.2269
     57  O          6.3410  -27.3220   29.6690 O.2    37  PRO37      -0.2865
     58  CB         6.3790  -27.6040   32.7880 C.3    37  PRO37       0.0296
     59  CG         6.4850  -26.4100   33.6590 C.3    37  PRO37       0.0237
     60  CD         6.9340  -25.3060   32.7780 C.3    37  PRO37       0.0939
     61  N         -1.7880  -27.8070   31.2700 N.3    45  TYR45      -0.1227
     62  CA        -1.9630  -27.0490   32.5190 C.3    45  TYR45       0.1736
     63  C         -1.8890  -25.5630   32.1930 C.2    45  TYR45       0.2595
     64  O         -2.6730  -24.7820   32.7300 O.2    45  TYR45      -0.2718
     65  CB        -0.8730  -27.4270   33.5470 C.3    45  TYR45       0.0548
     66  CG        -0.7480  -26.4840   34.7310 C.ar   45  TYR45      -0.0200
     67  CD1       -1.5130  -26.6630   35.8790 C.ar   45  TYR45      -0.0009
     68  CD2        0.1950  -25.4540   34.7280 C.ar   45  TYR45      -0.0009
     69  CE1       -1.3820  -25.8170   36.9800 C.ar   45  TYR45       0.0417
     70  CE2        0.3370  -24.6030   35.8260 C.ar   45  TYR45       0.0417
     71  CZ        -0.4500  -24.7910   36.9510 C.ar   45  TYR45       0.1957
     72  OH        -0.3250  -23.9490   38.0260 O.3    45  TYR45      -0.2866
     73  N         -0.9300  -25.1820   31.3190 N.am   46  ILE46      -0.1980
     74  CA        -0.7070  -23.8020   30.8700 C.3    46  ILE46       0.1595
     75  C         -1.9110  -23.2880   30.0830 C.2    46  ILE46       0.2287
     76  O         -2.3490  -22.1630   30.3280 O.2    46  ILE46      -0.2864
     77  CB         0.6330  -23.6350   30.1010 C.3    46  ILE46       0.0276
     78  CG1        1.8300  -24.1340   30.9480 C.3    46  ILE46       0.0022
     79  CG2        0.8220  -22.1640   29.6900 C.3    46  ILE46       0.0022
     80  CD1        3.1380  -24.3930   30.1890 C.3    46  ILE46       0.0001
     81  N         -4.7310  -22.5750   32.4040 N.3    49  LEU49      -0.1231
     82  CA        -4.5390  -21.2790   33.0620 C.3    49  LEU49       0.1693
     83  C         -5.1090  -20.1440   32.2120 C.2    49  LEU49       0.2592
     84  O         -5.8870  -19.3310   32.7100 O.2    49  LEU49      -0.2718
     85  CB        -3.0490  -21.0080   33.3590 C.3    49  LEU49       0.0284
     86  CG        -2.3190  -21.8780   34.4010 C.3    49  LEU49       0.0019
     87  CD1       -0.9370  -21.3660   34.6260 C.3    49  LEU49       0.0001
     88  CD2       -3.0540  -21.9250   35.7400 C.3    49  LEU49       0.0001
     89  N         -4.7440  -20.1210   30.9210 N.am   50  PHE50      -0.1976
     90  CA        -5.1900  -19.1170   29.9530 C.3    50  PHE50       0.1639
     91  C         -6.6980  -19.1560   29.7440 C.2    50  PHE50       0.2290
     92  O         -7.3250  -18.1040   29.6540 O.2    50  PHE50      -0.2864
     93  CB        -4.4290  -19.2650   28.6210 C.3    50  PHE50       0.0560
     94  CG        -2.9540  -18.9270   28.6660 C.ar   50  PHE50      -0.0200
     95  CD1       -2.0550  -19.5630   27.8220 C.ar   50  PHE50      -0.0042
     96  CD2       -2.4670  -17.9600   29.5460 C.ar   50  PHE50      -0.0042
     97  CE1       -0.6970  -19.2420   27.8470 C.ar   50  PHE50      -0.0003
     98  CE2       -1.1080  -17.6310   29.5680 C.ar   50  PHE50      -0.0003
     99  CZ        -0.2310  -18.2880   28.7250 C.ar   50  PHE50      -0.0000
    100  N         -8.5410  -17.7550   33.0050 N.3    53  ILE53      -0.1245
    101  CA        -8.4660  -16.2910   33.0970 C.3    53  ILE53       0.1561
    102  C         -9.1000  -15.5800   31.8890 C.2    53  ILE53       0.2260
    103  O         -9.1440  -14.3490   31.8570 O.2    53  ILE53      -0.2867
    104  CB        -7.0770  -15.7280   33.5180 C.3    53  ILE53       0.0252
    105  CG1       -5.9860  -16.0420   32.4800 C.3    53  ILE53       0.0019
    106  CG2       -6.6980  -16.1900   34.9230 C.3    53  ILE53       0.0019
    107  CD1       -4.8160  -15.0840   32.5230 C.3    53  ILE53       0.0001
    108  N         -3.6090  -10.6030   28.9660 N.3    68  LEU68      -0.1245
    109  CA        -2.9410  -11.2430   30.1010 C.3    68  LEU68       0.1561
    110  C         -2.1920  -10.1660   30.8820 C.2    68  LEU68       0.2260
    111  O         -2.3450  -10.1000   32.0990 O.2    68  LEU68      -0.2867
    112  CB        -1.9790  -12.3560   29.6190 C.3    68  LEU68       0.0270
    113  CG        -0.9770  -12.9520   30.6150 C.3    68  LEU68       0.0019
    114  CD1       -1.6770  -13.6870   31.7400 C.3    68  LEU68       0.0001
    115  CD2       -0.0230  -13.9030   29.9220 C.3    68  LEU68       0.0001
    116  N         -3.9470   -8.0500   33.4480 N.3    71  ILE71      -0.1231
    117  CA        -4.0400   -8.8610   34.6710 C.3    71  ILE71       0.1692
    118  C         -2.5980   -9.1940   35.2600 C.2    71  ILE71       0.2591
    119  O         -2.4160  -10.1770   35.9790 O.2    71  ILE71      -0.2718
    120  CB        -4.9350  -10.1230   34.3620 C.3    71  ILE71       0.0266
    121  CG1       -6.1900   -9.7640   33.5090 C.3    71  ILE71       0.0019
    122  CG2       -5.3600  -10.8140   35.6110 C.3    71  ILE71       0.0020
    123  CD1       -6.8720  -10.9900   32.7690 C.3    71  ILE71       0.0001
    124  N         -1.5350   -8.4340   34.8500 N.am   72  ILE72      -0.1980
    125  CA        -0.1530   -8.6660   35.3430 C.3    72  ILE72       0.1595
    126  C          0.3950   -7.4110   36.0320 C.2    72  ILE72       0.2287
    127  O          0.8570   -7.4840   37.1710 O.2    72  ILE72      -0.2864
    128  CB         0.8440   -9.2650   34.2890 C.3    72  ILE72       0.0276
    129  CG1        0.4220  -10.6840   33.8390 C.3    72  ILE72       0.0022
    130  CG2        2.3020   -9.2780   34.8220 C.3    72  ILE72       0.0022
    131  CD1        1.3110  -11.3120   32.7090 C.3    72  ILE72       0.0001
    132  N          4.1990  -19.1040   25.8520 N.3    94  VAL94      -0.1245
    133  CA         4.9880  -18.8850   27.0710 C.3    94  VAL94       0.1561
    134  C          6.4830  -18.9050   26.7230 C.2    94  VAL94       0.2260
    135  O          7.2130  -18.0120   27.1480 O.2    94  VAL94      -0.2867
    136  CB         4.6150  -19.8770   28.2130 C.3    94  VAL94       0.0252
    137  CG1        5.5260  -19.7150   29.4310 C.3    94  VAL94       0.0019
    138  CG2        3.1640  -19.6920   28.6240 C.3    94  VAL94       0.0019
    139  N          7.8130  -15.3890   27.6620 N.3    98  PHE98      -0.1241
    140  CA         8.5470  -15.4910   28.9170 C.3    98  PHE98       0.1605
    141  C          9.8510  -16.2490   28.6450 C.2    98  PHE98       0.2264
    142  O         10.0330  -17.3820   29.0930 O.2    98  PHE98      -0.2867
    143  CB         7.6800  -16.1660   29.9940 C.3    98  PHE98       0.0534
    144  CG         6.3580  -15.4740   30.2510 C.ar   98  PHE98      -0.0203
    145  CD1        5.1870  -15.9270   29.6550 C.ar   98  PHE98      -0.0042
    146  CD2        6.2870  -14.3620   31.0810 C.ar   98  PHE98      -0.0042
    147  CE1        3.9690  -15.2740   29.8840 C.ar   98  PHE98      -0.0003
    148  CE2        5.0630  -13.7250   31.3220 C.ar   98  PHE98      -0.0003
    149  CZ         3.9090  -14.2050   30.7500 C.ar   98  PHE98      -0.0000
    150  N          9.7680  -16.6000   34.2500 N.3   104  VAL104     -0.1245
    151  CA         9.2030  -17.9420   34.4570 C.3   104  VAL104      0.1561
    152  C          9.1770  -18.3130   35.9450 C.2   104  VAL104      0.2260
    153  O          8.1440  -18.7840   36.4210 O.2   104  VAL104     -0.2867
    154  CB         9.9020  -19.0140   33.5730 C.3   104  VAL104      0.0252
    155  CG1        9.4840  -20.4370   33.9540 C.3   104  VAL104      0.0019
    156  CG2        9.6260  -18.7570   32.0990 C.3   104  VAL104      0.0019
    157  N          6.2930  -16.4540   38.0250 N.3   107  PHE107     -0.1227
    158  CA         4.9580  -17.0200   37.8510 C.3   107  PHE107      0.1736
    159  C          4.8800  -18.4110   38.4470 C.2   107  PHE107      0.2595
    160  O          3.8470  -18.7770   39.0090 O.2   107  PHE107     -0.2718
    161  CB         4.5370  -16.9970   36.3840 C.3   107  PHE107      0.0547
    162  CG         4.1820  -15.6060   35.9200 C.ar  107  PHE107     -0.0202
    163  CD1        2.8960  -15.1070   36.0860 C.ar  107  PHE107     -0.0042
    164  CD2        5.1370  -14.7860   35.3350 C.ar  107  PHE107     -0.0042
    165  CE1        2.5720  -13.8140   35.6660 C.ar  107  PHE107     -0.0003
    166  CE2        4.8100  -13.5030   34.9020 C.ar  107  PHE107     -0.0003
    167  CZ         3.5390  -13.0120   35.0970 C.ar  107  PHE107     -0.0000
    168  N          6.0010  -19.1620   38.3800 N.am  108  CYS108     -0.1970
    169  CA         6.1770  -20.5020   38.9450 C.3   108  CYS108      0.1712
    170  C          5.9290  -20.4550   40.4550 C.2   108  CYS108      0.2296
    171  O          5.1130  -21.2180   40.9660 O.2   108  CYS108     -0.2864
    172  CB         7.5740  -21.0260   38.6230 C.3   108  CYS108      0.0983
    173  SG         7.9640  -22.6280   39.3630 S.3   108  CYS108     -0.0798
    174  N          4.4160  -18.0340   42.1960 N.3   110  LEU110     -0.1231
    175  CA         3.0350  -17.6030   42.3900 C.3   110  LEU110      0.1693
    176  C          2.0360  -18.7760   42.3010 C.2   110  LEU110      0.2592
    177  O          1.1680  -18.8950   43.1650 O.2   110  LEU110     -0.2718
    178  CB         2.6890  -16.5020   41.3770 C.3   110  LEU110      0.0284
    179  CG         1.2650  -15.9440   41.4100 C.3   110  LEU110      0.0019
    180  CD1        1.0030  -15.1080   42.6690 C.3   110  LEU110      0.0001
    181  CD2        0.9780  -15.1370   40.1690 C.3   110  LEU110      0.0001
    182  N          2.1800  -19.6440   41.2910 N.am  111  LEU111     -0.1966
    183  CA         1.2780  -20.7800   41.0900 C.3   111  LEU111      0.1728
    184  C          1.5870  -22.0030   41.9480 C.2   111  LEU111      0.2616
    185  O          0.6970  -22.4940   42.6430 O.2   111  LEU111     -0.2715
    186  CB         1.2440  -21.1960   39.6040 C.3   111  LEU111      0.0311
    187  CG         0.6560  -20.1910   38.6240 C.3   111  LEU111      0.0022
    188  CD1        1.3160  -20.3140   37.2840 C.3   111  LEU111      0.0001
    189  CD2       -0.8500  -20.3550   38.5050 C.3   111  LEU111      0.0001
    190  N          2.8360  -22.5060   41.8590 N.am  112  VAL112     -0.1977
    191  CA         3.3470  -23.7270   42.4830 C.3   112  VAL112      0.1596
    192  C          3.5870  -23.6990   44.0020 C.2   112  VAL112      0.2287
    193  O          3.2240  -24.6570   44.6880 O.2   112  VAL112     -0.2864
    194  CB         4.5360  -24.2870   41.6490 C.3   112  VAL112      0.0276
    195  CG1        5.6140  -24.9720   42.5010 C.3   112  VAL112      0.0022
    196  CG2        4.0360  -25.1980   40.5350 C.3   112  VAL112      0.0022
@<TRIPOS>BOND
     1   132   133    1
     2   134   133    1
     3   134   135    2
     4   133   136    1
     5   139   140    1
     6    95    97   ar
     7    95    94   ar
     8    97    99   ar
     9   136   138    1
    10   136   137    1
    11    93    94    1
    12    93    90    1
    13   141   140    1
    14   141   142    2
    15    94    96   ar
    16    99    98   ar
    17   140   143    1
    18   108   109    1
    19    52    51    1
    20    96    98   ar
    21   112   109    1
    22   112   113    1
    23    92    91    2
    24   145   147   ar
    25   145   144   ar
    26    57    56    2
    27    79    77    1
    28    51    53    1
    29    51    48    1
    30    91    90    1
    31   147   149   ar
    32   115   113    1
    33    90    89    1
    34   143   144    1
    35    75    76    2
    36    75    74    1
    37    77    74    1
    38    77    78    1
    39   109   110    1
    40    50    49    2
    41    80    78    1
    42   144   146   ar
    43    56    55    1
    44   113   114    1
    45   149   148   ar
    46    74    73    1
    47   110   111    2
    48    89    83   am
    49    49    48    1
    50    49    54   am
    51    48    47    1
    52   146   148   ar
    53    61    62    1
    54    73    63   am
    55    55    54    1
    56    55    58    1
    57    54    60    1
    58   103   102    2
    59   102   101    1
    60   156   154    1
    61    63    62    1
    62    63    64    2
    63    83    84    2
    64    83    82    1
    65    81    82    1
    66   105   107    1
    67   105   104    1
    68    62    65    1
    69   131   129    1
    70   123   121    1
    71    60    59    1
    72    58    59    1
    73   100   101    1
    74    82    85    1
    75   101   104    1
    76    85    86    1
    77   116   117    1
    78   121   120    1
    79   104   106    1
    80    65    66    1
    81   154   155    1
    82   154   151    1
    83   129   128    1
    84   150   151    1
    85   128   130    1
    86   128   125    1
    87   120   117    1
    88   120   122    1
    89    86    87    1
    90    86    88    1
    91   151   152    1
    92   117   118    1
    93    68    66   ar
    94    68    70   ar
    95    66    67   ar
    96   124   118   am
    97   124   125    1
    98   166   167   ar
    99   166   164   ar
   100   167   165   ar
   101   118   119    2
   102   164   162   ar
   103   125   126    1
   104    40    38    1
   105   165   163   ar
   106    70    71   ar
   107    67    69   ar
   108   162   163   ar
   109   162   161    1
   110   152   153    2
   111   126   127    2
   112   161   158    1
   113    45    42    1
   114    45    46    1
   115    42    41    1
   116    42    43    1
   117    38    37    1
   118    38    39    1
   119    33    34    1
   120    71    69   ar
   121    71    72    1
   122    34    37    1
   123    34    35    1
   124    32    30    1
   125    36    35    2
   126   188   187    1
   127    44    43    2
   128    30    31    1
   129    30    29    1
   130   158   157    1
   131   158   159    1
   132    46   173    1
   133   168   159   am
   134   168   169    1
   135   159   160    2
   136   189   187    1
   137    28    27    2
   138   172   169    1
   139   172   173    1
   140   187   186    1
   141    29    26    1
   142   169   170    1
   143    12    11    1
   144    27    26    1
   145    26    25    1
   146    10    11   ar
   147    10     8   ar
   148   186   183    1
   149    11     9   ar
   150   181   179    1
   151     8     6   ar
   152   170   171    2
   153   196   194    1
   154     9     7   ar
   155   183   182    1
   156   183   184    1
   157     6     7   ar
   158     6     5    1
   159   182   176   am
   160    23    22    2
   161   178   179    1
   162   178   175    1
   163   179   180    1
   164    16    15    2
   165    21    24    1
   166    21    22    1
   167    21    20    1
   168   194   191    1
   169   194   195    1
   170   190   184   am
   171   190   191    1
   172   184   185    2
   173    17    14    1
   174    17    18    1
   175     5     2    1
   176    15    20   am
   177    15    14    1
   178   174   175    1
   179   176   175    1
   180   176   177    2
   181   191   192    1
   182    14    13    1
   183    18    19    1
   184     4     3    2
   185     2     3    1
   186     2     1    1
   187   192   193    2
   188    13    19    1
