@<TRIPOS>MOLECULE
tmp/3r1rC00.pdb
 140 132 0 0 0
SMALL
GASTEIGER

@<TRIPOS>ATOM
      1  N         35.9030  101.0880  -40.0110 N.3     3  VAL3       -0.1245
      2  CA        34.6110  100.6170  -39.5310 C.3     3  VAL3        0.1561
      3  C         34.8650   99.4290  -38.6100 C.2     3  VAL3        0.2260
      4  O         35.8700   98.7380  -38.7960 O.2     3  VAL3       -0.2867
      5  CB        33.7420  100.2600  -40.7450 C.3     3  VAL3        0.0252
      6  CG1       32.9130   99.0000  -40.5670 C.3     3  VAL3        0.0019
      7  CG2       32.8210  101.4310  -41.0690 C.3     3  VAL3        0.0019
      8  N         33.3450   95.7460  -37.0150 N.3     5  LYS5       -0.1231
      9  CA        32.3120   94.7380  -37.2500 C.3     5  LYS5        0.1693
     10  C         31.7270   94.1480  -35.9730 C.2     5  LYS5        0.2591
     11  O         31.7310   94.7840  -34.9160 O.2     5  LYS5       -0.2718
     12  CB        32.8370   93.6350  -38.1730 C.3     5  LYS5        0.0285
     13  CG        31.8580   93.2750  -39.2800 C.3     5  LYS5        0.0035
     14  CD        31.7480   91.7770  -39.5060 C.3     5  LYS5        0.0206
     15  CE        31.3230   91.4370  -40.9310 C.3     5  LYS5        0.1093
     16  NZ        29.8680   91.6460  -41.1790 N.3     5  LYS5       -0.1314
     17  N         31.1330   92.9610  -36.0910 N.am    6  ARG6       -0.1980
     18  CA        30.4160   92.3250  -34.9930 C.3     6  ARG6        0.1597
     19  C         31.3260   91.5860  -34.0220 C.2     6  ARG6        0.2287
     20  O         31.0460   91.5330  -32.8180 O.2     6  ARG6       -0.2864
     21  CB        29.3530   91.3680  -35.5520 C.3     6  ARG6        0.0334
     22  CG        28.3190   92.0440  -36.4400 C.3     6  ARG6        0.0492
     23  CD        26.9740   91.3450  -36.3270 C.3     6  ARG6        0.2205
     24  NE        25.9140   92.0170  -37.0770 N.pl3   6  ARG6       -0.0865
     25  CZ        24.7550   91.4530  -37.4110 C.cat   6  ARG6        0.5346
     26  NH1       24.4900   90.1970  -37.0720 N.pl3   6  ARG6        0.1354
     27  NH2       23.8670   92.1700  -38.0900 N.pl3   6  ARG6        0.1354
     28  N         37.9230   97.0660  -40.3720 N.3    11  GLU11      -0.1231
     29  CA        37.9540   96.9340  -41.8160 C.3    11  GLU11       0.1699
     30  C         37.7630   98.3500  -42.3710 C.2    11  GLU11       0.2592
     31  O         37.2790   99.1970  -41.6090 O.2    11  GLU11      -0.2718
     32  CB        36.8790   96.0060  -42.3740 C.3    11  GLU11       0.0402
     33  CG        36.8980   95.8560  -43.8860 C.3    11  GLU11       0.1161
     34  CD        36.0050   94.7510  -44.4100 C.2    11  GLU11       0.3649
     35  OE1       36.3230   93.5620  -44.1850 O.co2  11  GLU11      -0.2457
     36  OE2       34.9870   95.0910  -45.0550 O.co2  11  GLU11      -0.2457
     37  N         38.1760   98.6320  -43.5960 N.am   12  ARG12      -0.1966
     38  CA        38.0060   99.9830  -44.1250 C.3    12  ARG12       0.1729
     39  C         36.6020  100.1490  -44.7100 C.2    12  ARG12       0.2616
     40  O         35.9800   99.1790  -45.1460 O.2    12  ARG12      -0.2715
     41  CB        39.0450  100.3700  -45.1680 C.3    12  ARG12       0.0348
     42  CG        39.9070   99.2570  -45.7360 C.3    12  ARG12       0.0492
     43  CD        40.9960   99.7930  -46.6540 C.3    12  ARG12       0.2205
     44  NE        42.3240   99.7630  -46.0510 N.pl3  12  ARG12      -0.0865
     45  CZ        43.4770   99.9090  -46.6940 C.cat  12  ARG12       0.5346
     46  NH1       43.5200  100.1010  -48.0070 N.pl3  12  ARG12       0.1354
     47  NH2       44.6130   99.8590  -45.9990 N.pl3  12  ARG12       0.1354
     48  N         36.1100  101.3850  -44.7070 N.am   13  ILE13      -0.1963
     49  CA        34.7820  101.6820  -45.2070 C.3    13  ILE13       0.1727
     50  C         34.7040  101.6590  -46.7320 C.2    13  ILE13       0.2616
     51  O         35.2790  102.5470  -47.3680 O.2    13  ILE13      -0.2715
     52  CB        34.2480  103.0770  -44.8040 C.3    13  ILE13       0.0290
     53  CG1       34.3140  103.2890  -43.3010 C.3    13  ILE13       0.0022
     54  CG2       32.8310  103.3030  -45.3160 C.3    13  ILE13       0.0023
     55  CD1       33.7230  104.5770  -42.7760 C.3    13  ILE13       0.0001
     56  N         33.8790  100.7680  -47.2700 N.am   14  ASN14      -0.1972
     57  CA        33.6080  100.8240  -48.7160 C.3    14  ASN14       0.1688
     58  C         32.1980  101.3970  -48.8160 C.2    14  ASN14       0.2292
     59  O         31.2280  100.7370  -48.4530 O.2    14  ASN14      -0.2864
     60  CB        33.7860   99.4870  -49.4060 C.3    14  ASN14       0.1181
     61  CG        35.2360   99.0370  -49.5120 C.2    14  ASN14       0.2629
     62  OD1       36.1560   99.8040  -49.8130 O.2    14  ASN14      -0.2716
     63  ND2       35.4520   97.7470  -49.2610 N.am   14  ASN14      -0.0877
     64  N         29.0440   99.8640  -50.8980 N.3    17  LYS17      -0.1231
     65  CA        28.2900   98.8110  -50.2350 C.3    17  LYS17       0.1693
     66  C         26.9890   99.4240  -49.7110 C.2    17  LYS17       0.2591
     67  O         25.8910   98.9960  -50.0590 O.2    17  LYS17      -0.2718
     68  CB        29.0960   98.2080  -49.0860 C.3    17  LYS17       0.0285
     69  CG        30.5340   97.8580  -49.4400 C.3    17  LYS17       0.0035
     70  CD        31.3250   97.3910  -48.2330 C.3    17  LYS17       0.0206
     71  CE        32.4140   96.3980  -48.5930 C.3    17  LYS17       0.1093
     72  NZ        32.7040   95.4560  -47.4770 N.3    17  LYS17      -0.1314
     73  N         27.1290  100.4730  -48.9070 N.am   18  ILE18      -0.1980
     74  CA        25.9940  101.2070  -48.3600 C.3    18  ILE18       0.1595
     75  C         25.0690  101.6150  -49.4940 C.2    18  ILE18       0.2287
     76  O         23.8820  101.2940  -49.5310 O.2    18  ILE18      -0.2864
     77  CB        26.4580  102.4650  -47.5940 C.3    18  ILE18       0.0276
     78  CG1       27.2380  102.0450  -46.3430 C.3    18  ILE18       0.0022
     79  CG2       25.2960  103.3730  -47.2240 C.3    18  ILE18       0.0022
     80  CD1       27.9500  103.1760  -45.6370 C.3    18  ILE18       0.0001
     81  N         22.9770   98.8410  -50.9210 N.3    21  VAL21      -0.1245
     82  CA        21.8280   98.5860  -50.0630 C.3    21  VAL21       0.1561
     83  C         20.7160   99.6150  -50.2870 C.2    21  VAL21       0.2260
     84  O         19.5840   99.2450  -50.6070 O.2    21  VAL21      -0.2867
     85  CB        22.1500   98.6100  -48.5560 C.3    21  VAL21       0.0252
     86  CG1       21.0610   97.8340  -47.8180 C.3    21  VAL21       0.0019
     87  CG2       23.5160   98.0300  -48.2590 C.3    21  VAL21       0.0019
     88  N         29.4460   98.7770  -37.3300 N.3    51  THR51      -0.1218
     89  CA        28.6970   98.4980  -38.5530 C.3    51  THR51       0.1862
     90  C         27.2060   98.5710  -38.2820 C.2    51  THR51       0.2287
     91  O         26.4530   99.1460  -39.0680 O.2    51  THR51      -0.2866
     92  CB        29.1720   97.1320  -39.0810 C.3    51  THR51       0.1770
     93  OG1       28.4500   96.8000  -40.2690 O.3    51  THR51      -0.2211
     94  CG2       29.0160   96.0700  -37.9960 C.3    51  THR51       0.0375
     95  N         26.0520  102.1350  -38.4200 N.3    54  ILE54      -0.1231
     96  CA        25.8540  102.5740  -39.7940 C.3    54  ILE54       0.1692
     97  C         24.4290  102.2340  -40.2340 C.2    54  ILE54       0.2592
     98  O         23.7390  103.0990  -40.7760 O.2    54  ILE54      -0.2718
     99  CB        26.8260  101.9120  -40.7900 C.3    54  ILE54       0.0266
    100  CG1       28.2800  102.1870  -40.4110 C.3    54  ILE54       0.0019
    101  CG2       26.4960  102.3300  -42.2180 C.3    54  ILE54       0.0020
    102  CD1       28.9650  103.3680  -41.0610 C.3    54  ILE54       0.0001
    103  N         24.0050  100.9930  -39.9930 N.am   55  HIS55      -0.1976
    104  CA        22.6640  100.5840  -40.3620 C.3    55  HIS55       0.1656
    105  C         21.5980  101.4500  -39.7140 C.2    55  HIS55       0.2291
    106  O         20.7430  101.9730  -40.4270 O.2    55  HIS55      -0.2864
    107  CB        22.4110   99.1110  -40.0010 C.3    55  HIS55       0.0771
    108  CG        21.9770   98.3860  -41.2440 C.ar   55  HIS55       0.0820
    109  ND1       20.8840   98.8020  -41.9860 N.ar   55  HIS55      -0.2267
    110  CD2       22.5160   97.3180  -41.8800 C.ar   55  HIS55       0.1154
    111  CE1       20.7540   98.0000  -43.0360 C.ar   55  HIS55       0.1986
    112  NE2       21.7240   97.0940  -42.9910 N.ar   55  HIS55      -0.2212
    113  N         21.4200  105.0580  -41.3480 N.3    58  ILE58      -0.1245
    114  CA        20.6820  105.1900  -42.6070 C.3    58  ILE58       0.1561
    115  C         19.2110  104.8600  -42.4220 C.2    58  ILE58       0.2260
    116  O         18.3810  105.4890  -43.0960 O.2    58  ILE58      -0.2867
    117  CB        21.3040  104.4260  -43.7690 C.3    58  ILE58       0.0252
    118  CG1       21.0650  102.9180  -43.6770 C.3    58  ILE58       0.0019
    119  CG2       22.8060  104.7130  -43.8370 C.3    58  ILE58       0.0019
    120  CD1       21.4020  102.2030  -44.9730 C.3    58  ILE58       0.0001
    121  N         16.2290   94.4800  -43.6440 N.3    83  PHE83      -0.1241
    122  CA        17.5550   93.9760  -43.9830 C.3    83  PHE83       0.1605
    123  C         18.3900   93.7610  -42.7220 C.2    83  PHE83       0.2264
    124  O         18.8910   92.6790  -42.4080 O.2    83  PHE83      -0.2867
    125  CB        18.2600   94.9470  -44.9410 C.3    83  PHE83       0.0534
    126  CG        19.5950   94.4410  -45.4120 C.ar   83  PHE83      -0.0203
    127  CD1       20.7600   94.6880  -44.6990 C.ar   83  PHE83      -0.0042
    128  CD2       19.6870   93.6960  -46.5740 C.ar   83  PHE83      -0.0042
    129  CE1       21.9830   94.2040  -45.1310 C.ar   83  PHE83      -0.0003
    130  CE2       20.9010   93.2060  -47.0220 C.ar   83  PHE83      -0.0003
    131  CZ        22.0510   93.4660  -46.2940 C.ar   83  PHE83      -0.0000
    132  N         20.0290   90.2100  -40.9840 N.3    87  LYS87      -0.1245
    133  CA        21.3930   90.0160  -40.4850 C.3    87  LYS87       0.1561
    134  C         21.3730   89.7860  -38.9800 C.2    87  LYS87       0.2260
    135  O         21.7030   88.6960  -38.5040 O.2    87  LYS87      -0.2867
    136  CB        22.2780   91.2090  -40.8470 C.3    87  LYS87       0.0271
    137  CG        22.5510   91.3420  -42.3330 C.3    87  LYS87       0.0035
    138  CD        23.6500   90.3960  -42.8030 C.3    87  LYS87       0.0206
    139  CE        23.8200   90.4550  -44.3190 C.3    87  LYS87       0.1093
    140  NZ        25.2430   90.2700  -44.7390 N.3    87  LYS87      -0.1314
@<TRIPOS>BOND
     1    81    82    1
     2    64    65    1
     3    84    83    2
     4    83    82    1
     5    65    66    1
     6    65    68    1
     7    82    85    1
     8    67    66    2
     9    62    61    2
    10    66    73   am
    11    76    75    2
    12    61    60    1
    13    61    63   am
    14    75    74    1
    15    69    68    1
    16    69    70    1
    17    60    57    1
    18    73    74    1
    19    58    57    1
    20    58    59    2
    21    57    56    1
    22    71    70    1
    23    71    72    1
    24    85    87    1
    25    85    86    1
    26    74    77    1
    27    46    45    1
    28    77    79    1
    29    77    78    1
    30    51    50    2
    31    56    50   am
    32   130   128   ar
    33   130   131   ar
    34    50    49    1
    35    45    44    2
    36    45    47    1
    37    43    44    1
    38    43    42    1
    39   128   126   ar
    40    78    80    1
    41   131   129   ar
    42    42    41    1
    43   126   125    1
    44   126   127   ar
    45    54    52    1
    46    49    52    1
    47    49    48    1
    48    41    38    1
    49    40    39    2
    50   129   127   ar
    51    36    34   ar
    52   120   118    1
    53   125   122    1
    54    52    53    1
    55   140   139    1
    56    39    48   am
    57    39    38    1
    58    34    35   ar
    59    34    33    1
    60   139   138    1
    61    38    37    1
    62   122   121    1
    63   122   123    1
    64    33    32    1
    65   119   117    1
    66   117   118    1
    67   117   114    1
    68    37    30   am
    69    53    55    1
    70   116   115    2
    71   111   112   ar
    72   111   109   ar
    73   112   110   ar
    74   138   137    1
    75   123   124    2
    76   114   115    1
    77   114   113    1
    78    32    29    1
    79    30    29    1
    80    30    31    2
    81   137   136    1
    82   101    99    1
    83   109   108   ar
    84   110   108   ar
    85    29    28    1
    86   108   107    1
    87    16    15    1
    88     7     5    1
    89   102   100    1
    90   132   133    1
    91    15    14    1
    92   136   133    1
    93    99   100    1
    94    99    96    1
    95    98    97    2
    96     5     6    1
    97     5     2    1
    98   133   134    1
    99   106   105    2
   100   104   107    1
   101   104   103    1
   102   104   105    1
   103    93    92    1
   104    97   103   am
   105    97    96    1
   106     1     2    1
   107    96    95    1
   108     2     3    1
   109    14    13    1
   110    13    12    1
   111    92    89    1
   112    92    94    1
   113    91    90    2
   114   134   135    2
   115     4     3    2
   116    89    90    1
   117    89    88    1
   118    12     9    1
   119    27    25    1
   120    25    24    2
   121    25    26    1
   122     9     8    1
   123     9    10    1
   124    24    23    1
   125    22    23    1
   126    22    21    1
   127    17    10   am
   128    17    18    1
   129    10    11    2
   130    21    18    1
   131    18    19    1
   132    19    20    2
