@<TRIPOS>MOLECULE
tmp/3r1sA00.pdb
 163 153 0 0 0
SMALL
GASTEIGER

@<TRIPOS>ATOM
      1  N         68.0190   92.0540   -8.0000 N.3     8  GLU8       -0.1245
      2  CA        67.7890   91.4140   -6.7090 C.3     8  GLU8        0.1567
      3  C         68.4240   90.0320   -6.6960 C.2     8  GLU8        0.2260
      4  O         68.8450   89.5200   -7.7340 O.2     8  GLU8       -0.2867
      5  CB        66.2910   91.2660   -6.4160 C.3     8  GLU8        0.0388
      6  CG        65.5950   90.1730   -7.2170 C.3     8  GLU8        0.1160
      7  CD        64.2710   89.7460   -6.6030 C.2     8  GLU8        0.3649
      8  OE1       64.2680   89.3710   -5.4110 O.co2   8  GLU8       -0.2457
      9  OE2       63.2380   89.7770   -7.3080 O.co2   8  GLU8       -0.2457
     10  N         67.9300   86.2840   -6.4850 N.3    10  ILE10      -0.1245
     11  CA        66.8910   85.2810   -6.6610 C.3    10  ILE10       0.1561
     12  C         66.9920   84.2950   -5.5090 C.2    10  ILE10       0.2260
     13  O         66.0920   84.2110   -4.6720 O.2    10  ILE10      -0.2867
     14  CB        67.0510   84.5180   -7.9940 C.3    10  ILE10       0.0252
     15  CG1       66.8180   85.4670   -9.1720 C.3    10  ILE10       0.0019
     16  CG2       66.0740   83.3520   -8.0420 C.3    10  ILE10       0.0019
     17  CD1       66.9420   84.8050  -10.5310 C.3    10  ILE10       0.0001
     18  N         71.6740   78.9810   -5.5020 N.3    13  GLY13      -0.1225
     19  CA        71.7700   77.7620   -6.2850 C.3    13  GLY13       0.1811
     20  C         72.7200   76.7180   -5.7250 C.2    13  GLY13       0.2280
     21  O         73.3360   76.9130   -4.6730 O.2    13  GLY13      -0.2866
     22  N         72.4160   83.3020   -7.1850 N.3    18  VAL18      -0.1245
     23  CA        71.8220   83.6620   -8.4680 C.3    18  VAL18       0.1561
     24  C         71.1470   85.0120   -8.3230 C.2    18  VAL18       0.2260
     25  O         70.4260   85.2420   -7.3600 O.2    18  VAL18      -0.2867
     26  CB        70.7550   82.6440   -8.9080 C.3    18  VAL18       0.0252
     27  CG1       70.3280   82.9300  -10.3400 C.3    18  VAL18       0.0019
     28  CG2       71.2960   81.2360   -8.7960 C.3    18  VAL18       0.0019
     29  N         68.9610   88.3310  -10.3860 N.3    20  LYS20      -0.1245
     30  CA        68.1490   88.7290  -11.5230 C.3    20  LYS20       0.1561
     31  C         68.9060   89.9880  -11.8590 C.2    20  LYS20       0.2260
     32  O         69.1910   90.7980  -10.9740 O.2    20  LYS20      -0.2867
     33  CB        66.7260   89.0700  -11.0900 C.3    20  LYS20       0.0271
     34  CG        65.8400   89.5830  -12.2220 C.3    20  LYS20       0.0035
     35  CD        64.4280   89.8420  -11.7100 C.3    20  LYS20       0.0206
     36  CE        63.4950   90.3570  -12.8050 C.3    20  LYS20       0.1093
     37  NZ        62.1170   90.5930  -12.2780 N.3    20  LYS20      -0.1314
     38  N         69.2310   86.0840  -15.7510 N.3    31  ALA31      -0.1245
     39  CA        69.5310   85.4340  -14.4780 C.3    31  ALA31       0.1562
     40  C         71.0520   85.2860  -14.5120 C.2    31  ALA31       0.2260
     41  O         71.6130   84.7520  -15.4690 O.2    31  ALA31      -0.2867
     42  CB        68.8720   84.0650  -14.3920 C.3    31  ALA31       0.0290
     43  N         74.3390   83.7440  -12.6080 N.3    33  LYS33      -0.1245
     44  CA        74.7940   82.8150  -11.5870 C.3    33  LYS33       0.1561
     45  C         76.3110   82.9120  -11.4680 C.2    33  LYS33       0.2260
     46  O         77.0280   82.7650  -12.4570 O.2    33  LYS33      -0.2867
     47  CB        74.3710   81.3890  -11.9500 C.3    33  LYS33       0.0271
     48  CG        74.5750   80.3670  -10.8280 C.3    33  LYS33       0.0035
     49  CD        73.9540   79.0300  -11.2060 C.3    33  LYS33       0.0206
     50  CE        74.2730   77.9250  -10.1880 C.3    33  LYS33       0.1093
     51  NZ        73.6600   78.1230   -8.8380 N.3    33  LYS33      -0.1314
     52  N         66.2920   76.2420  -20.8890 N.3    60  VAL60      -0.1245
     53  CA        66.6410   77.6170  -20.5350 C.3    60  VAL60       0.1561
     54  C         67.9400   77.9900  -21.2640 C.2    60  VAL60       0.2260
     55  O         68.9760   77.3610  -21.0760 O.2    60  VAL60      -0.2867
     56  CB        66.8430   77.7660  -19.0050 C.3    60  VAL60       0.0252
     57  CG1       67.2610   79.1780  -18.6640 C.3    60  VAL60       0.0019
     58  CG2       65.5330   77.4400  -18.2870 C.3    60  VAL60       0.0019
     59  N         71.9140   83.4100  -18.0060 N.3    76  PHE76      -0.1227
     60  CA        70.8030   82.6300  -18.5410 C.3    76  PHE76       0.1736
     61  C         69.6010   83.4850  -18.8600 C.2    76  PHE76       0.2595
     62  O         69.4140   84.5540  -18.2810 O.2    76  PHE76      -0.2718
     63  CB        70.3290   81.6040  -17.5010 C.3    76  PHE76       0.0547
     64  CG        71.3170   80.5220  -17.2050 C.ar   76  PHE76      -0.0202
     65  CD1       71.4910   79.4560  -18.0880 C.ar   76  PHE76      -0.0042
     66  CD2       72.0490   80.5460  -16.0240 C.ar   76  PHE76      -0.0042
     67  CE1       72.3860   78.4210  -17.7920 C.ar   76  PHE76      -0.0003
     68  CE2       72.9470   79.5160  -15.7200 C.ar   76  PHE76      -0.0003
     69  CZ        73.1110   78.4550  -16.6080 C.ar   76  PHE76      -0.0000
     70  N         68.7640   82.9950  -19.7670 N.am   77  GLU77      -0.1965
     71  CA        67.5320   83.7140  -20.0720 C.3    77  GLU77       0.1733
     72  C         66.7440   83.6660  -18.7560 C.2    77  GLU77       0.2616
     73  O         66.8660   82.7150  -17.9770 O.2    77  GLU77      -0.2715
     74  CB        66.7400   83.0240  -21.1940 C.3    77  GLU77       0.0429
     75  CG        65.9690   81.7980  -20.7810 C.3    77  GLU77       0.1163
     76  CD        65.0910   81.2240  -21.8960 C.2    77  GLU77       0.3649
     77  OE1       63.9980   81.7680  -22.1630 O.co2  77  GLU77      -0.2457
     78  OE2       65.4920   80.2160  -22.5040 O.co2  77  GLU77      -0.2457
     79  N         65.9430   84.6890  -18.5040 N.am   78  PHE78      -0.1960
     80  CA        65.1860   84.7600  -17.2590 C.3    78  PHE78       0.1771
     81  C         63.7300   84.3200  -17.3860 C.2    78  PHE78       0.2619
     82  O         63.0730   84.6570  -18.3690 O.2    78  PHE78      -0.2715
     83  CB        65.2290   86.2070  -16.7340 C.3    78  PHE78       0.0574
     84  CG        64.4220   86.4360  -15.4960 C.ar   78  PHE78      -0.0200
     85  CD1       63.1180   86.9230  -15.5730 C.ar   78  PHE78      -0.0042
     86  CD2       64.9630   86.1600  -14.2430 C.ar   78  PHE78      -0.0042
     87  CE1       62.3760   87.1310  -14.4370 C.ar   78  PHE78      -0.0003
     88  CE2       64.2250   86.3630  -13.0910 C.ar   78  PHE78      -0.0003
     89  CZ        62.9270   86.8500  -13.1820 C.ar   78  PHE78      -0.0000
     90  N         63.2540   83.5400  -16.4130 N.am   79  LEU79      -0.1963
     91  CA        61.8490   83.1240  -16.3420 C.3    79  LEU79       0.1728
     92  C         61.4200   83.4950  -14.9340 C.2    79  LEU79       0.2616
     93  O         62.2030   83.3710  -13.9940 O.2    79  LEU79      -0.2715
     94  CB        61.6430   81.6220  -16.6060 C.3    79  LEU79       0.0311
     95  CG        61.6040   81.3090  -18.1110 C.3    79  LEU79       0.0022
     96  CD1       63.0080   80.9800  -18.5860 C.3    79  LEU79       0.0001
     97  CD2       60.6950   80.1430  -18.4060 C.3    79  LEU79       0.0001
     98  N         60.1760   83.9510  -14.7980 N.am   80  HIS80      -0.1959
     99  CA        59.6590   84.4400  -13.5280 C.3    80  HIS80       0.1787
    100  C         59.3330   83.4750  -12.3970 C.2    80  HIS80       0.2620
    101  O         59.2450   83.8900  -11.2380 O.2    80  HIS80      -0.2715
    102  CB        58.4180   85.2990  -13.7970 C.3    80  HIS80       0.0785
    103  CG        58.7270   86.6250  -14.4250 C.ar   80  HIS80       0.0821
    104  ND1       58.9200   86.7840  -15.7820 N.ar   80  HIS80      -0.2267
    105  CD2       58.9050   87.8500  -13.8710 C.ar   80  HIS80       0.1154
    106  CE1       59.2060   88.0510  -16.0350 C.ar   80  HIS80       0.1986
    107  NE2       59.2040   88.7180  -14.8950 N.ar   80  HIS80      -0.2212
    108  N         59.1370   82.2000  -12.6970 N.am   81  GLN81      -0.1963
    109  CA        58.7870   81.2910  -11.6050 C.3    81  GLN81       0.1733
    110  C         59.2860   79.8840  -11.8550 C.2    81  GLN81       0.2616
    111  O         59.5300   79.5050  -12.9990 O.2    81  GLN81      -0.2715
    112  CB        57.2730   81.2820  -11.4350 C.3    81  GLN81       0.0408
    113  CG        56.7470   80.5890  -10.1750 C.3    81  GLN81       0.0908
    114  CD        55.3360   81.0290   -9.8530 C.2    81  GLN81       0.2608
    115  OE1       55.1080   82.1870   -9.4950 O.2    81  GLN81      -0.2717
    116  NE2       54.3780   80.1240   -9.9970 N.am   81  GLN81      -0.0878
    117  N         59.4570   79.1180  -10.7800 N.am   82  ASP82      -0.1971
    118  CA        59.8950   77.7360  -10.9290 C.3    82  ASP82       0.1709
    119  C         58.7280   76.8260  -10.5540 C.2    82  ASP82       0.2293
    120  O         57.7570   77.2750   -9.9420 O.2    82  ASP82      -0.2864
    121  CB        61.1400   77.4240  -10.0750 C.3    82  ASP82       0.1436
    122  CG        60.8990   77.5900   -8.5740 C.2    82  ASP82       0.3671
    123  OD1       59.9280   77.0170   -8.0370 O.co2  82  ASP82      -0.2456
    124  OD2       61.7000   78.2990   -7.9360 O.co2  82  ASP82      -0.2456
    125  N         57.6850   76.5210   -6.6910 N.3    85  LYS85      -0.1245
    126  CA        56.8090   77.5630   -6.1850 C.3    85  LYS85       0.1561
    127  C         55.4020   77.4020   -6.7430 C.2    85  LYS85       0.2260
    128  O         54.4200   77.5760   -6.0230 O.2    85  LYS85      -0.2867
    129  CB        57.3520   78.9560   -6.5400 C.3    85  LYS85       0.0271
    130  CG        56.4510   80.0790   -6.0490 C.3    85  LYS85       0.0035
    131  CD        57.1010   81.4500   -6.2240 C.3    85  LYS85       0.0206
    132  CE        56.1760   82.5590   -5.7230 C.3    85  LYS85       0.1093
    133  NZ        56.7750   83.9090   -5.9500 N.3    85  LYS85      -0.1314
    134  N         62.6870   72.8590   -8.5950 N.3   127  GLN127     -0.1245
    135  CA        63.2980   74.1770   -8.5870 C.3   127  GLN127      0.1566
    136  C         64.0970   74.4970   -9.8480 C.2   127  GLN127      0.2260
    137  O         64.3540   75.6720  -10.1100 O.2   127  GLN127     -0.2867
    138  CB        64.1770   74.3500   -7.3350 C.3   127  GLN127      0.0367
    139  CG        65.3060   73.3510   -7.2030 C.3   127  GLN127      0.0905
    140  CD        66.0200   73.4590   -5.8700 C.2   127  GLN127      0.2608
    141  OE1       66.6960   74.4500   -5.5910 O.2   127  GLN127     -0.2717
    142  NE2       65.8640   72.4390   -5.0330 N.am  127  GLN127     -0.0878
    143  N         61.6130   75.8490  -14.9300 N.3   130  LEU130     -0.1245
    144  CA        61.0690   77.2030  -14.9520 C.3   130  LEU130      0.1561
    145  C         59.8810   77.3680  -15.8930 C.2   130  LEU130      0.2260
    146  O         59.8320   76.7840  -16.9790 O.2   130  LEU130     -0.2867
    147  CB        62.1860   78.1760  -15.3170 C.3   130  LEU130      0.0270
    148  CG        63.4880   77.9030  -14.5470 C.3   130  LEU130      0.0019
    149  CD1       64.5370   78.9670  -14.9140 C.3   130  LEU130      0.0001
    150  CD2       63.2130   77.9100  -13.0220 C.3   130  LEU130      0.0001
    151  N         66.3730   73.9650  -16.6380 N.3   140  ALA140     -0.1231
    152  CA        67.5100   74.8320  -16.3410 C.3   140  ALA140      0.1694
    153  C         68.6550   74.0130  -15.7530 C.2   140  ALA140      0.2592
    154  O         68.4190   73.0550  -15.0180 O.2   140  ALA140     -0.2718
    155  CB        67.0880   75.9260  -15.3470 C.3   140  ALA140      0.0304
    156  N         69.8830   74.4150  -16.0830 N.am  141  ASP141     -0.1974
    157  CA        71.1060   73.7650  -15.6090 C.3   141  ASP141      0.1709
    158  C         71.5090   72.4620  -16.2880 C.2   141  ASP141      0.2293
    159  O         72.2780   71.6890  -15.7320 O.2   141  ASP141     -0.2864
    160  CB        71.0440   73.5670  -14.0960 C.3   141  ASP141      0.1436
    161  CG        71.0260   74.8840  -13.3560 C.2   141  ASP141      0.3671
    162  OD1       70.8590   74.8900  -12.1190 O.co2 141  ASP141     -0.2456
    163  OD2       71.1820   75.9260  -14.0250 O.co2 141  ASP141     -0.2456
@<TRIPOS>BOND
     1    78    76   ar
     2    77    76   ar
     3    76    75    1
     4    54    55    2
     5    54    53    1
     6    74    75    1
     7    74    71    1
     8    52    53    1
     9    53    56    1
    10    71    70    1
    11    71    72    1
    12    70    61   am
    13    56    57    1
    14    56    58    1
    15    61    60    1
    16    61    62    2
    17    72    79   am
    18    72    73    2
    19    96    95    1
    20    60    59    1
    21    60    63    1
    22    79    80    1
    23    97    95    1
    24    82    81    2
    25    95    94    1
    26    65    67   ar
    27    65    64   ar
    28    67    69   ar
    29    63    64    1
    30    81    80    1
    31    81    90   am
    32    80    83    1
    33    64    66   ar
    34   146   145    2
    35    83    84    1
    36   151   152    1
    37    69    68   ar
    38    94    91    1
    39    90    91    1
    40    91    92    1
    41   152   153    1
    42   152   155    1
    43   158   159    2
    44   158   157    1
    45   156   153   am
    46   156   157    1
    47   106   104   ar
    48   106   107   ar
    49    66    68   ar
    50   145   144    1
    51   104   103   ar
    52   153   154    2
    53    38    39    1
    54   157   160    1
    55    85    84   ar
    56    85    87   ar
    57    84    86   ar
    58    41    40    2
    59   147   144    1
    60   147   148    1
    61   144   143    1
    62    92    98   am
    63    92    93    2
    64   149   148    1
    65   107   105   ar
    66    98    99    1
    67   148   150    1
    68    40    39    1
    69    39    42    1
    70    87    89   ar
    71   103   105   ar
    72   103   102    1
    73    86    88   ar
    74   160   161    1
    75   163   161   ar
    76   102    99    1
    77    99   100    1
    78   161   162   ar
    79    89    88   ar
    80   111   110    2
    81    36    37    1
    82    36    35    1
    83   108   100   am
    84   108   109    1
    85    43    44    1
    86    46    45    2
    87   100   101    2
    88    34    35    1
    89    34    33    1
    90    47    44    1
    91    47    48    1
    92    31    30    1
    93    31    32    2
    94   110   109    1
    95   110   117   am
    96   109   112    1
    97    44    45    1
    98    30    33    1
    99    30    29    1
   100   112   113    1
   101    49    48    1
   102    49    50    1
   103   118   117    1
   104   118   119    1
   105   118   121    1
   106   119   120    2
   107    17    15    1
   108    27    26    1
   109    50    51    1
   110   113   114    1
   111   137   136    2
   112   121   122    1
   113   116   114   am
   114   114   115    2
   115   136   135    1
   116    15    14    1
   117    26    28    1
   118    26    23    1
   119   134   135    1
   120   135   138    1
   121   122   123   ar
   122   122   124   ar
   123    23    24    1
   124    23    22    1
   125    24    25    2
   126    16    14    1
   127     1     2    1
   128    14    11    1
   129     4     3    2
   130   138   139    1
   131     9     7   ar
   132     6     7    1
   133     6     5    1
   134   139   140    1
   135   127   126    1
   136   127   128    2
   137     2     3    1
   138     2     5    1
   139   125   126    1
   140    11    10    1
   141    11    12    1
   142     7     8   ar
   143   129   126    1
   144   129   130    1
   145    19    20    1
   146    19    18    1
   147   131   130    1
   148   131   132    1
   149   133   132    1
   150   140   141    2
   151   140   142   am
   152    20    21    2
   153    12    13    2
