@<TRIPOS>MOLECULE
tmp/3r1vA00.pdb
 179 171 0 0 0
SMALL
GASTEIGER

@<TRIPOS>ATOM
      1  N         -4.1380   -5.4190    9.3710 N.3    29  LEU29      -0.1245
      2  CA        -2.9650   -5.7060   10.1970 C.3    29  LEU29       0.1561
      3  C         -2.3140   -7.0500    9.9090 C.2    29  LEU29       0.2260
      4  O         -1.0900   -7.1340    9.9580 O.2    29  LEU29      -0.2867
      5  CB        -3.2760   -5.5660   11.6990 C.3    29  LEU29       0.0270
      6  CG        -3.9200   -4.2530   12.1660 C.3    29  LEU29       0.0019
      7  CD1       -4.2870   -4.3260   13.6300 C.3    29  LEU29       0.0001
      8  CD2       -3.0220   -3.0500   11.8940 C.3    29  LEU29       0.0001
      9  N          1.3970   -8.4390    8.4750 N.3    32  CYS32      -0.1235
     10  CA         2.6320   -8.6010    9.2540 C.3    32  CYS32       0.1677
     11  C          3.0050  -10.0680    9.5050 C.2    32  CYS32       0.2270
     12  O          4.1600  -10.3530    9.8330 O.2    32  CYS32      -0.2867
     13  CB         2.5970   -7.7880   10.5470 C.3    32  CYS32       0.0956
     14  SG         1.2320   -8.2050   11.6650 S.3    32  CYS32      -0.0801
     15  N          5.2480   -5.0050    7.0030 N.3    37  VAL37      -0.1231
     16  CA         4.5750   -3.9800    7.8120 C.3    37  VAL37       0.1678
     17  C          3.3710   -3.4090    7.0320 C.2    37  VAL37       0.2438
     18  O          3.5480   -3.0190    5.8730 O.2    37  VAL37      -0.2733
     19  CB         5.5630   -2.8800    8.2990 C.3    37  VAL37       0.0265
     20  CG1        4.8720   -1.8630    9.2070 C.3    37  VAL37       0.0020
     21  CG2        6.7570   -3.5020    9.0160 C.3    37  VAL37       0.0020
     22  N          2.1400   -3.4060    7.6160 N.am   38  PRO38      -0.2653
     23  CA         0.9760   -2.8810    6.8670 C.3    38  PRO38       0.1628
     24  C          1.1230   -1.4140    6.4600 C.2    38  PRO38       0.2315
     25  O          1.5830   -0.5950    7.2540 O.2    38  PRO38      -0.2861
     26  CB        -0.2230   -3.1300    7.7900 C.2    38  PRO38      -0.0016
     27  CG         0.2910   -3.7680    9.0040 C.2    38  PRO38      -0.0072
     28  CD         1.7720   -3.8610    8.9740 C.3    38  PRO38       0.1203
     29  N         -2.3880    2.7730   13.8180 N.3    46  TYR46      -0.1227
     30  CA        -2.5510    1.7240   14.8260 C.3    46  TYR46       0.1736
     31  C         -1.1910    1.5120   15.4990 C.2    46  TYR46       0.2595
     32  O         -1.1270    1.4010   16.7250 O.2    46  TYR46      -0.2718
     33  CB        -3.0720    0.4200   14.1770 C.3    46  TYR46       0.0548
     34  CG        -2.8550   -0.8290   15.0070 C.ar   46  TYR46      -0.0200
     35  CD1       -3.7840   -1.2250   15.9640 C.ar   46  TYR46      -0.0009
     36  CD2       -1.7260   -1.6220   14.8270 C.ar   46  TYR46      -0.0009
     37  CE1       -3.5850   -2.3690   16.7340 C.ar   46  TYR46       0.0417
     38  CE2       -1.5250   -2.7780   15.5760 C.ar   46  TYR46       0.0417
     39  CZ        -2.4510   -3.1410   16.5380 C.ar   46  TYR46       0.1957
     40  OH        -2.2390   -4.2740   17.2840 O.3    46  TYR46      -0.2866
     41  N         -0.1120    1.4650   14.6840 N.am   47  ILE47      -0.1980
     42  CA         1.2760    1.2960   15.1260 C.3    47  ILE47       0.1595
     43  C          1.6700    2.4580   16.0490 C.2    47  ILE47       0.2287
     44  O          2.2410    2.2130   17.1140 O.2    47  ILE47      -0.2864
     45  CB         2.2490    1.1210   13.9210 C.3    47  ILE47       0.0276
     46  CG1        1.8990   -0.1300   13.0830 C.3    47  ILE47       0.0022
     47  CG2        3.6990    1.0530   14.3930 C.3    47  ILE47       0.0022
     48  CD1        2.4170   -0.1210   11.6180 C.3    47  ILE47       0.0001
     49  N         -0.0250    2.1010   19.5220 N.3    50  LEU50      -0.1231
     50  CA         0.6480    1.0860   20.3460 C.3    50  LEU50       0.1693
     51  C          1.8010    1.6960   21.1290 C.2    50  LEU50       0.2592
     52  O          1.8760    1.5190   22.3430 O.2    50  LEU50      -0.2718
     53  CB         1.1790   -0.0890   19.5000 C.3    50  LEU50       0.0284
     54  CG         0.1910   -0.9860   18.7640 C.3    50  LEU50       0.0019
     55  CD1        0.9320   -1.9610   17.9020 C.3    50  LEU50       0.0001
     56  CD2       -0.6900   -1.7590   19.7200 C.3    50  LEU50       0.0001
     57  N          2.6780    2.4400   20.4300 N.am   51  PHE51      -0.1976
     58  CA         3.8320    3.1110   21.0140 C.3    51  PHE51       0.1639
     59  C          3.4270    4.2510   21.9420 C.2    51  PHE51       0.2290
     60  O          4.1030    4.4850   22.9470 O.2    51  PHE51      -0.2864
     61  CB         4.7760    3.6200   19.9160 C.3    51  PHE51       0.0560
     62  CG         5.5140    2.5640   19.1340 C.ar   51  PHE51      -0.0200
     63  CD1        5.4980    2.5690   17.7480 C.ar   51  PHE51      -0.0042
     64  CD2        6.2410    1.5720   19.7830 C.ar   51  PHE51      -0.0042
     65  CE1        6.2030    1.6080   17.0250 C.ar   51  PHE51      -0.0003
     66  CE2        6.9290    0.6000   19.0590 C.ar   51  PHE51      -0.0003
     67  CZ         6.9050    0.6240   17.6850 C.ar   51  PHE51      -0.0000
     68  N         12.5530    3.2000   22.0810 N.3    66  LEU66      -0.1245
     69  CA        12.4540    1.8040   22.5180 C.3    66  LEU66       0.1561
     70  C         13.2840    1.5380   23.7820 C.2    66  LEU66       0.2260
     71  O         12.9790    0.5990   24.5190 O.2    66  LEU66      -0.2867
     72  CB        12.8340    0.8470   21.3730 C.3    66  LEU66       0.0270
     73  CG        12.1520   -0.5230   21.3590 C.3    66  LEU66       0.0019
     74  CD1       10.6620   -0.4000   21.0570 C.3    66  LEU66       0.0001
     75  CD2       12.7970   -1.4300   20.3340 C.3    66  LEU66       0.0001
     76  N         11.5780    1.3850   27.5720 N.3    69  LEU69      -0.1245
     77  CA        11.0410    0.1230   28.1010 C.3    69  LEU69       0.1561
     78  C         11.9910   -0.5610   29.0720 C.2    69  LEU69       0.2260
     79  O         11.5320   -1.3410   29.9080 O.2    69  LEU69      -0.2867
     80  CB        10.7150   -0.8560   26.9670 C.3    69  LEU69       0.0270
     81  CG         9.6670   -0.4460   25.9400 C.3    69  LEU69       0.0019
     82  CD1        9.4790   -1.5430   24.9160 C.3    69  LEU69       0.0001
     83  CD2        8.3240   -0.1360   26.6020 C.3    69  LEU69       0.0001
     84  N         16.2310   -8.1140   27.6890 N.3    77  VAL77      -0.1245
     85  CA        15.8540   -7.4740   26.4290 C.3    77  VAL77       0.1561
     86  C         16.8860   -6.4150   25.9660 C.2    77  VAL77       0.2260
     87  O         16.7940   -5.9330   24.8380 O.2    77  VAL77      -0.2867
     88  CB        14.3860   -6.9550   26.5000 C.3    77  VAL77       0.0252
     89  CG1       14.2940   -5.5770   27.1500 C.3    77  VAL77       0.0019
     90  CG2       13.7130   -6.9680   25.1320 C.3    77  VAL77       0.0019
     91  N         18.8100   -6.9720   22.5150 N.3    80  ALA80      -0.1231
     92  CA        17.8030   -6.9030   21.4560 C.3    80  ALA80       0.1694
     93  C         17.3280   -5.4580   21.2580 C.2    80  ALA80       0.2591
     94  O         17.2050   -5.0140   20.1160 O.2    80  ALA80      -0.2718
     95  CB        16.6250   -7.8070   21.7910 C.3    80  ALA80       0.0304
     96  N         17.0950   -4.7220   22.3710 N.am   81  VAL81      -0.1980
     97  CA        16.6640   -3.3190   22.3700 C.3    81  VAL81       0.1595
     98  C         17.7910   -2.4030   21.8720 C.2    81  VAL81       0.2287
     99  O         17.5620   -1.6330   20.9360 O.2    81  VAL81      -0.2864
    100  CB        16.0560   -2.8760   23.7360 C.3    81  VAL81       0.0276
    101  CG1       16.0170   -1.3550   23.8880 C.3    81  VAL81       0.0022
    102  CG2       14.6620   -3.4660   23.9290 C.3    81  VAL81       0.0022
    103  N         18.1670   -2.5020   18.0700 N.3    84  LEU84      -0.1245
    104  CA        17.0500   -1.8390   17.3880 C.3    84  LEU84       0.1561
    105  C         17.1250   -0.3200   17.5470 C.2    84  LEU84       0.2260
    106  O         16.7930    0.3980   16.6090 O.2    84  LEU84      -0.2867
    107  CB        15.6830   -2.3760   17.8590 C.3    84  LEU84       0.0270
    108  CG        15.3560   -3.8420   17.5280 C.3    84  LEU84       0.0019
    109  CD1       14.1770   -4.3320   18.3390 C.3    84  LEU84       0.0001
    110  CD2       15.0890   -4.0450   16.0400 C.3    84  LEU84       0.0001
    111  N          9.0300    0.6680   12.5900 N.3   104  VAL104     -0.1245
    112  CA         8.6820   -0.7580   12.6590 C.3   104  VAL104      0.1561
    113  C          9.2060   -1.4920   11.4220 C.2   104  VAL104      0.2260
    114  O          9.6770   -2.6250   11.5320 O.2   104  VAL104     -0.2867
    115  CB         7.1660   -0.9580   12.9360 C.3   104  VAL104      0.0252
    116  CG1        6.6990   -2.3780   12.6390 C.3   104  VAL104      0.0019
    117  CG2        6.8490   -0.6040   14.3750 C.3   104  VAL104      0.0019
    118  N         12.6310   -2.0390   12.2170 N.3   107  TYR107     -0.1227
    119  CA        12.6950   -3.0860   13.2530 C.3   107  TYR107      0.1736
    120  C         12.6310   -4.4730   12.6140 C.2   107  TYR107      0.2595
    121  O         13.4200   -5.3510   12.9700 O.2   107  TYR107     -0.2718
    122  CB        11.5310   -2.9610   14.2660 C.3   107  TYR107      0.0548
    123  CG        11.5830   -1.8040   15.2430 C.ar  107  TYR107     -0.0200
    124  CD1       10.4750   -1.4730   16.0180 C.ar  107  TYR107     -0.0009
    125  CD2       12.7490   -1.0630   15.4230 C.ar  107  TYR107     -0.0009
    126  CE1       10.5170   -0.4180   16.9280 C.ar  107  TYR107      0.0417
    127  CE2       12.8000   -0.0030   16.3240 C.ar  107  TYR107      0.0417
    128  CZ        11.6840    0.3080   17.0820 C.ar  107  TYR107      0.1957
    129  OH        11.7280    1.3510   17.9690 O.3   107  TYR107     -0.2866
    130  N         11.6800   -4.6540   11.6770 N.am  108  PHE108     -0.1976
    131  CA        11.4330   -5.8870   10.9320 C.3   108  PHE108      0.1639
    132  C         12.6120   -6.2790   10.0720 C.2   108  PHE108      0.2290
    133  O         12.8650   -7.4590    9.8990 O.2   108  PHE108     -0.2864
    134  CB        10.1740   -5.7470   10.0690 C.3   108  PHE108      0.0560
    135  CG         8.8880   -6.1090   10.7790 C.ar  108  PHE108     -0.0200
    136  CD1        8.5600   -5.5330   12.0020 C.ar  108  PHE108     -0.0042
    137  CD2        7.9890   -7.0030   10.2120 C.ar  108  PHE108     -0.0042
    138  CE1        7.3740   -5.8690   12.6580 C.ar  108  PHE108     -0.0003
    139  CE2        6.7930   -7.3290   10.8660 C.ar  108  PHE108     -0.0003
    140  CZ         6.4920   -6.7550   12.0820 C.ar  108  PHE108     -0.0000
    141  N         10.8940  -12.2230   15.5910 N.3   114  VAL114     -0.1245
    142  CA        10.4630  -10.8980   16.1520 C.3   114  VAL114      0.1561
    143  C          9.3190  -10.2170   15.3450 C.2   114  VAL114      0.2260
    144  O          8.8390   -9.1320   15.6650 O.2   114  VAL114     -0.2867
    145  CB        11.4510   -9.9670   16.9250 C.3   114  VAL114      0.0252
    146  CG1       11.2320   -8.4770   16.6780 C.3   114  VAL114      0.0019
    147  CG2       11.3670  -10.2810   18.4190 C.3   114  VAL114      0.0019
    148  N          5.7420  -10.2880   17.6140 N.3   117  PHE117     -0.1227
    149  CA         4.9160   -9.2400   18.1960 C.3   117  PHE117      0.1736
    150  C          3.6550   -9.0810   17.3700 C.2   117  PHE117      0.2595
    151  O          2.5990   -8.7880   17.9280 O.2   117  PHE117     -0.2718
    152  CB         5.6960   -7.9360   18.3130 C.3   117  PHE117      0.0547
    153  CG         6.6260   -7.9610   19.4990 C.ar  117  PHE117     -0.0202
    154  CD1        6.2000   -7.5150   20.7440 C.ar  117  PHE117     -0.0042
    155  CD2        7.9070   -8.4910   19.3890 C.ar  117  PHE117     -0.0042
    156  CE1        7.0520   -7.5650   21.8510 C.ar  117  PHE117     -0.0003
    157  CE2        8.7610   -8.5330   20.4950 C.ar  117  PHE117     -0.0003
    158  CZ         8.3270   -8.0700   21.7190 C.ar  117  PHE117     -0.0000
    159  N          3.7550   -9.3330   16.0440 N.am  118  CYS118     -0.1970
    160  CA         2.6150   -9.3430   15.1300 C.3   118  CYS118      0.1712
    161  C          1.7430  -10.5350   15.5380 C.2   118  CYS118      0.2296
    162  O          0.5280  -10.4250   15.5190 O.2   118  CYS118     -0.2864
    163  CB         3.0790   -9.4520   13.6790 C.3   118  CYS118      0.0983
    164  SG         1.7870   -9.9600   12.5180 S.3   118  CYS118     -0.0798
    165  N          0.1440   -9.5370   19.1710 N.3   121  LEU121     -0.1231
    166  CA        -0.9570   -8.5790   19.0740 C.3   121  LEU121      0.1693
    167  C         -2.1070   -9.0550   18.1850 C.2   121  LEU121      0.2591
    168  O         -3.2710   -8.8760   18.5510 O.2   121  LEU121     -0.2718
    169  CB        -0.4430   -7.2240   18.5530 C.3   121  LEU121      0.0284
    170  CG         0.5030   -6.4460   19.4600 C.3   121  LEU121      0.0019
    171  CD1        1.5180   -5.6790   18.6420 C.3   121  LEU121      0.0001
    172  CD2       -0.2630   -5.5080   20.3760 C.3   121  LEU121      0.0001
    173  N         -1.7760   -9.6130   17.0120 N.am  122  VAL122     -0.1980
    174  CA        -2.7320  -10.0050   15.9730 C.3   122  VAL122      0.1595
    175  C         -3.5260  -11.3190   16.1470 C.2   122  VAL122      0.2287
    176  O         -4.7280  -11.2960   15.8540 O.2   122  VAL122     -0.2864
    177  CB        -2.1480   -9.7710   14.5390 C.3   122  VAL122      0.0276
    178  CG1       -2.9000  -10.5240   13.4400 C.3   122  VAL122      0.0022
    179  CG2       -2.0560   -8.2790   14.2210 C.3   122  VAL122      0.0022
@<TRIPOS>BOND
     1    18    17    2
     2    24    23    1
     3    24    25    2
     4    23    22    1
     5    23    26    1
     6    15    16    1
     7    17    22   am
     8    17    16    1
     9    22    28    1
    10    26    27    2
    11    16    19    1
    12    19    21    1
    13    19    20    1
    14     9    10    1
    15    28    27    1
    16    10    11    1
    17    10    13    1
    18     1     2    1
    19    11    12    2
    20   133   132    2
    21     3     4    2
    22     3     2    1
    23   134   135    1
    24   134   131    1
    25   132   131    1
    26     2     5    1
    27   137   135   ar
    28   137   139   ar
    29    13    14    1
    30   135   136   ar
    31   139   140   ar
    32   131   130    1
    33   113   114    2
    34   113   112    1
    35    48    46    1
    36    14   164    1
    37   130   120   am
    38     5     6    1
    39     8     6    1
    40   136   138   ar
    41   140   138   ar
    42     6     7    1
    43   118   119    1
    44   164   163    1
    45   111   112    1
    46   120   121    2
    47   120   119    1
    48   116   115    1
    49   112   115    1
    50   115   117    1
    51    46    45    1
    52   119   122    1
    53   178   177    1
    54   163   160    1
    55    29    30    1
    56    45    47    1
    57    45    42    1
    58    33    30    1
    59    33    34    1
    60   179   177    1
    61   122   123    1
    62   177   174    1
    63    41    42    1
    64    41    31   am
    65    30    31    1
    66    36    34   ar
    67    36    38   ar
    68    34    35   ar
    69    42    43    1
    70   160   161    1
    71   160   159    1
    72   123   125   ar
    73   123   124   ar
    74   143   144    2
    75   143   142    1
    76   125   127   ar
    77    31    32    2
    78   162   161    2
    79    38    39   ar
    80   141   142    1
    81   176   175    2
    82    35    37   ar
    83   174   175    1
    84   174   173    1
    85   124   126   ar
    86   110   108    1
    87   159   150   am
    88    43    44    2
    89   142   145    1
    90   127   128   ar
    91    39    37   ar
    92    39    40    1
    93   106   105    2
    94   146   145    1
    95   145   147    1
    96   126   128   ar
    97   173   167   am
    98    65    67   ar
    99    65    63   ar
   100   128   129    1
   101   150   151    2
   102   150   149    1
   103   104   105    1
   104   104   107    1
   105   104   103    1
   106   108   107    1
   107   108   109    1
   108   148   149    1
   109    67    66   ar
   110    63    62   ar
   111    55    54    1
   112   167   168    2
   113   167   166    1
   114   149   152    1
   115   152   153    1
   116   169   166    1
   117   169   170    1
   118   171   170    1
   119    54    53    1
   120    54    56    1
   121    66    64   ar
   122   166   165    1
   123    62    64   ar
   124    62    61    1
   125   155   153   ar
   126   155   157   ar
   127   170   172    1
   128   153   154   ar
   129    53    50    1
   130    49    50    1
   131    61    58    1
   132    94    93    2
   133    75    73    1
   134    50    51    1
   135    57    58    1
   136    57    51   am
   137   157   158   ar
   138   154   156   ar
   139    99    98    2
   140    58    59    1
   141    74    73    1
   142    51    52    2
   143    93    92    1
   144    93    96   am
   145    73    72    1
   146    72    69    1
   147    92    95    1
   148    92    91    1
   149   158   156   ar
   150    98    97    1
   151    59    60    2
   152    68    69    1
   153    97    96    1
   154    97   100    1
   155    69    70    1
   156   100   101    1
   157   100   102    1
   158    70    71    2
   159    87    86    2
   160    82    81    1
   161    90    88    1
   162    81    83    1
   163    81    80    1
   164    86    85    1
   165    85    88    1
   166    85    84    1
   167    88    89    1
   168    80    77    1
   169    76    77    1
   170    77    78    1
   171    78    79    2
