@<TRIPOS>MOLECULE
tmp/3r1yA00.pdb
 155 146 0 0 0
SMALL
GASTEIGER

@<TRIPOS>ATOM
      1  N        122.2690  -16.1990  -44.0330 N.3     8  GLU8       -0.1245
      2  CA       121.9160  -16.9630  -42.8440 C.3     8  GLU8        0.1567
      3  C        122.6380  -18.3020  -42.8570 C.2     8  GLU8        0.2260
      4  O        123.2550  -18.6800  -43.8560 O.2     8  GLU8       -0.2867
      5  CB       120.3980  -17.1880  -42.7620 C.3     8  GLU8        0.0388
      6  CG       119.8420  -18.2170  -43.7330 C.3     8  GLU8        0.1160
      7  CD       118.3320  -18.3730  -43.6200 C.2     8  GLU8        0.3649
      8  OE1      117.6130  -17.3920  -43.9060 O.co2   8  GLU8       -0.2457
      9  OE2      117.8640  -19.4710  -43.2440 O.co2   8  GLU8       -0.2457
     10  N        122.3280  -21.9960  -43.1130 N.3    10  ILE10      -0.1231
     11  CA       121.4020  -23.0340  -43.5310 C.3    10  ILE10       0.1692
     12  C        121.6350  -24.2950  -42.7160 C.2    10  ILE10       0.2592
     13  O        120.8180  -25.2180  -42.7300 O.2    10  ILE10      -0.2718
     14  CB       121.5690  -23.3740  -45.0200 C.3    10  ILE10       0.0266
     15  CG1      121.5360  -22.1000  -45.8650 C.3    10  ILE10       0.0019
     16  CG2      120.4460  -24.2790  -45.4540 C.3    10  ILE10       0.0020
     17  CD1      121.6630  -22.3570  -47.3600 C.3    10  ILE10       0.0001
     18  N        122.7600  -24.3340  -42.0110 N.am   11  GLY11      -0.1957
     19  CA       123.0620  -25.4900  -41.1920 C.3    11  GLY11       0.1869
     20  C        124.5280  -25.8650  -41.1130 C.2    11  GLY11       0.2309
     21  O        125.4040  -25.1470  -41.6010 O.2    11  GLY11      -0.2863
     22  N        127.2950  -24.5460  -43.7190 N.3    18  VAL18      -0.1245
     23  CA       126.7070  -24.1840  -45.0020 C.3    18  VAL18       0.1561
     24  C        125.9640  -22.8720  -44.8410 C.2    18  VAL18       0.2260
     25  O        125.1700  -22.7140  -43.9200 O.2    18  VAL18      -0.2867
     26  CB       125.7160  -25.2560  -45.4950 C.3    18  VAL18       0.0252
     27  CG1      125.1360  -24.8470  -46.8460 C.3    18  VAL18       0.0019
     28  CG2      126.4210  -26.6000  -45.6240 C.3    18  VAL18       0.0019
     29  N        123.7540  -19.5000  -46.8060 N.3    20  LYS20      -0.1245
     30  CA       122.9740  -19.0390  -47.9490 C.3    20  LYS20       0.1561
     31  C        123.7280  -17.7440  -48.2210 C.2    20  LYS20       0.2260
     32  O        124.0120  -16.9870  -47.2860 O.2    20  LYS20      -0.2867
     33  CB       121.5230  -18.7390  -47.5490 C.3    20  LYS20       0.0271
     34  CG       120.6670  -18.1420  -48.6800 C.3    20  LYS20       0.0035
     35  CD       119.2530  -17.8210  -48.1890 C.3    20  LYS20       0.0206
     36  CE       118.3760  -17.2340  -49.3070 C.3    20  LYS20       0.1093
     37  NZ       116.9770  -17.0060  -48.8420 N.3    20  LYS20      -0.1314
     38  N        124.2110  -21.5600  -52.3190 N.3    31  ALA31      -0.1245
     39  CA       124.5020  -22.2370  -51.0500 C.3    31  ALA31       0.1562
     40  C        126.0230  -22.4070  -51.0490 C.2    31  ALA31       0.2260
     41  O        126.5880  -23.0010  -51.9730 O.2    31  ALA31      -0.2867
     42  CB       123.8200  -23.6090  -50.9860 C.3    31  ALA31       0.0290
     43  N        129.3470  -23.8910  -49.1300 N.3    33  LYS33      -0.1245
     44  CA       129.8090  -24.8360  -48.1210 C.3    33  LYS33       0.1561
     45  C        131.3240  -24.7750  -47.9470 C.2    33  LYS33       0.2260
     46  O        132.0730  -24.9160  -48.9140 O.2    33  LYS33      -0.2867
     47  CB       129.3980  -26.2570  -48.5120 C.3    33  LYS33       0.0271
     48  CG       129.8800  -27.3240  -47.5410 C.3    33  LYS33       0.0035
     49  CD       129.4440  -28.7090  -47.9880 C.3    33  LYS33       0.0206
     50  CE       127.9250  -28.8440  -47.9990 C.3    33  LYS33       0.1093
     51  NZ       127.4630  -30.2190  -48.3890 N.3    33  LYS33      -0.1314
     52  N        121.3410  -31.4950  -57.4690 N.3    60  VAL60      -0.1245
     53  CA       121.6900  -30.1150  -57.1080 C.3    60  VAL60       0.1561
     54  C        122.9890  -29.7280  -57.8360 C.2    60  VAL60       0.2260
     55  O        124.0370  -30.3410  -57.6400 O.2    60  VAL60      -0.2867
     56  CB       121.8760  -29.9700  -55.5570 C.3    60  VAL60       0.0252
     57  CG1      122.2650  -28.5450  -55.1850 C.3    60  VAL60       0.0019
     58  CG2      120.5770  -30.3390  -54.8530 C.3    60  VAL60       0.0019
     59  N        126.9940  -24.2630  -54.5880 N.3    76  PHE76      -0.1227
     60  CA       125.8710  -25.0450  -55.1140 C.3    76  PHE76       0.1736
     61  C        124.6340  -24.1840  -55.4010 C.2    76  PHE76       0.2595
     62  O        124.4560  -23.1230  -54.8160 O.2    76  PHE76      -0.2718
     63  CB       125.4350  -26.0950  -54.0710 C.3    76  PHE76       0.0547
     64  CG       126.4230  -27.2080  -53.8490 C.ar   76  PHE76      -0.0202
     65  CD1      126.5840  -28.2180  -54.7960 C.ar   76  PHE76      -0.0042
     66  CD2      127.1570  -27.2720  -52.6640 C.ar   76  PHE76      -0.0042
     67  CE1      127.4590  -29.2860  -54.5660 C.ar   76  PHE76      -0.0003
     68  CE2      128.0360  -28.3320  -52.4220 C.ar   76  PHE76      -0.0003
     69  CZ       128.1860  -29.3450  -53.3790 C.ar   76  PHE76      -0.0000
     70  N        123.7610  -24.6690  -56.2820 N.am   77  GLU77      -0.1965
     71  CA       122.5120  -23.9570  -56.5580 C.3    77  GLU77       0.1733
     72  C        121.7110  -24.0220  -55.2460 C.2    77  GLU77       0.2616
     73  O        121.8260  -24.9870  -54.4840 O.2    77  GLU77      -0.2715
     74  CB       121.7300  -24.6290  -57.6970 C.3    77  GLU77       0.0429
     75  CG       121.0110  -25.9020  -57.3300 C.3    77  GLU77       0.1163
     76  CD       120.1140  -26.4390  -58.4490 C.2    77  GLU77       0.3649
     77  OE1      119.0180  -25.8850  -58.6830 O.co2  77  GLU77      -0.2457
     78  OE2      120.5090  -27.4200  -59.0960 O.co2  77  GLU77      -0.2457
     79  N        120.8950  -23.0070  -54.9850 N.am   78  PHE78      -0.1960
     80  CA       120.1220  -22.9370  -53.7420 C.3    78  PHE78       0.1771
     81  C        118.6560  -23.3690  -53.8720 C.2    78  PHE78       0.2619
     82  O        118.0070  -23.0190  -54.8500 O.2    78  PHE78      -0.2715
     83  CB       120.1750  -21.4930  -53.2130 C.3    78  PHE78       0.0574
     84  CG       119.3240  -21.2450  -52.0030 C.ar   78  PHE78      -0.0200
     85  CD1      118.0260  -20.7510  -52.1340 C.ar   78  PHE78      -0.0042
     86  CD2      119.8050  -21.5390  -50.7310 C.ar   78  PHE78      -0.0042
     87  CE1      117.2230  -20.5570  -51.0240 C.ar   78  PHE78      -0.0003
     88  CE2      119.0070  -21.3500  -49.6080 C.ar   78  PHE78      -0.0003
     89  CZ       117.7070  -20.8560  -49.7560 C.ar   78  PHE78      -0.0000
     90  N        118.1660  -24.1470  -52.8990 N.am   79  LEU79      -0.1963
     91  CA       116.7550  -24.5650  -52.8200 C.3    79  LEU79       0.1728
     92  C        116.2900  -24.2310  -51.4000 C.2    79  LEU79       0.2616
     93  O        117.0440  -24.3760  -50.4380 O.2    79  LEU79      -0.2715
     94  CB       116.5450  -26.0600  -53.1310 C.3    79  LEU79       0.0311
     95  CG       116.5250  -26.4180  -54.6290 C.3    79  LEU79       0.0022
     96  CD1      117.9550  -26.7080  -55.0790 C.3    79  LEU79       0.0001
     97  CD2      115.6320  -27.6380  -54.9010 C.3    79  LEU79       0.0001
     98  N        115.0450  -23.7810  -51.2840 N.am   80  HIS80      -0.1959
     99  CA       114.4720  -23.3190  -50.0250 C.3    80  HIS80       0.1787
    100  C        114.1060  -24.2910  -48.9050 C.2    80  HIS80       0.2620
    101  O        113.9230  -23.8560  -47.7610 O.2    80  HIS80      -0.2715
    102  CB       113.2360  -22.4600  -50.3370 C.3    80  HIS80       0.0785
    103  CG       113.5480  -21.1710  -51.0370 C.ar   80  HIS80       0.0821
    104  ND1      113.7170  -19.9760  -50.3650 N.ar   80  HIS80      -0.2267
    105  CD2      113.7230  -20.8920  -52.3520 C.ar   80  HIS80       0.1154
    106  CE1      113.9790  -19.0180  -51.2400 C.ar   80  HIS80       0.1986
    107  NE2      113.9880  -19.5470  -52.4500 N.ar   80  HIS80      -0.2212
    108  N        113.9870  -25.5860  -49.1890 N.am   81  GLN81      -0.1963
    109  CA       113.6020  -26.5040  -48.1100 C.3    81  GLN81       0.1733
    110  C        114.1180  -27.9170  -48.3390 C.2    81  GLN81       0.2616
    111  O        114.3960  -28.2890  -49.4740 O.2    81  GLN81      -0.2715
    112  CB       112.0770  -26.5170  -48.0050 C.3    81  GLN81       0.0408
    113  CG       111.4850  -27.2740  -46.8110 C.3    81  GLN81       0.0908
    114  CD       110.0660  -26.8210  -46.5140 C.2    81  GLN81       0.2608
    115  OE1      109.1770  -27.6320  -46.2550 O.2    81  GLN81      -0.2717
    116  NE2      109.8480  -25.5070  -46.5480 N.am   81  GLN81      -0.0878
    117  N        114.2730  -28.6870  -47.2600 N.am   82  ASP82      -0.1971
    118  CA       114.7090  -30.0740  -47.3950 C.3    82  ASP82       0.1709
    119  C        113.5510  -31.0190  -47.0420 C.2    82  ASP82       0.2293
    120  O        112.5490  -30.5890  -46.4650 O.2    82  ASP82      -0.2864
    121  CB       115.9600  -30.3750  -46.5470 C.3    82  ASP82       0.1436
    122  CG       115.7240  -30.2570  -45.0440 C.2    82  ASP82       0.3671
    123  OD1      114.8150  -30.9190  -44.5100 O.co2  82  ASP82      -0.2456
    124  OD2      116.4810  -29.5040  -44.3990 O.co2  82  ASP82      -0.2456
    125  N        112.4680  -31.3990  -43.1710 N.3    85  LYS85      -0.1245
    126  CA       111.5530  -30.3690  -42.6660 C.3    85  LYS85       0.1561
    127  C        110.1420  -30.5470  -43.2270 C.2    85  LYS85       0.2260
    128  O        109.1530  -30.4110  -42.4980 O.2    85  LYS85      -0.2867
    129  CB       112.0760  -28.9670  -42.9990 C.3    85  LYS85       0.0271
    130  CG       113.3340  -28.6040  -42.2530 C.3    85  LYS85       0.0035
    131  CD       113.6320  -27.1080  -42.3400 C.3    85  LYS85       0.0206
    132  CE       114.9900  -26.8080  -41.7410 C.3    85  LYS85       0.1093
    133  NZ       116.0560  -27.6000  -42.4170 N.3    85  LYS85      -0.1314
    134  N        117.6980  -35.0700  -45.0300 N.3   127  GLN127     -0.1245
    135  CA       118.3650  -33.7690  -44.9770 C.3   127  GLN127      0.1566
    136  C        119.0670  -33.3770  -46.2740 C.2   127  GLN127      0.2260
    137  O        119.2530  -32.1830  -46.5210 O.2   127  GLN127     -0.2867
    138  CB       119.3710  -33.7150  -43.8220 C.3   127  GLN127      0.0367
    139  CG       118.7710  -34.0010  -42.4500 C.3   127  GLN127      0.0905
    140  CD       118.8300  -35.4740  -42.0600 C.2   127  GLN127      0.2608
    141  OE1      118.1570  -36.3260  -42.6510 O.2   127  GLN127     -0.2717
    142  NE2      119.6470  -35.7800  -41.0480 N.am  127  GLN127     -0.0878
    143  N        116.5080  -32.0070  -51.4620 N.3   130  LEU130     -0.1245
    144  CA       115.9510  -30.6510  -51.4580 C.3   130  LEU130      0.1561
    145  C        114.7410  -30.4450  -52.3790 C.2   130  LEU130      0.2260
    146  O        114.6870  -31.0100  -53.4660 O.2   130  LEU130     -0.2867
    147  CB       117.0610  -29.6670  -51.8360 C.3   130  LEU130      0.0270
    148  CG       118.3640  -29.8950  -51.0500 C.3   130  LEU130      0.0019
    149  CD1      119.3930  -28.8380  -51.4650 C.3   130  LEU130      0.0001
    150  CD2      118.0970  -29.8380  -49.5170 C.3   130  LEU130      0.0001
    151  N        121.3690  -33.8350  -53.1430 N.3   140  ALA140     -0.1245
    152  CA       122.5220  -32.9870  -52.8290 C.3   140  ALA140      0.1562
    153  C        123.6960  -33.7940  -52.2820 C.2   140  ALA140      0.2260
    154  O        123.5050  -34.7800  -51.5620 O.2   140  ALA140     -0.2867
    155  CB       122.1240  -31.9190  -51.8190 C.3   140  ALA140      0.0290
@<TRIPOS>BOND
     1    78    76   ar
     2    77    76   ar
     3    76    75    1
     4    54    55    2
     5    54    53    1
     6    74    75    1
     7    74    71    1
     8    52    53    1
     9    53    56    1
    10    71    70    1
    11    71    72    1
    12    70    61   am
    13    56    57    1
    14    56    58    1
    15    61    60    1
    16    61    62    2
    17    72    79   am
    18    72    73    2
    19    60    59    1
    20    60    63    1
    21    96    95    1
    22    79    80    1
    23    97    95    1
    24    82    81    2
    25    65    67   ar
    26    65    64   ar
    27    95    94    1
    28    67    69   ar
    29    63    64    1
    30    81    80    1
    31    81    90   am
    32    64    66   ar
    33    80    83    1
    34   146   145    2
    35    69    68   ar
    36    83    84    1
    37   151   152    1
    38    94    91    1
    39    90    91    1
    40   152   153    1
    41   152   155    1
    42    91    92    1
    43    66    68   ar
    44   107   105   ar
    45   107   106   ar
    46   145   144    1
    47   105   103   ar
    48    38    39    1
    49   153   154    2
    50    85    84   ar
    51    85    87   ar
    52    84    86   ar
    53    41    40    2
    54   147   144    1
    55   147   148    1
    56   149   148    1
    57   143   144    1
    58    92    98   am
    59    92    93    2
    60    98    99    1
    61   106   104   ar
    62   148   150    1
    63    39    40    1
    64    39    42    1
    65   103   104   ar
    66   103   102    1
    67    87    89   ar
    68    86    88   ar
    69   102    99    1
    70    99   100    1
    71    89    88   ar
    72   111   110    2
    73    36    37    1
    74    36    35    1
    75   108   100   am
    76   108   109    1
    77    43    44    1
    78    46    45    2
    79   100   101    2
    80    34    35    1
    81    34    33    1
    82    47    44    1
    83    47    48    1
    84    51    50    1
    85   110   109    1
    86   110   117   am
    87    31    30    1
    88    31    32    2
    89    44    45    1
    90   109   112    1
    91   112   113    1
    92    50    49    1
    93    49    48    1
    94    30    33    1
    95    30    29    1
    96   118   117    1
    97   118   119    1
    98   118   121    1
    99    17    15    1
   100   119   120    2
   101    27    26    1
   102   113   114    1
   103   116   114   am
   104   121   122    1
   105   137   136    2
   106   114   115    2
   107   136   135    1
   108    15    14    1
   109    28    26    1
   110    26    23    1
   111    16    14    1
   112   122   123   ar
   113   122   124   ar
   114   134   135    1
   115    14    11    1
   116    23    24    1
   117    23    22    1
   118   135   138    1
   119    24    25    2
   120     1     2    1
   121     8     7   ar
   122     4     3    2
   123   138   139    1
   124     6     7    1
   125     6     5    1
   126     7     9   ar
   127    11    10    1
   128    11    12    1
   129   127   126    1
   130   127   128    2
   131   125   126    1
   132   129   126    1
   133   129   130    1
   134     3     2    1
   135     2     5    1
   136    13    12    2
   137    12    18   am
   138   141   140    2
   139   139   140    1
   140   133   132    1
   141   131   130    1
   142   131   132    1
   143   140   142   am
   144    18    19    1
   145    21    20    2
   146    19    20    1
