@<TRIPOS>MOLECULE
tmp/3r1zB00.pdb
 142 128 0 0 0
SMALL
GASTEIGER

@<TRIPOS>ATOM
      1  N         98.1170   96.2690   54.8960 N.3    20  PHE20      -0.1241
      2  CA        98.8970   95.1690   54.3310 C.3    20  PHE20       0.1605
      3  C         98.1350   94.5890   53.1480 C.2    20  PHE20       0.2264
      4  O         96.9970   94.1450   53.3030 O.2    20  PHE20      -0.2867
      5  CB        99.1190   94.0950   55.4200 C.3    20  PHE20       0.0534
      6  CG        99.9170   92.8980   54.9690 C.ar   20  PHE20      -0.0203
      7  CD1      101.2410   93.0330   54.5750 C.ar   20  PHE20      -0.0042
      8  CD2       99.3570   91.6210   55.0070 C.ar   20  PHE20      -0.0042
      9  CE1      101.9860   91.9190   54.1860 C.ar   20  PHE20      -0.0003
     10  CE2      100.0790   90.5130   54.6110 C.ar   20  PHE20      -0.0003
     11  CZ       101.4120   90.6600   54.2070 C.ar   20  PHE20      -0.0000
     12  N         98.5210   91.9800   49.6820 N.3    22  THR22      -0.1218
     13  CA        99.2630   91.0090   48.8840 C.3    22  THR22       0.1862
     14  C         98.3950   90.5960   47.7020 C.2    22  THR22       0.2287
     15  O         97.2640   91.0630   47.5750 O.2    22  THR22      -0.2866
     16  CB        99.5960   89.7440   49.6990 C.3    22  THR22       0.1770
     17  OG1       98.4020   88.9790   49.9020 O.3    22  THR22      -0.2211
     18  CG2      100.2030   90.1090   51.0640 C.3    22  THR22       0.0375
     19  N         96.9780   87.9180   47.4680 N.3    24  VAL24      -0.1231
     20  CA        95.9040   87.1150   48.0690 C.3    24  VAL24       0.1692
     21  C         94.8370   87.8960   48.8360 C.2    24  VAL24       0.2591
     22  O         93.6580   87.5280   48.8220 O.2    24  VAL24      -0.2718
     23  CB        96.4790   85.9710   48.9290 C.3    24  VAL24       0.0266
     24  CG1       95.3580   85.1560   49.5730 C.3    24  VAL24       0.0020
     25  CG2       97.3510   85.0840   48.0650 C.3    24  VAL24       0.0020
     26  N         95.2460   88.9490   49.5380 N.am   25  ARG25      -0.1980
     27  CA        94.2940   89.6670   50.3660 C.3    25  ARG25       0.1597
     28  C         94.7810   91.0360   50.8230 C.2    25  ARG25       0.2287
     29  O         95.9360   91.3950   50.6390 O.2    25  ARG25      -0.2864
     30  CB        93.9660   88.8180   51.6050 C.3    25  ARG25       0.0334
     31  CG        95.0750   88.8010   52.6750 C.3    25  ARG25       0.0492
     32  CD        94.8110   87.7110   53.7220 C.3    25  ARG25       0.2205
     33  NE        95.7750   87.7440   54.8260 N.pl3  25  ARG25      -0.0865
     34  CZ        95.5280   88.2880   56.0130 C.cat  25  ARG25       0.5346
     35  NH1       94.3390   88.8300   56.2520 N.pl3  25  ARG25       0.1354
     36  NH2       96.4660   88.2690   56.9680 N.pl3  25  ARG25       0.1354
     37  N         94.5770   83.0960   59.3840 N.3    52  THR52      -0.1218
     38  CA        94.6870   83.6720   58.0500 C.3    52  THR52       0.1862
     39  C         93.9510   82.6610   57.1960 C.2    52  THR52       0.2287
     40  O         94.5400   81.7380   56.6380 O.2    52  THR52      -0.2866
     41  CB        96.1740   83.7580   57.6070 C.3    52  THR52       0.1770
     42  OG1       96.9460   84.3880   58.6360 O.3    52  THR52      -0.2211
     43  CG2       96.3340   84.5540   56.3240 C.3    52  THR52       0.0375
     44  N         94.9080   81.5800   53.6050 N.3    55  ILE55      -0.1245
     45  CA        96.1460   80.8240   53.4370 C.3    55  ILE55       0.1561
     46  C         96.1200   79.4370   54.0890 C.2    55  ILE55       0.2260
     47  O         96.3740   78.4380   53.4220 O.2    55  ILE55      -0.2867
     48  CB        97.3880   81.6220   53.8700 C.3    55  ILE55       0.0252
     49  CG1       97.4850   82.9100   53.0360 C.3    55  ILE55       0.0019
     50  CG2       98.6430   80.7620   53.7030 C.3    55  ILE55       0.0019
     51  CD1       98.7230   83.7070   53.3130 C.3    55  ILE55       0.0001
     52  N        111.3480   92.9240   51.1250 N.3   158  LYS158     -0.1245
     53  CA       110.4830   91.9620   50.4750 C.3   158  LYS158      0.1561
     54  C        109.3680   92.6990   49.7670 C.2   158  LYS158      0.2260
     55  O        108.5210   93.3330   50.3960 O.2   158  LYS158     -0.2867
     56  CB       109.9020   90.9670   51.4920 C.3   158  LYS158      0.0271
     57  CG       108.8710   89.9910   50.9090 C.3   158  LYS158      0.0035
     58  CD       108.9020   88.6770   51.7310 C.3   158  LYS158      0.0206
     59  CE       107.7030   87.8160   51.4840 C.3   158  LYS158      0.1093
     60  NZ       107.8860   86.4570   52.0770 N.3   158  LYS158     -0.1314
     61  N        106.1100   92.6360   47.6390 N.3   160  LYS160     -0.1245
     62  CA       104.9650   91.8390   47.2250 C.3   160  LYS160      0.1561
     63  C        104.6550   92.1150   45.7590 C.2   160  LYS160      0.2260
     64  O        104.6090   93.2730   45.3250 O.2   160  LYS160     -0.2867
     65  CB       103.7360   92.1560   48.0930 C.3   160  LYS160      0.0271
     66  CG       103.8740   91.6970   49.5300 C.3   160  LYS160      0.0035
     67  CD       103.9310   90.1640   49.5670 C.3   160  LYS160      0.0206
     68  CE       103.9850   89.6380   50.9670 C.3   160  LYS160      0.1093
     69  NZ       103.8880   88.1370   50.9760 N.3   160  LYS160     -0.1314
     70  N        107.9490   88.3160   46.2130 N.3   188  ASP188     -0.1239
     71  CA       107.0120   87.2930   46.6490 C.3   188  ASP188      0.1674
     72  C        105.6880   87.5540   45.9350 C.2   188  ASP188      0.2266
     73  O        104.9890   88.5250   46.2360 O.2   188  ASP188     -0.2867
     74  CB       106.8390   87.3960   48.1660 C.3   188  ASP188      0.1410
     75  CG       105.9050   86.3380   48.7340 C.2   188  ASP188      0.3668
     76  OD1      105.3270   85.5550   47.9490 O.co2 188  ASP188     -0.2456
     77  OD2      105.7600   86.3090   49.9750 O.co2 188  ASP188     -0.2456
     78  N        103.0710   85.5410   45.8650 N.3   190  ASN190     -0.1240
     79  CA       101.9310   84.8980   46.5050 C.3   190  ASN190      0.1653
     80  C        101.0920   84.1470   45.4790 C.2   190  ASN190      0.2266
     81  O         99.8680   84.2460   45.4870 O.2   190  ASN190     -0.2867
     82  CB       101.0800   85.9310   47.2560 C.3   190  ASN190      0.1155
     83  CG       101.6370   86.2530   48.6310 C.2   190  ASN190      0.2627
     84  OD1      102.0440   87.3870   48.9050 O.2   190  ASN190     -0.2716
     85  ND2      101.6640   85.2510   49.5050 N.am  190  ASN190     -0.0877
     86  N        106.7700   78.4860   49.3770 N.3   240  ASP240     -0.1225
     87  CA       106.1060   78.8640   50.6150 C.3   240  ASP240      0.1805
     88  C        104.7870   78.0800   50.6760 C.2   240  ASP240      0.2597
     89  O        104.7430   76.9970   51.2610 O.2   240  ASP240     -0.2718
     90  CB       105.9040   80.3890   50.6370 C.3   240  ASP240      0.1424
     91  CG       105.1150   80.8730   51.8470 C.2   240  ASP240      0.3668
     92  OD1      104.6260   80.0340   52.6260 O.co2 240  ASP240     -0.2456
     93  OD2      104.9550   82.1030   51.9990 O.co2 240  ASP240     -0.2456
     94  N        103.7530   78.5330   49.9670 N.am  241  GLU241     -0.1979
     95  CA       102.4750   77.8340   50.0520 C.3   241  GLU241      0.1602
     96  C        102.5480   76.3870   49.5340 C.2   241  GLU241      0.2287
     97  O        101.7270   75.5570   49.9040 O.2   241  GLU241     -0.2864
     98  CB       101.3560   78.6280   49.3660 C.3   241  GLU241      0.0415
     99  CG       101.0660   79.9910   50.0420 C.3   241  GLU241      0.1163
    100  CD       101.8150   81.1560   49.3820 C.2   241  GLU241      0.3649
    101  OE1      103.0360   81.0500   49.1500 O.co2 241  GLU241     -0.2457
    102  OE2      101.1720   82.1830   49.0580 O.co2 241  GLU241     -0.2457
    103  N        107.0670   78.0680   58.0570 N.3   263  LYS263     -0.1245
    104  CA       106.2400   78.9020   58.9440 C.3   263  LYS263      0.1561
    105  C        105.5010   78.0090   59.9160 C.2   263  LYS263      0.2260
    106  O        104.9080   77.0150   59.5060 O.2   263  LYS263     -0.2867
    107  CB       105.1920   79.7020   58.1630 C.3   263  LYS263      0.0271
    108  CG       105.7870   80.6040   57.1050 C.3   263  LYS263      0.0035
    109  CD       104.6670   81.3800   56.4080 C.3   263  LYS263      0.0206
    110  CE       105.2550   82.2640   55.3110 C.3   263  LYS263      0.1093
    111  NZ       104.1740   83.0850   54.6650 N.3   263  LYS263     -0.1314
    112  N        106.3040   84.0640   58.1180 N.3   290  CYS290     -0.1235
    113  CA       105.1780   84.1460   59.0280 C.3   290  CYS290      0.1677
    114  C        103.9410   84.5650   58.2530 C.2   290  CYS290      0.2270
    115  O        104.0280   84.8920   57.0750 O.2   290  CYS290     -0.2867
    116  CB       105.4870   85.2010   60.0930 C.3   290  CYS290      0.0956
    117  SG       105.8420   86.8270   59.3230 S.3   290  CYS290     -0.0801
    118  N        100.9810   88.3390   61.6000 N.3   291  GLU291     -0.1245
    119  CA       100.5590   87.6910   62.8270 C.3   291  GLU291      0.1567
    120  C        101.2010   88.3580   64.0380 C.2   291  GLU291      0.2260
    121  O        102.0190   89.2760   63.9070 O.2   291  GLU291     -0.2867
    122  CB       100.8480   86.1710   62.7830 C.3   291  GLU291      0.0388
    123  CG       102.3320   85.7530   62.8010 C.3   291  GLU291      0.1160
    124  CD       102.4880   84.2430   62.7650 C.2   291  GLU291      0.3649
    125  OE1      102.3990   83.6010   63.8450 O.co2 291  GLU291     -0.2457
    126  OE2      102.6720   83.6910   61.6510 O.co2 291  GLU291     -0.2457
    127  N        111.8320   86.3950   57.0580 N.3   312  ASP312     -0.1239
    128  CA       110.8540   87.4420   56.8170 C.3   312  ASP312      0.1674
    129  C        109.9410   87.3890   58.0250 C.2   312  ASP312      0.2266
    130  O        108.9140   86.7010   58.0280 O.2   312  ASP312     -0.2867
    131  CB       110.0790   87.0860   55.5360 C.3   312  ASP312      0.1410
    132  CG       108.8860   88.0070   55.2650 C.2   312  ASP312      0.3668
    133  OD1      108.9810   89.2300   55.4930 O.co2 312  ASP312     -0.2456
    134  OD2      107.8430   87.4940   54.8000 O.co2 312  ASP312     -0.2456
    135  N        108.8170   90.4140   59.6970 N.3   314  ASP314     -0.1239
    136  CA       108.4430   91.8280   59.7770 C.3   314  ASP314      0.1674
    137  C        107.2120   92.3280   60.5750 C.2   314  ASP314      0.2266
    138  O        107.1060   93.5370   60.7850 O.2   314  ASP314     -0.2867
    139  CB       108.5380   92.5190   58.4050 C.3   314  ASP314      0.1410
    140  CG       107.3770   92.1730   57.5080 C.2   314  ASP314      0.3668
    141  OD1      106.9010   91.0160   57.5760 O.co2 314  ASP314     -0.2456
    142  OD2      106.9450   93.0530   56.7470 O.co2 314  ASP314     -0.2456
@<TRIPOS>BOND
     1    64    63    2
     2    80    81    2
     3    80    79    1
     4    63    62    1
     5    78    79    1
     6    72    73    2
     7    72    71    1
     8    70    71    1
     9    79    82    1
    10    71    74    1
    11    62    61    1
    12    62    65    1
    13    82    83    1
    14    19    20    1
    15    15    14    2
    16    14    13    1
    17    76    75   ar
    18    25    23    1
    19    20    21    1
    20    20    23    1
    21    65    66    1
    22    74    75    1
    23    83    84    2
    24    83    85   am
    25    75    77   ar
    26    22    21    2
    27    21    26   am
    28    13    12    1
    29    13    16    1
    30    23    24    1
    31   102   100   ar
    32   101   100   ar
    33    98    99    1
    34    98    95    1
    35    86    87    1
    36   100    99    1
    37    66    67    1
    38    96    97    2
    39    96    95    1
    40    26    27    1
    41    67    68    1
    42    16    17    1
    43    16    18    1
    44    54    55    2
    45    54    53    1
    46    94    95    1
    47    94    88   am
    48    27    28    1
    49    27    30    1
    50    53    52    1
    51    53    56    1
    52    87    90    1
    53    87    88    1
    54    90    91    1
    55    29    28    2
    56    88    89    2
    57    57    56    1
    58    57    58    1
    59    68    69    1
    60    59    58    1
    61    59    60    1
    62    30    31    1
    63    91    93   ar
    64    91    92   ar
    65    31    32    1
    66    49    51    1
    67    49    48    1
    68     3     4    2
    69     3     2    1
    70    47    46    2
    71    45    44    1
    72    45    48    1
    73    45    46    1
    74    50    48    1
    75    32    33    1
    76     9    11   ar
    77     9     7   ar
    78    11    10   ar
    79     2     1    1
    80     2     5    1
    81     7     6   ar
    82    10     8   ar
    83   111   110    1
    84   134   132   ar
    85    33    34    2
    86     6     8   ar
    87     6     5    1
    88   132   133   ar
    89   132   131    1
    90   110   109    1
    91   131   128    1
    92    34    35    1
    93    34    36    1
    94    43    41    1
    95   109   108    1
    96    40    39    2
    97   142   140   ar
    98   128   127    1
    99   128   129    1
   100   115   114    2
   101   108   107    1
   102    39    38    1
   103   140   141   ar
   104   140   139    1
   105    41    38    1
   106    41    42    1
   107   129   130    2
   108    38    37    1
   109   103   104    1
   110   112   113    1
   111   107   104    1
   112   114   113    1
   113   139   136    1
   114   104   105    1
   115   113   116    1
   116   117   116    1
   117   106   105    2
   118   135   136    1
   119   136   137    1
   120   137   138    2
   121   118   119    1
   122   126   124   ar
   123   124   123    1
   124   124   125   ar
   125   122   123    1
   126   122   119    1
   127   119   120    1
   128   121   120    2
