@<TRIPOS>MOLECULE
tmp/3r20A00.pdb
 88 85 0 0 0
SMALL
GASTEIGER

@<TRIPOS>ATOM
      1  N         12.9860   61.0280   23.0590 N.3     9  PRO9       -0.2102
      2  CA        13.4940   62.2310   23.7580 C.3     9  PRO9        0.1504
      3  C         15.0130   62.1560   24.0120 C.2     9  PRO9        0.2576
      4  O         15.6230   61.0890   23.8690 O.2     9  PRO9       -0.2718
      5  CB        12.6950   62.2400   25.0970 C.3     9  PRO9        0.0282
      6  CG        12.2520   60.8250   25.3140 C.3     9  PRO9        0.0208
      7  CD        12.0860   60.2100   23.9010 C.3     9  PRO9        0.0893
      8  N         15.6230   63.2750   24.3830 N.am   10  ALA10      -0.1966
      9  CA        17.0770   63.3060   24.6020 C.3    10  ALA10       0.1728
     10  C         17.4730   62.4670   25.8040 C.2    10  ALA10       0.2617
     11  O         16.6800   62.2950   26.7310 O.2    10  ALA10      -0.2715
     12  CB        17.5780   64.7420   24.7830 C.3    10  ALA10       0.0334
     13  N         18.7050   61.9600   25.7810 N.am   11  GLY11      -0.1940
     14  CA        19.2740   61.2250   26.9070 C.3    11  GLY11       0.2014
     15  C         18.8870   59.7640   27.0060 C.2    11  GLY11       0.2640
     16  O         19.1550   59.1120   28.0140 O.2    11  GLY11      -0.2714
     17  N         18.2630   59.2440   25.9590 N.am   12  THR12      -0.1936
     18  CA        17.9190   57.8310   25.9070 C.3    12  THR12       0.2028
     19  C         19.0480   56.9490   25.3190 C.2    12  THR12       0.2643
     20  O         18.9450   55.7040   25.3310 O.2    12  THR12      -0.2714
     21  CB        16.6620   57.6250   25.0520 C.3    12  THR12       0.1808
     22  OG1       16.8850   58.2290   23.7790 O.3    12  THR12      -0.2208
     23  CG2       15.4360   58.2870   25.7100 C.3    12  THR12       0.0379
     24  N         20.1100   57.5820   24.7970 N.am   13  GLY13      -0.1939
     25  CA        21.2210   56.8420   24.1910 C.3    13  GLY13       0.2014
     26  C         21.0570   56.9240   22.6850 C.2    13  GLY13       0.2639
     27  O         21.7710   56.2960   21.9220 O.2    13  GLY13      -0.2714
     28  N         20.1260   57.7270   22.2500 N.am   14  LYS14      -0.1963
     29  CA        19.7680   57.8640   20.8660 C.3    14  LYS14       0.1728
     30  C         20.9230   58.1580   19.8820 C.2    14  LYS14       0.2617
     31  O         21.0510   57.5220   18.9100 O.2    14  LYS14      -0.2715
     32  CB        18.6520   58.8810   20.7830 C.3    14  LYS14       0.0311
     33  CG        18.1870   59.2370   19.4710 C.3    14  LYS14       0.0038
     34  CD        16.9170   60.0100   19.5440 C.3    14  LYS14       0.0206
     35  CE        17.1740   61.4680   19.8030 C.3    14  LYS14       0.1093
     36  NZ        16.0720   62.2520   19.5180 N.3    14  LYS14      -0.1314
     37  N         21.7690   59.1120   20.1840 N.am   15  SER15      -0.1936
     38  CA        22.8910   59.4400   19.2900 C.3    15  SER15       0.2055
     39  C         23.9470   58.3430   19.2590 C.2    15  SER15       0.2643
     40  O         24.4730   58.0180   18.1950 O.2    15  SER15      -0.2714
     41  CB        23.5430   60.7740   19.6450 C.3    15  SER15       0.2130
     42  OG        22.5720   61.7890   19.5640 O.3    15  SER15      -0.2179
     43  N         24.2520   57.7710   20.4190 N.am   16  SER16      -0.1949
     44  CA        25.2130   56.6850   20.4790 C.3    16  SER16       0.1924
     45  C         24.6830   55.4980   19.7060 C.2    16  SER16       0.2314
     46  O         25.4310   54.8610   18.9900 O.2    16  SER16      -0.2863
     47  CB        25.4840   56.2530   21.9250 C.3    16  SER16       0.2116
     48  OG        26.3210   57.2250   22.5390 O.3    16  SER16      -0.2180
     49  N         18.4110   60.3540   12.6290 N.3   126  GLU126     -0.1245
     50  CA        18.0780   60.4880   14.0550 C.3   126  GLU126      0.1567
     51  C         17.2570   61.7740   14.1880 C.2   126  GLU126      0.2260
     52  O         17.5100   62.7060   13.4460 O.2   126  GLU126     -0.2867
     53  CB        19.3580   60.6100   14.8750 C.3   126  GLU126      0.0388
     54  CG        19.0780   60.9750   16.3530 C.3   126  GLU126      0.1160
     55  CD        20.3330   61.2410   17.1630 C.2   126  GLU126      0.3649
     56  OE1       21.4340   60.9820   16.6610 O.co2 126  GLU126     -0.2457
     57  OE2       20.2070   61.6710   18.3350 O.co2 126  GLU126     -0.2457
     58  N         22.2650   60.1410   32.3040 N.3   154  ARG154     -0.1231
     59  CA        23.0560   60.0520   31.1120 C.3   154  ARG154      0.1694
     60  C         23.5360   61.4440   30.7290 C.2   154  ARG154      0.2591
     61  O         24.7310   61.6480   30.5340 O.2   154  ARG154     -0.2718
     62  CB        22.2570   59.3600   30.0070 C.3   154  ARG154      0.0321
     63  CG        22.9580   59.3330   28.7070 C.3   154  ARG154      0.0489
     64  CD        22.4850   58.1970   27.8300 C.3   154  ARG154      0.2205
     65  NE        23.2430   58.2100   26.5830 N.pl3 154  ARG154     -0.0865
     66  CZ        24.3350   57.4950   26.3460 C.cat 154  ARG154      0.5346
     67  NH1       24.8240   56.6720   27.2770 N.pl3 154  ARG154      0.1354
     68  NH2       24.9180   57.5840   25.1580 N.pl3 154  ARG154      0.1354
     69  N         22.6090   62.4030   30.6610 N.am  155  ARG155     -0.1980
     70  CA        22.9280   63.7560   30.2290 C.3   155  ARG155      0.1597
     71  C         23.8770   64.5060   31.1580 C.2   155  ARG155      0.2287
     72  O         24.7440   65.2470   30.6920 O.2   155  ARG155     -0.2864
     73  CB        21.6560   64.5450   30.0250 C.3   155  ARG155      0.0334
     74  CG        21.0800   64.2770   28.6960 C.3   155  ARG155      0.0492
     75  CD        19.6440   64.6960   28.6300 C.3   155  ARG155      0.2205
     76  NE        19.4470   66.1230   28.8480 N.pl3 155  ARG155     -0.0865
     77  CZ        19.7670   67.0900   27.9920 C.cat 155  ARG155      0.5346
     78  NH1       20.3570   66.8030   26.8240 N.pl3 155  ARG155      0.1354
     79  NH2       19.4980   68.3560   28.3190 N.pl3 155  ARG155      0.1354
     80  N         27.3590   62.9270   30.6990 N.3   158  GLN158     -0.1245
     81  CA        27.8910   63.5570   29.4840 C.3   158  GLN158      0.1566
     82  C         28.4620   64.9680   29.7030 C.2   158  GLN158      0.2260
     83  O         29.5010   65.3230   29.1270 O.2   158  GLN158     -0.2867
     84  CB        26.8120   63.5990   28.4000 C.3   158  GLN158      0.0367
     85  CG        26.5380   62.2190   27.7720 C.3   158  GLN158      0.0905
     86  CD        25.4120   62.2140   26.7270 C.2   158  GLN158      0.2608
     87  OE1       24.6540   63.1700   26.6130 O.2   158  GLN158     -0.2717
     88  NE2       25.3110   61.1220   25.9600 N.am  158  GLN158     -0.0878
@<TRIPOS>BOND
     1    49    50    1
     2    52    51    2
     3    50    51    1
     4    50    53    1
     5    53    54    1
     6    54    55    1
     7    56    55   ar
     8    55    57   ar
     9    40    39    2
    10    31    30    2
    11    46    45    2
    12    39    38    1
    13    39    43   am
    14    38    41    1
    15    38    37    1
    16    33    34    1
    17    33    32    1
    18    36    35    1
    19    34    35    1
    20    42    41    1
    21    45    44    1
    22    30    37   am
    23    30    29    1
    24    43    44    1
    25    44    47    1
    26    32    29    1
    27    29    28    1
    28    27    26    2
    29    47    48    1
    30    28    26   am
    31    26    25    1
    32     1     2    1
    33     1     7    1
    34     2     3    1
    35     2     5    1
    36    22    21    1
    37     4     3    2
    38     7     6    1
    39     3     8   am
    40    25    24    1
    41     8     9    1
    42     9    12    1
    43     9    10    1
    44    24    19   am
    45    21    23    1
    46    21    18    1
    47     5     6    1
    48    68    66    1
    49    19    20    2
    50    19    18    1
    51    13    10   am
    52    13    14    1
    53    10    11    2
    54    18    17    1
    55    17    15   am
    56    88    86   am
    57    66    65    2
    58    66    67    1
    59    65    64    1
    60    87    86    2
    61    86    85    1
    62    78    77    1
    63    14    15    1
    64    15    16    2
    65    85    84    1
    66    64    63    1
    67    77    79    1
    68    77    76    2
    69    84    81    1
    70    75    74    1
    71    75    76    1
    72    74    73    1
    73    63    62    1
    74    83    82    2
    75    81    82    1
    76    81    80    1
    77    62    59    1
    78    73    70    1
    79    70    69    1
    80    70    71    1
    81    61    60    2
    82    69    60   am
    83    72    71    2
    84    60    59    1
    85    59    58    1
