@<TRIPOS>MOLECULE
tmp/3r22A00.pdb
 162 152 0 0 0
SMALL
GASTEIGER

@<TRIPOS>ATOM
      1  N          6.2360  -27.3180    4.5470 N.3    12  ARG12      -0.1245
      2  CA         5.6120  -27.2040    3.2520 C.3    12  ARG12       0.1563
      3  C          4.1790  -26.7430    3.4060 C.2    12  ARG12       0.2260
      4  O          3.5700  -26.9800    4.4290 O.2    12  ARG12      -0.2867
      5  CB         5.6440  -28.5490    2.5350 C.3    12  ARG12       0.0307
      6  CG         4.9470  -29.6740    3.2540 C.3    12  ARG12       0.0489
      7  CD         4.5420  -30.7260    2.2610 C.3    12  ARG12       0.2205
      8  NE         3.4070  -31.4690    2.7790 N.pl3  12  ARG12      -0.0865
      9  CZ         2.4240  -31.9410    2.0310 C.cat  12  ARG12       0.5346
     10  NH1        2.4380  -31.7700    0.7140 N.pl3  12  ARG12       0.1354
     11  NH2        1.4240  -32.5770    2.6060 N.pl3  12  ARG12       0.1354
     12  N          0.1480  -26.8030    2.9840 N.3    14  LEU14      -0.1231
     13  CA        -0.8210  -27.8930    3.0490 C.3    14  LEU14       0.1693
     14  C         -2.0410  -27.6770    2.1500 C.2    14  LEU14       0.2593
     15  O         -2.7200  -28.6430    1.7920 O.2    14  LEU14      -0.2718
     16  CB        -1.2480  -28.1380    4.4950 C.3    14  LEU14       0.0284
     17  CG        -0.5660  -29.2670    5.2600 C.3    14  LEU14       0.0019
     18  CD1        0.9050  -29.1050    5.2310 C.3    14  LEU14       0.0001
     19  CD2       -1.0320  -29.3190    6.6880 C.3    14  LEU14       0.0001
     20  N         -2.2810  -26.4160    1.7710 N.am   15  GLY15      -0.1942
     21  CA        -3.4640  -25.9490    1.0110 C.3    15  GLY15       0.2014
     22  C         -3.4950  -24.4700    1.3340 C.2    15  GLY15       0.2638
     23  O         -2.4270  -23.8940    1.5080 O.2    15  GLY15      -0.2714
     24  N         -4.6540  -23.8050    1.3990 N.am   16  LYS16      -0.1977
     25  CA        -5.9370  -24.1930    0.8000 C.3    16  LYS16       0.1596
     26  C         -6.3330  -23.0480   -0.1520 C.2    16  LYS16       0.2287
     27  O         -5.5720  -22.7110   -1.0610 O.2    16  LYS16      -0.2864
     28  CB        -7.0270  -24.4840    1.8630 C.3    16  LYS16       0.0298
     29  CG        -7.2260  -23.4300    2.9350 C.3    16  LYS16       0.0038
     30  CD        -8.6090  -22.8280    2.8910 C.3    16  LYS16       0.0206
     31  CE        -8.6970  -21.7080    3.9060 C.3    16  LYS16       0.1093
     32  NZ       -10.1010  -21.2970    4.2040 N.3    16  LYS16      -0.1314
     33  N         -2.8280  -23.0560    4.9400 N.3    22  VAL22      -0.1245
     34  CA        -2.5300  -23.8920    6.0880 C.3    22  VAL22       0.1561
     35  C         -1.1510  -24.5140    5.8870 C.2    22  VAL22       0.2260
     36  O         -0.8610  -25.0450    4.8180 O.2    22  VAL22      -0.2867
     37  CB        -3.5830  -24.9780    6.2640 C.3    22  VAL22       0.0252
     38  CG1       -3.3100  -25.7640    7.5360 C.3    22  VAL22       0.0019
     39  CG2       -4.9890  -24.3690    6.2730 C.3    22  VAL22       0.0019
     40  N         -0.2110  -28.3210   12.1040 N.3    35  ALA35      -0.1245
     41  CA        -0.8060  -27.4760   11.0820 C.3    35  ALA35       0.1562
     42  C         -0.9620  -26.0470   11.6020 C.2    35  ALA35       0.2260
     43  O         -1.5330  -25.7880   12.6620 O.2    35  ALA35      -0.2867
     44  CB        -2.1330  -28.0460   10.6730 C.3    35  ALA35       0.0290
     45  N         -2.5190  -22.9290   10.2000 N.3    37  LYS37      -0.1245
     46  CA        -3.3960  -22.0250    9.4600 C.3    37  LYS37       0.1561
     47  C         -2.9620  -20.5690    9.6150 C.2    37  LYS37       0.2260
     48  O         -2.9190  -20.0570   10.7350 O.2    37  LYS37      -0.2867
     49  CB        -4.8040  -22.1530   10.0370 C.3    37  LYS37       0.0271
     50  CG        -5.9270  -21.8410    9.0820 C.3    37  LYS37       0.0035
     51  CD        -7.2290  -22.3140    9.6670 C.3    37  LYS37       0.0206
     52  CE        -8.1590  -22.8400    8.6060 C.3    37  LYS37       0.1093
     53  NZ        -9.3300  -23.5460    9.2320 N.3    37  LYS37      -0.1314
     54  N        -10.6160  -33.0880   14.9700 N.3    69  LEU69      -0.1245
     55  CA        -9.3150  -32.4640   14.9470 C.3    69  LEU69       0.1561
     56  C         -9.2630  -31.4860   16.1030 C.2    69  LEU69       0.2260
     57  O        -10.2420  -30.7910   16.3700 O.2    69  LEU69      -0.2867
     58  CB        -9.0310  -31.7740   13.6140 C.3    69  LEU69       0.0270
     59  CG        -7.5360  -31.5260   13.4520 C.3    69  LEU69       0.0019
     60  CD1       -6.7500  -32.8090   13.1130 C.3    69  LEU69       0.0001
     61  CD2       -7.2940  -30.4550   12.4350 C.3    69  LEU69       0.0001
     62  N         -2.8960  -25.8400   14.9870 N.3    85  LEU85      -0.1231
     63  CA        -3.7470  -27.0180   14.8330 C.3    85  LEU85       0.1693
     64  C         -3.0620  -28.3700   14.9280 C.2    85  LEU85       0.2592
     65  O         -1.9260  -28.5280   14.5170 O.2    85  LEU85      -0.2718
     66  CB        -4.4490  -26.9420   13.5080 C.3    85  LEU85       0.0284
     67  CG        -5.6680  -26.0670   13.6190 C.3    85  LEU85       0.0019
     68  CD1       -5.8670  -25.3930   12.2970 C.3    85  LEU85       0.0001
     69  CD2       -6.8670  -26.8950   13.9910 C.3    85  LEU85       0.0001
     70  N         -3.7860  -29.3440   15.4720 N.am   86  GLU86      -0.1966
     71  CA        -3.3620  -30.7300   15.4250 C.3    86  GLU86       0.1733
     72  C         -3.0660  -31.0110   13.9980 C.2    86  GLU86       0.2616
     73  O         -3.6570  -30.3840   13.1030 O.2    86  GLU86      -0.2715
     74  CB        -4.4610  -31.6810   15.8650 C.3    86  GLU86       0.0429
     75  CG        -3.9740  -33.0940   15.9820 C.3    86  GLU86       0.1163
     76  CD        -5.0840  -34.1070   15.9980 C.2    86  GLU86       0.3649
     77  OE1       -6.2020  -33.8020   16.4440 O.co2  86  GLU86      -0.2457
     78  OE2       -4.8430  -35.2390   15.5550 O.co2  86  GLU86      -0.2457
     79  N         -2.1510  -31.9490   13.7740 N.am   87  TYR87      -0.1960
     80  CA        -1.7740  -32.3060   12.4030 C.3    87  TYR87       0.1771
     81  C         -2.2520  -33.7010   11.9830 C.2    87  TYR87       0.2619
     82  O         -2.2340  -34.6570   12.7620 O.2    87  TYR87      -0.2715
     83  CB        -0.2920  -32.0270   12.1420 C.3    87  TYR87       0.0574
     84  CG         0.2410  -32.7170   10.9290 C.ar   87  TYR87      -0.0198
     85  CD1        0.0640  -32.1730    9.6500 C.ar   87  TYR87      -0.0009
     86  CD2        0.9190  -33.9260   11.0530 C.ar   87  TYR87      -0.0009
     87  CE1        0.5530  -32.8240    8.5210 C.ar   87  TYR87       0.0417
     88  CE2        1.4070  -34.5800    9.9420 C.ar   87  TYR87       0.0417
     89  CZ         1.2260  -34.0270    8.6800 C.ar   87  TYR87       0.1957
     90  OH         1.7200  -34.7090    7.5940 O.3    87  TYR87      -0.2866
     91  N         -2.7570  -33.7850   10.7630 N.am   88  ALA88      -0.1964
     92  CA        -3.4050  -35.0000   10.3120 C.3    88  ALA88       0.1713
     93  C         -2.5890  -35.5660    9.1760 C.2    88  ALA88       0.2458
     94  O         -2.8250  -35.2260    8.0210 O.2    88  ALA88      -0.2730
     95  CB        -4.8110  -34.7250    9.8860 C.3    88  ALA88       0.0333
     96  N         -1.6360  -36.4600    9.5150 N.am   89  PRO89      -0.2727
     97  CA        -0.5030  -36.9210    8.7000 C.3    89  PRO89       0.1402
     98  C         -0.9330  -37.4700    7.3600 C.2    89  PRO89       0.2269
     99  O         -0.3490  -37.0740    6.3450 O.2    89  PRO89      -0.2865
    100  CB         0.1080  -38.0560    9.5300 C.3    89  PRO89       0.0296
    101  CG        -0.5140  -37.9510   10.8760 C.3    89  PRO89       0.0237
    102  CD        -1.8690  -37.3670   10.6500 C.3    89  PRO89       0.0939
    103  N         -3.4100  -36.8770    5.4390 N.3    91  GLY91      -0.1210
    104  CA        -4.1810  -36.0250    4.5330 C.3    91  GLY91       0.1956
    105  C         -5.6840  -36.0650    4.6610 C.2    91  GLY91       0.2612
    106  O         -6.2170  -36.6060    5.6300 O.2    91  GLY91      -0.2717
    107  N         -6.3720  -35.4850    3.6760 N.am   92  THR92      -0.1952
    108  CA        -7.8400  -35.3370    3.7340 C.3    92  THR92       0.1897
    109  C         -8.5410  -36.5420    3.1160 C.2    92  THR92       0.2313
    110  O         -7.8880  -37.4200    2.5590 O.2    92  THR92      -0.2863
    111  CB        -8.3160  -34.0510    3.0470 C.3    92  THR92       0.1794
    112  OG1       -8.4440  -34.2850    1.6540 O.3    92  THR92      -0.2208
    113  CG2       -7.3340  -32.9230    3.2320 C.3    92  THR92       0.0378
    114  N         -8.8650  -36.3350   -0.8350 N.3    95  ARG95      -0.1245
    115  CA        -7.7650  -36.7820   -1.6560 C.3    95  ARG95       0.1563
    116  C         -7.6600  -38.2940   -1.6850 C.2    95  ARG95       0.2260
    117  O         -7.1050  -38.8500   -2.6250 O.2    95  ARG95      -0.2867
    118  CB        -6.4480  -36.1300   -1.2000 C.3    95  ARG95       0.0307
    119  CG        -5.2620  -36.2890   -2.1540 C.3    95  ARG95       0.0489
    120  CD        -5.5740  -35.8670   -3.6440 C.3    95  ARG95       0.2205
    121  NE        -4.9830  -36.8420   -4.5920 N.pl3  95  ARG95      -0.0865
    122  CZ        -5.3100  -37.0000   -5.8800 C.cat  95  ARG95       0.5346
    123  NH1       -6.2330  -36.2440   -6.4640 N.pl3  95  ARG95       0.1354
    124  NH2       -4.7000  -37.9360   -6.5960 N.pl3  95  ARG95       0.1354
    125  N        -13.5290  -32.2440    2.2080 N.3   135  GLU135     -0.1231
    126  CA       -12.3900  -31.3300    2.3910 C.3   135  GLU135      0.1699
    127  C        -12.0960  -31.0870    3.8780 C.2   135  GLU135      0.2592
    128  O        -10.9670  -30.7710    4.2230 O.2   135  GLU135     -0.2718
    129  CB       -12.5960  -29.9740    1.6920 C.3   135  GLU135      0.0402
    130  CG       -12.6440  -30.0090    0.1930 C.3   135  GLU135      0.1161
    131  CD       -14.0520  -30.3140   -0.3430 C.2   135  GLU135      0.3649
    132  OE1      -14.8130  -31.0720    0.3350 O.co2 135  GLU135     -0.2457
    133  OE2      -14.3850  -29.7980   -1.4550 O.co2 135  GLU135     -0.2457
    134  N        -13.1250  -31.2000    4.7260 N.am  136  ASN136     -0.1974
    135  CA       -13.0090  -31.0850    6.1810 C.3   136  ASN136      0.1688
    136  C        -12.9220  -32.4380    6.9070 C.2   136  ASN136      0.2292
    137  O        -13.1620  -32.5150    8.1020 O.2   136  ASN136     -0.2864
    138  CB       -14.2160  -30.3580    6.7770 C.3   136  ASN136      0.1181
    139  CG       -14.7140  -29.2250    5.9230 C.2   136  ASN136      0.2629
    140  OD1      -15.9310  -29.1020    5.6880 O.2   136  ASN136     -0.2716
    141  ND2      -13.7940  -28.3680    5.4610 N.am  136  ASN136     -0.0877
    142  N        -10.1700  -34.9070    7.7150 N.3   138  LEU138     -0.1245
    143  CA        -8.8030  -35.3720    7.6870 C.3   138  LEU138      0.1561
    144  C         -8.5780  -36.8200    8.2060 C.2   138  LEU138      0.2260
    145  O         -9.4910  -37.4880    8.6960 O.2   138  LEU138     -0.2867
    146  CB        -7.9590  -34.3890    8.4660 C.3   138  LEU138      0.0270
    147  CG        -7.9570  -32.9870    7.9020 C.3   138  LEU138      0.0019
    148  CD1       -8.0900  -31.9460    8.9910 C.3   138  LEU138      0.0001
    149  CD2       -6.6500  -32.8470    7.2050 C.3   138  LEU138      0.0001
    150  N        -13.2240  -31.4540   11.1400 N.3   148  ALA148     -0.1231
    151  CA       -12.2830  -30.3500   11.1770 C.3   148  ALA148      0.1694
    152  C        -12.7970  -28.9250   11.1130 C.2   148  ALA148      0.2592
    153  O        -12.1880  -28.0460   11.7190 O.2   148  ALA148     -0.2718
    154  CB       -11.2200  -30.5480   10.1210 C.3   148  ALA148      0.0304
    155  N        -13.8650  -28.6460   10.3860 N.am  149  ASP149     -0.1974
    156  CA       -14.0100  -27.2470    9.9510 C.3   149  ASP149      0.1709
    157  C        -14.8070  -26.2850   10.8340 C.2   149  ASP149      0.2293
    158  O        -14.6870  -26.3390   12.0360 O.2   149  ASP149     -0.2864
    159  CB       -14.3610  -27.1240    8.4520 C.3   149  ASP149      0.1436
    160  CG       -13.4540  -26.1230    7.7030 C.2   149  ASP149      0.3671
    161  OD1      -12.2430  -26.0430    8.0270 O.co2 149  ASP149     -0.2456
    162  OD2      -13.9590  -25.4270    6.7800 O.co2 149  ASP149     -0.2456
@<TRIPOS>BOND
     1   124   122    1
     2   123   122    1
     3   122   121    2
     4   121   120    1
     5   120   119    1
     6   117   116    2
     7   119   118    1
     8   116   115    1
     9   115   118    1
    10   115   114    1
    11   133   131   ar
    12    27    26    2
    13   131   130    1
    14   131   132   ar
    15    26    25    1
    16   130   129    1
    17    10     9    1
    18    25    24    1
    19    25    28    1
    20    21    22    1
    21    21    20    1
    22    22    24   am
    23    22    23    2
    24   112   111    1
    25   129   126    1
    26    20    14   am
    27    15    14    2
    28    28    29    1
    29     9    11    1
    30     9     8    2
    31    14    13    1
    32   125   126    1
    33     7     8    1
    34     7     6    1
    35   126   127    1
    36     5     2    1
    37     5     6    1
    38   110   109    2
    39    30    29    1
    40    30    31    1
    41    12    13    1
    42   111   113    1
    43   111   108    1
    44    13    16    1
    45   109   108    1
    46     2     3    1
    47     2     1    1
    48     3     4    2
    49   107   108    1
    50   107   105   am
    51   127   128    2
    52   127   134   am
    53    31    32    1
    54    16    17    1
    55   104   105    1
    56   104   103    1
    57   105   106    2
    58   134   135    1
    59    36    35    2
    60    33    34    1
    61    18    17    1
    62    17    19    1
    63   141   139   am
    64   140   139    2
    65    35    34    1
    66   139   138    1
    67    34    37    1
    68   135   138    1
    69   135   136    1
    70    37    39    1
    71    37    38    1
    72    99    98    2
    73   162   160   ar
    74   136   137    2
    75   149   147    1
    76    98    97    1
    77    90    89    1
    78   143   142    1
    79   143   144    1
    80   143   146    1
    81   160   161   ar
    82   160   159    1
    83   147   146    1
    84   147   148    1
    85    94    93    2
    86   144   145    2
    87   159   156    1
    88    87    89   ar
    89    87    85   ar
    90    52    53    1
    91    52    51    1
    92    89    88   ar
    93    97    96    1
    94    97   100    1
    95    50    51    1
    96    50    49    1
    97    93    96   am
    98    93    92    1
    99    46    47    1
   100    46    49    1
   101    46    45    1
   102    96   102    1
   103   100   101    1
   104    47    48    2
   105    85    84   ar
   106    95    92    1
   107    88    86   ar
   108   156   155    1
   109   156   157    1
   110   154   151    1
   111    92    91    1
   112   155   152   am
   113   102   101    1
   114    44    41    1
   115    91    81   am
   116   157   158    2
   117    84    86   ar
   118    84    83    1
   119    41    42    1
   120    41    40    1
   121   152   151    1
   122   152   153    2
   123   150   151    1
   124    42    43    2
   125    81    80    1
   126    81    82    2
   127    83    80    1
   128    68    67    1
   129    80    79    1
   130    61    59    1
   131    73    72    2
   132    60    59    1
   133    59    58    1
   134    66    67    1
   135    66    63    1
   136    58    55    1
   137    67    69    1
   138    79    72   am
   139    72    71    1
   140    65    64    2
   141    63    64    1
   142    63    62    1
   143    64    70   am
   144    55    54    1
   145    55    56    1
   146    71    70    1
   147    71    74    1
   148    78    76   ar
   149    74    75    1
   150    75    76    1
   151    76    77   ar
   152    56    57    2
