@<TRIPOS>MOLECULE
tmp/3r24A00.pdb
 199 197 0 0 0
SMALL
GASTEIGER

@<TRIPOS>ATOM
      1  N         67.1300   58.4570   64.9440 N.3    41  ASN41      -0.1240
      2  CA        66.6350   59.2380   66.0800 C.3    41  ASN41       0.1653
      3  C         67.4450   59.0150   67.3540 C.2    41  ASN41       0.2266
      4  O         67.5350   59.8920   68.2010 O.2    41  ASN41      -0.2867
      5  CB        65.1630   58.9510   66.3390 C.3    41  ASN41       0.1155
      6  CG        64.3440   58.9820   65.0760 C.2    41  ASN41       0.2627
      7  OD1       63.6960   59.9850   64.7790 O.2    41  ASN41      -0.2716
      8  ND2       64.3900   57.8780   64.2980 N.am   41  ASN41      -0.0877
      9  N         70.3420   61.2760   66.6150 N.3    44  LYS44      -0.1231
     10  CA        69.9010   62.6720   66.6460 C.3    44  LYS44       0.1693
     11  C         69.7090   63.1650   68.0820 C.2    44  LYS44       0.2592
     12  O         70.2260   64.2260   68.4640 O.2    44  LYS44      -0.2718
     13  CB        68.6080   62.8460   65.8370 C.3    44  LYS44       0.0285
     14  CG        68.1200   64.2970   65.7090 C.3    44  LYS44       0.0035
     15  CD        66.7100   64.3520   65.1140 C.3    44  LYS44       0.0206
     16  CE        66.6180   63.5780   63.7870 C.3    44  LYS44       0.1093
     17  NZ        65.2580   63.7020   63.1820 N.3    44  LYS44      -0.1314
     18  N         68.9650   62.4050   68.8810 N.am   45  TYR45      -0.1976
     19  CA        68.7630   62.7890   70.2710 C.3    45  TYR45       0.1639
     20  C         70.0740   62.7550   71.0420 C.2    45  TYR45       0.2290
     21  O         70.2820   63.5580   71.9400 O.2    45  TYR45      -0.2864
     22  CB        67.7320   61.8910   70.9700 C.3    45  TYR45       0.0560
     23  CG        66.2840   62.3120   70.8000 C.ar   45  TYR45      -0.0198
     24  CD1       65.6540   62.2130   69.5610 C.ar   45  TYR45      -0.0009
     25  CD2       65.5380   62.7720   71.8840 C.ar   45  TYR45      -0.0009
     26  CE1       64.3270   62.5750   69.4020 C.ar   45  TYR45       0.0417
     27  CE2       64.2040   63.1360   71.7390 C.ar   45  TYR45       0.0417
     28  CZ        63.6080   63.0270   70.4880 C.ar   45  TYR45       0.1957
     29  OH        62.2890   63.3580   70.3180 O.3    45  TYR45      -0.2866
     30  N         58.2060   65.0200   77.3560 N.3    67  HIS67      -0.1226
     31  CA        58.6830   64.7940   75.9950 C.3    67  HIS67       0.1752
     32  C         57.5120   64.5730   75.0430 C.2    67  HIS67       0.2596
     33  O         56.8760   63.5100   75.0640 O.2    67  HIS67      -0.2718
     34  CB        59.6480   63.5990   75.9800 C.3    67  HIS67       0.0759
     35  CG        60.1510   63.2260   74.6160 C.ar   67  HIS67       0.0818
     36  ND1       60.5280   61.9420   74.2890 N.ar   67  HIS67      -0.2268
     37  CD2       60.3320   63.9680   73.4950 C.ar   67  HIS67       0.1154
     38  CE1       60.9370   61.9070   73.0300 C.ar   67  HIS67       0.1986
     39  NE2       60.8180   63.1220   72.5260 N.ar   67  HIS67      -0.2212
     40  N         57.2070   65.5930   74.2370 N.am   68  PHE68      -0.1962
     41  CA        56.1080   65.5140   73.2780 C.3    68  PHE68       0.1771
     42  C         56.5850   64.9900   71.9270 C.2    68  PHE68       0.2620
     43  O         57.7070   65.2740   71.4980 O.2    68  PHE68      -0.2715
     44  CB        55.4770   66.8900   73.0760 C.3    68  PHE68       0.0574
     45  CG        54.7970   67.4360   74.2930 C.ar   68  PHE68      -0.0200
     46  CD1       53.5390   66.9850   74.6600 C.ar   68  PHE68      -0.0042
     47  CD2       55.4010   68.4260   75.0590 C.ar   68  PHE68      -0.0042
     48  CE1       52.8980   67.5000   75.7740 C.ar   68  PHE68      -0.0003
     49  CE2       54.7620   68.9400   76.1820 C.ar   68  PHE68      -0.0003
     50  CZ        53.5120   68.4810   76.5350 C.ar   68  PHE68      -0.0000
     51  N         55.7250   64.2470   71.2370 N.am   69  GLY69      -0.1940
     52  CA        56.0880   63.7120   69.9370 C.3    69  GLY69       0.2014
     53  C         57.1000   62.5890   70.0990 C.2    69  GLY69       0.2639
     54  O         58.0450   62.4800   69.3160 O.2    69  GLY69      -0.2714
     55  N         56.8970   61.7620   71.1230 N.am   70  ALA70      -0.1963
     56  CA        57.8530   60.7070   71.4810 C.3    70  ALA70       0.1728
     57  C         57.6240   59.3990   70.7350 C.2    70  ALA70       0.2617
     58  O         58.4490   58.4820   70.8200 O.2    70  ALA70      -0.2715
     59  CB        57.8060   60.4420   72.9880 C.3    70  ALA70       0.0334
     60  N         56.5010   59.2890   70.0350 N.am   71  GLY71      -0.1940
     61  CA        56.1830   58.0460   69.3500 C.3    71  GLY71       0.2014
     62  C         56.8610   58.0130   67.9950 C.2    71  GLY71       0.2640
     63  O         57.6320   58.9120   67.6480 O.2    71  GLY71      -0.2714
     64  N         56.5640   56.9840   67.2150 N.am   72  SER72      -0.1935
     65  CA        57.0980   56.8820   65.8650 C.3    72  SER72       0.2055
     66  C         56.3650   55.7960   65.0950 C.2    72  SER72       0.2643
     67  O         55.5700   55.0460   65.6760 O.2    72  SER72      -0.2714
     68  CB        58.5910   56.5500   65.9050 C.3    72  SER72       0.2130
     69  OG        58.7880   55.2050   66.3060 O.3    72  SER72      -0.2179
     70  N         56.6560   55.7170   63.7970 N.am   73  ASP73      -0.1971
     71  CA        56.1190   54.6840   62.9170 C.3    73  ASP73       0.1709
     72  C         56.5300   53.3070   63.4020 C.2    73  ASP73       0.2293
     73  O         55.8870   52.3050   63.0800 O.2    73  ASP73      -0.2864
     74  CB        56.6750   54.8440   61.4970 C.3    73  ASP73       0.1436
     75  CG        56.3700   56.1910   60.8910 C.2    73  ASP73       0.3671
     76  OD1       55.7630   57.0450   61.5780 O.co2  73  ASP73      -0.2456
     77  OD2       56.7480   56.4000   59.7170 O.co2  73  ASP73      -0.2456
     78  N         62.6500   55.9000   70.4750 N.3    78  PRO78      -0.2102
     79  CA        64.1120   55.9990   70.5140 C.3    78  PRO78       0.1504
     80  C         64.5690   57.2300   71.2850 C.2    78  PRO78       0.2576
     81  O         65.4780   57.1280   72.1070 O.2    78  PRO78      -0.2718
     82  CB        64.4950   56.1390   69.0320 C.3    78  PRO78       0.0282
     83  CG        63.3270   55.6100   68.2790 C.3    78  PRO78       0.0208
     84  CD        62.1300   55.9490   69.0960 C.3    78  PRO78       0.0893
     85  N         63.9500   58.3800   71.0150 N.am   79  GLY79      -0.1957
     86  CA        64.3090   59.6110   71.6960 C.3    79  GLY79       0.1869
     87  C         64.1120   59.5040   73.2000 C.2    79  GLY79       0.2309
     88  O         64.9460   59.9710   73.9840 O.2    79  GLY79      -0.2863
     89  N         54.7210   61.4630   75.3740 N.3    96  SER96      -0.1202
     90  CA        53.4000   61.5570   74.7880 C.3    96  SER96       0.2020
     91  C         53.4410   61.5510   73.2690 C.2    96  SER96       0.2619
     92  O         54.4280   61.9730   72.6510 O.2    96  SER96      -0.2717
     93  CB        52.7270   62.8360   75.2940 C.3    96  SER96       0.2103
     94  OG        51.3600   62.8820   74.9440 O.3    96  SER96      -0.2182
     95  N         52.3520   61.0850   72.6690 N.am   97  ASP97      -0.1959
     96  CA        52.2060   61.1000   71.2190 C.3    97  ASP97       0.1840
     97  C         50.7450   60.9170   70.8460 C.2    97  ASP97       0.2622
     98  O         49.9690   60.3390   71.6140 O.2    97  ASP97      -0.2715
     99  CB        53.0360   59.9790   70.5830 C.3    97  ASP97       0.1450
    100  CG        53.3220   60.2300   69.1190 C.2    97  ASP97       0.3671
    101  OD1       54.4180   60.7550   68.8180 O.co2  97  ASP97      -0.2456
    102  OD2       52.4450   59.9290   68.2710 O.co2  97  ASP97      -0.2456
    103  N         50.3820   61.4080   69.6650 N.am   98  LEU98      -0.1963
    104  CA        49.0630   61.1760   69.0910 C.3    98  LEU98       0.1728
    105  C         48.7780   59.6760   68.9750 C.2    98  LEU98       0.2616
    106  O         47.6710   59.2210   69.2560 O.2    98  LEU98      -0.2715
    107  CB        49.0090   61.7930   67.6970 C.3    98  LEU98       0.0311
    108  CG        47.6800   62.3000   67.1410 C.3    98  LEU98       0.0022
    109  CD1       47.8110   62.4830   65.6250 C.3    98  LEU98       0.0001
    110  CD2       46.5330   61.3670   67.4760 C.3    98  LEU98       0.0001
    111  N         49.7850   58.9180   68.5490 N.am   99  ASN99      -0.1972
    112  CA        49.6280   57.4860   68.2910 C.3    99  ASN99       0.1688
    113  C         50.2910   56.5940   69.3380 C.2    99  ASN99       0.2292
    114  O         51.3310   56.9440   69.8930 O.2    99  ASN99      -0.2864
    115  CB        50.1770   57.1510   66.9040 C.3    99  ASN99       0.1181
    116  CG        49.6290   58.0640   65.8300 C.2    99  ASN99       0.2629
    117  OD1       48.4220   58.2830   65.7480 O.2    99  ASN99      -0.2716
    118  ND2       50.5150   58.6080   65.0040 N.am   99  ASN99      -0.0877
    119  N         47.4070   60.4590   72.7810 N.3   111  GLY111     -0.1210
    120  CA        46.3780   61.3910   72.3670 C.3   111  GLY111      0.1956
    121  C         46.9940   62.6360   71.7700 C.2   111  GLY111      0.2612
    122  O         48.2050   62.8320   71.8430 O.2   111  GLY111     -0.2717
    123  N         46.1630   63.4700   71.1570 N.am  112  ASP112     -0.1959
    124  CA        46.6190   64.7560   70.6790 C.3   112  ASP112      0.1840
    125  C         47.1820   65.5340   71.8630 C.2   112  ASP112      0.2622
    126  O         46.6490   65.4570   72.9720 O.2   112  ASP112     -0.2715
    127  CB        45.4630   65.5180   70.0350 C.3   112  ASP112      0.1450
    128  CG        45.8920   66.8580   69.4800 C.2   112  ASP112      0.3671
    129  OD1       46.1540   67.7700   70.2780 O.co2 112  ASP112     -0.2456
    130  OD2       45.9640   66.9990   68.2450 O.co2 112  ASP112     -0.2456
    131  N         48.2560   66.2830   71.6350 N.am  113  CYS113     -0.1968
    132  CA        48.9110   66.9780   72.7380 C.3   113  CYS113      0.1712
    133  C         47.9580   67.9540   73.4330 C.2   113  CYS113      0.2296
    134  O         48.0920   68.2170   74.6250 O.2   113  CYS113     -0.2864
    135  CB        50.1870   67.6850   72.2710 C.3   113  CYS113      0.0983
    136  SG        49.9410   69.0060   71.0530 S.3   113  CYS113     -0.0798
    137  N         59.4430   66.7230   69.7060 N.3   128  ASP128     -0.1225
    138  CA        59.8170   66.2570   68.3810 C.3   128  ASP128      0.1805
    139  C         58.5480   66.0920   67.5490 C.2   128  ASP128      0.2598
    140  O         58.5510   65.4250   66.5250 O.2   128  ASP128     -0.2718
    141  CB        60.5960   64.9340   68.4500 C.3   128  ASP128      0.1424
    142  CG        61.3950   64.6620   67.1810 C.2   128  ASP128      0.3668
    143  OD1       61.8350   65.6420   66.5350 O.co2 128  ASP128     -0.2456
    144  OD2       61.5870   63.4770   66.8240 O.co2 128  ASP128     -0.2456
    145  N         57.4610   66.7170   67.9890 N.am  129  MET129     -0.1965
    146  CA        56.2270   66.6780   67.2150 C.3   129  MET129      0.1736
    147  C         56.4200   67.2130   65.7990 C.2   129  MET129      0.2616
    148  O         57.1280   68.2010   65.5660 O.2   129  MET129     -0.2715
    149  CB        55.1080   67.4470   67.9260 C.3   129  MET129      0.0427
    150  CG        54.6080   66.7260   69.1740 C.3   129  MET129      0.0599
    151  SD        53.1210   67.4810   69.8490 S.3   129  MET129     -0.1393
    152  CE        53.7770   69.0640   70.3970 C.3   129  MET129      0.0692
    153  N         55.7780   66.5460   64.8530 N.am  130  TYR130     -0.1960
    154  CA        55.8500   66.9450   63.4570 C.3   130  TYR130      0.1771
    155  C         54.6440   66.3720   62.7320 C.2   130  TYR130      0.2620
    156  O         54.3100   65.2040   62.9150 O.2   130  TYR130     -0.2715
    157  CB        57.1570   66.4530   62.8430 C.3   130  TYR130      0.0574
    158  CG        57.3310   66.7860   61.3810 C.ar  130  TYR130     -0.0198
    159  CD1       57.8720   68.0060   60.9810 C.ar  130  TYR130     -0.0009
    160  CD2       56.9690   65.8750   60.4000 C.ar  130  TYR130     -0.0009
    161  CE1       58.0370   68.3100   59.6330 C.ar  130  TYR130      0.0417
    162  CE2       57.1290   66.1630   59.0590 C.ar  130  TYR130      0.0417
    163  CZ        57.6600   67.3770   58.6790 C.ar  130  TYR130      0.1957
    164  OH        57.8200   67.6450   57.3440 O.3   130  TYR130     -0.2866
    165  N         53.9750   67.1920   61.9280 N.am  131  ASP131     -0.1958
    166  CA        52.7830   66.7310   61.2150 C.3   131  ASP131      0.1825
    167  C         53.1860   66.0710   59.9020 C.2   131  ASP131      0.2464
    168  O         53.7430   66.7230   59.0230 O.2   131  ASP131     -0.2730
    169  CB        51.8260   67.9010   60.9650 C.3   131  ASP131      0.1450
    170  CG        50.4870   67.4600   60.3800 C.2   131  ASP131      0.3671
    171  OD1       49.5080   68.2290   60.5000 O.co2 131  ASP131     -0.2456
    172  OD2       50.4080   66.3550   59.8060 O.co2 131  ASP131     -0.2456
    173  N         52.9040   64.7650   59.7590 N.am  132  PRO132     -0.2727
    174  CA        53.3400   64.0620   58.5480 C.3   132  PRO132      0.1402
    175  C         52.5780   64.5410   57.3160 C.2   132  PRO132      0.2269
    176  O         52.9640   64.1980   56.2060 O.2   132  PRO132     -0.2865
    177  CB        52.9780   62.5950   58.8290 C.3   132  PRO132      0.0296
    178  CG        52.5270   62.5380   60.2540 C.3   132  PRO132      0.0237
    179  CD        52.0740   63.9140   60.6240 C.3   132  PRO132      0.0939
    180  N         49.7880   71.7810   66.8700 N.3   147  PHE147     -0.1241
    181  CA        50.5120   71.5110   68.1150 C.3   147  PHE147      0.1605
    182  C         51.3840   72.6830   68.5770 C.2   147  PHE147      0.2264
    183  O         51.6720   72.8130   69.7680 O.2   147  PHE147     -0.2867
    184  CB        51.3340   70.2110   68.0270 C.3   147  PHE147      0.0534
    185  CG        52.4460   70.2450   67.0100 C.ar  147  PHE147     -0.0203
    186  CD1       53.6230   70.9330   67.2650 C.ar  147  PHE147     -0.0042
    187  CD2       52.3230   69.5700   65.8080 C.ar  147  PHE147     -0.0042
    188  CE1       54.6520   70.9530   66.3300 C.ar  147  PHE147     -0.0003
    189  CE2       53.3460   69.5900   64.8670 C.ar  147  PHE147     -0.0003
    190  CZ        54.5100   70.2880   65.1310 C.ar  147  PHE147     -0.0000
    191  N         61.5370   70.7660   67.9670 N.3   168  LYS168     -0.1245
    192  CA        61.9350   70.4920   66.5760 C.3   168  LYS168      0.1561
    193  C         61.1320   71.3400   65.6070 C.2   168  LYS168      0.2260
    194  O         59.9090   71.4360   65.7210 O.2   168  LYS168     -0.2867
    195  CB        61.7780   69.0140   66.1890 C.3   168  LYS168      0.0271
    196  CG        62.2330   68.7150   64.7280 C.3   168  LYS168      0.0035
    197  CD        61.2450   67.8080   63.9590 C.3   168  LYS168      0.0206
    198  CE        61.8280   66.3960   63.7340 C.3   168  LYS168      0.1093
    199  NZ        60.8240   65.3250   63.9170 N.3   168  LYS168     -0.1314
@<TRIPOS>BOND
     1   176   175    2
     2   175   174    1
     3   164   163    1
     4   174   177    1
     5   174   173    1
     6   163   162   ar
     7   163   161   ar
     8   177   178    1
     9   168   167    2
    10   162   160   ar
    11   161   159   ar
    12    77    75   ar
    13   173   167   am
    14   173   179    1
    15   172   170   ar
    16   167   166    1
    17   178   179    1
    18   170   171   ar
    19   170   169    1
    20   160   158   ar
    21    75    74    1
    22    75    76   ar
    23   169   166    1
    24   159   158   ar
    25   166   165    1
    26   158   157    1
    27    74    71    1
    28   165   155   am
    29   155   156    2
    30   155   154    1
    31   157   154    1
    32    71    72    1
    33    71    70    1
    34    73    72    2
    35    17    16    1
    36   154   153    1
    37   198   199    1
    38   198   197    1
    39    16    15    1
    40    70    66   am
    41   197   196    1
    42     8     6   am
    43   196   195    1
    44     7     6    2
    45   153   147   am
    46   189   190   ar
    47   189   187   ar
    48     1     2    1
    49   118   116   am
    50     6     5    1
    51    66    67    2
    52    66    65    1
    53    15    14    1
    54   190   188   ar
    55   148   147    2
    56   193   194    2
    57   193   192    1
    58   109   108    1
    59    14    13    1
    60   117   116    2
    61   147   146    1
    62   187   185   ar
    63   116   115    1
    64    13    10    1
    65    65    68    1
    66    65    64    1
    67    68    69    1
    68     2     5    1
    69     2     3    1
    70   195   192    1
    71   188   186   ar
    72   140   139    2
    73   143   142   ar
    74   192   191    1
    75     9    10    1
    76    10    11    1
    77   144   142   ar
    78   180   181    1
    79   115   112    1
    80   185   186   ar
    81   185   184    1
    82   108   110    1
    83   108   107    1
    84   142   141    1
    85   146   149    1
    86   146   145    1
    87    64    62   am
    88     3     4    2
    89   139   145   am
    90   139   138    1
    91    63    62    2
    92   107   104    1
    93   149   150    1
    94    62    61    1
    95   184   181    1
    96    11    12    2
    97    11    18   am
    98   181   182    1
    99   130   128   ar
   100   102   100   ar
   101    83    82    1
   102    83    84    1
   103   112   111    1
   104   112   113    1
   105   138   141    1
   106   138   137    1
   107   111   105   am
   108   182   183    2
   109   101   100   ar
   110    18    19    1
   111   105   104    1
   112   105   106    2
   113    82    79    1
   114   104   103    1
   115    84    78    1
   116   100    99    1
   117   150   151    1
   118    54    53    2
   119   113   114    2
   120    61    60    1
   121    26    24   ar
   122    26    28   ar
   123   128   127    1
   124   128   129   ar
   125    24    23   ar
   126   103    97   am
   127   151   152    1
   128    52    53    1
   129    52    51    1
   130    60    57   am
   131   127   124    1
   132    53    55   am
   133    19    22    1
   134    19    20    1
   135    29    28    1
   136    78    79    1
   137    28    27   ar
   138    79    80    1
   139    99    96    1
   140   124   123    1
   141   124   125    1
   142    57    58    2
   143    57    56    1
   144    23    22    1
   145    23    25   ar
   146    97    96    1
   147    97    98    2
   148    85    80   am
   149    85    86    1
   150    20    21    2
   151   136   135    1
   152    55    56    1
   153   123   121   am
   154    96    95    1
   155    51    42   am
   156    80    81    2
   157    56    59    1
   158    43    42    2
   159   131   125   am
   160   131   132    1
   161    86    87    1
   162    27    25   ar
   163   121   122    2
   164   121   120    1
   165   125   126    2
   166    42    41    1
   167   135   132    1
   168   120   119    1
   169    39    38   ar
   170    39    37   ar
   171    92    91    2
   172    95    91   am
   173   132   133    1
   174    38    36   ar
   175    44    41    1
   176    44    45    1
   177    87    88    2
   178    91    90    1
   179    41    40    1
   180   133   134    2
   181    37    35   ar
   182    40    32   am
   183    36    35   ar
   184    45    46   ar
   185    45    47   ar
   186    35    34    1
   187    46    48   ar
   188    90    93    1
   189    90    89    1
   190    94    93    1
   191    32    33    2
   192    32    31    1
   193    47    49   ar
   194    48    50   ar
   195    34    31    1
   196    31    30    1
   197    49    50   ar
