@<TRIPOS>MOLECULE
tmp/3r28A00.pdb
 167 157 0 0 0
SMALL
GASTEIGER

@<TRIPOS>ATOM
      1  N        -68.0040  -20.3480   28.1230 N.3     8  GLU8       -0.1245
      2  CA       -67.7610  -19.6860   29.4010 C.3     8  GLU8        0.1567
      3  C        -68.5190  -18.3680   29.4650 C.2     8  GLU8        0.2260
      4  O        -68.9990  -17.8630   28.4510 O.2     8  GLU8       -0.2867
      5  CB       -66.2750  -19.3640   29.5840 C.3     8  GLU8        0.0388
      6  CG       -65.3100  -20.5150   29.4050 C.3     8  GLU8        0.1160
      7  CD       -63.8820  -20.1030   29.7020 C.2     8  GLU8        0.3649
      8  OE1      -63.4200  -19.0950   29.1210 O.co2   8  GLU8       -0.2457
      9  OE2      -63.2240  -20.7880   30.5160 O.co2   8  GLU8       -0.2457
     10  N        -68.0700  -14.7680   29.7270 N.3    10  ILE10      -0.1231
     11  CA       -67.0250  -13.7680   29.5560 C.3    10  ILE10       0.1692
     12  C        -67.1420  -12.6840   30.6140 C.2    10  ILE10       0.2592
     13  O        -66.1540  -12.3080   31.2440 O.2    10  ILE10      -0.2718
     14  CB       -67.1050  -13.0990   28.1720 C.3    10  ILE10       0.0266
     15  CG1      -66.8860  -14.1340   27.0690 C.3    10  ILE10       0.0019
     16  CG2      -66.0630  -12.0040   28.0740 C.3    10  ILE10       0.0020
     17  CD1      -66.9930  -13.5630   25.6720 C.3    10  ILE10       0.0001
     18  N        -68.3550  -12.1790   30.7960 N.am   11  GLY11      -0.1957
     19  CA       -68.5750  -11.1410   31.7820 C.3    11  GLY11       0.1869
     20  C        -70.0310  -10.7460   31.8790 C.2    11  GLY11       0.2309
     21  O        -70.9240  -11.5030   31.5000 O.2    11  GLY11      -0.2863
     22  N        -71.6990   -7.2450   30.9250 N.3    13  GLY13      -0.1225
     23  CA       -71.6700   -5.8780   30.4320 C.3    13  GLY13       0.1811
     24  C        -72.7280   -4.9160   30.9410 C.2    13  GLY13       0.2280
     25  O        -73.4030   -5.1720   31.9420 O.2    13  GLY13      -0.2866
     26  N        -72.6290  -11.7520   29.1830 N.3    18  VAL18      -0.1245
     27  CA       -71.9560  -12.1140   27.9400 C.3    18  VAL18       0.1561
     28  C        -71.3140  -13.4840   28.0810 C.2    18  VAL18       0.2260
     29  O        -70.6940  -13.7800   29.0990 O.2    18  VAL18      -0.2867
     30  CB       -70.8400  -11.1170   27.5860 C.3    18  VAL18       0.0252
     31  CG1      -70.2830  -11.4420   26.2050 C.3    18  VAL18       0.0019
     32  CG2      -71.3660   -9.6970   27.6370 C.3    18  VAL18       0.0019
     33  N        -69.0680  -16.7610   25.9230 N.3    20  LYS20      -0.1245
     34  CA       -68.2770  -17.1660   24.7770 C.3    20  LYS20       0.1561
     35  C        -69.0420  -18.4270   24.4430 C.2    20  LYS20       0.2260
     36  O        -69.2970  -19.2470   25.3300 O.2    20  LYS20      -0.2867
     37  CB       -66.8500  -17.5270   25.1740 C.3    20  LYS20       0.0271
     38  CG       -65.9890  -18.0270   24.0110 C.3    20  LYS20       0.0035
     39  CD       -64.5510  -18.2440   24.5010 C.3    20  LYS20       0.0206
     40  CE       -63.6380  -18.7670   23.3990 C.3    20  LYS20       0.1093
     41  NZ       -62.2600  -19.0140   23.9230 N.3    20  LYS20      -0.1314
     42  N        -69.3060  -14.3650   20.5790 N.3    31  ALA31      -0.1245
     43  CA       -69.6200  -13.7390   21.8590 C.3    31  ALA31       0.1562
     44  C        -71.1290  -13.5880   21.7990 C.2    31  ALA31       0.2260
     45  O        -71.6640  -13.0660   20.8240 O.2    31  ALA31      -0.2867
     46  CB       -68.9690  -12.3740   21.9790 C.3    31  ALA31       0.0290
     47  N        -74.3450  -11.9920   23.7040 N.3    33  LYS33      -0.1245
     48  CA       -74.7770  -11.0590   24.7380 C.3    33  LYS33       0.1561
     49  C        -76.2940  -11.1290   24.9140 C.2    33  LYS33       0.2260
     50  O        -77.0400  -10.8730   23.9690 O.2    33  LYS33      -0.2867
     51  CB       -74.3590   -9.6280   24.3820 C.3    33  LYS33       0.0271
     52  CG       -74.6040   -8.6160   25.5030 C.3    33  LYS33       0.0035
     53  CD       -74.1730   -7.2150   25.0900 C.3    33  LYS33       0.0206
     54  CE       -74.3330   -6.2080   26.2300 C.3    33  LYS33       0.1093
     55  NZ       -73.4280   -6.4940   27.3880 N.3    33  LYS33      -0.1314
     56  N        -66.2800   -4.4810   15.4660 N.3    60  VAL60      -0.1245
     57  CA       -66.6410   -5.8600   15.8070 C.3    60  VAL60       0.1561
     58  C        -67.9370   -6.2120   15.0610 C.2    60  VAL60       0.2260
     59  O        -68.9590   -5.5570   15.2220 O.2    60  VAL60      -0.2867
     60  CB       -66.8490   -6.0340   17.3370 C.3    60  VAL60       0.0252
     61  CG1      -67.2900   -7.4590   17.6430 C.3    60  VAL60       0.0019
     62  CG2      -65.5360   -5.7460   18.0760 C.3    60  VAL60       0.0019
     63  N        -71.9250  -11.6360   18.3180 N.3    76  PHE76      -0.1227
     64  CA       -70.7910  -10.8760   17.7940 C.3    76  PHE76       0.1736
     65  C        -69.5990  -11.7480   17.4470 C.2    76  PHE76       0.2595
     66  O        -69.4000  -12.8010   18.0560 O.2    76  PHE76      -0.2718
     67  CB       -70.2820   -9.8940   18.8510 C.3    76  PHE76       0.0547
     68  CG       -71.2550   -8.8350   19.2260 C.ar   76  PHE76      -0.0202
     69  CD1      -71.5290   -7.7880   18.3570 C.ar   76  PHE76      -0.0042
     70  CD2      -71.8550   -8.8480   20.4800 C.ar   76  PHE76      -0.0042
     71  CE1      -72.3910   -6.7530   18.7410 C.ar   76  PHE76      -0.0003
     72  CE2      -72.7140   -7.8210   20.8700 C.ar   76  PHE76      -0.0003
     73  CZ       -72.9780   -6.7730   19.9960 C.ar   76  PHE76      -0.0000
     74  N        -68.7890  -11.2880   16.4980 N.am   77  GLU77      -0.1965
     75  CA       -67.5670  -12.0150   16.1520 C.3    77  GLU77       0.1733
     76  C        -66.7580  -11.9560   17.4520 C.2    77  GLU77       0.2616
     77  O        -66.8410  -10.9790   18.2020 O.2    77  GLU77      -0.2715
     78  CB       -66.7830  -11.3220   15.0280 C.3    77  GLU77       0.0429
     79  CG       -65.9860  -10.1180   15.4570 C.3    77  GLU77       0.1163
     80  CD       -65.1080   -9.5460   14.3470 C.2    77  GLU77       0.3649
     81  OE1      -63.9910  -10.0580   14.1040 O.co2  77  GLU77      -0.2457
     82  OE2      -65.5420   -8.5750   13.7150 O.co2  77  GLU77      -0.2457
     83  N        -65.9710  -12.9880   17.7050 N.am   78  PHE78      -0.1960
     84  CA       -65.2110  -13.0760   18.9420 C.3    78  PHE78       0.1771
     85  C        -63.7580  -12.6330   18.8630 C.2    78  PHE78       0.2619
     86  O        -63.0680  -12.9540   17.8970 O.2    78  PHE78      -0.2715
     87  CB       -65.2700  -14.5300   19.4400 C.3    78  PHE78       0.0574
     88  CG       -64.5180  -14.7820   20.7140 C.ar   78  PHE78      -0.0200
     89  CD1      -63.1960  -15.2350   20.6930 C.ar   78  PHE78      -0.0042
     90  CD2      -65.1360  -14.5700   21.9460 C.ar   78  PHE78      -0.0042
     91  CE1      -62.5080  -15.4700   21.8790 C.ar   78  PHE78      -0.0003
     92  CE2      -64.4570  -14.8010   23.1330 C.ar   78  PHE78      -0.0003
     93  CZ       -63.1410  -15.2520   23.1060 C.ar   78  PHE78      -0.0000
     94  N        -63.3150  -11.8800   19.8710 N.am   79  LEU79      -0.1963
     95  CA       -61.9160  -11.4640   19.9920 C.3    79  LEU79       0.1728
     96  C        -61.5180  -11.8080   21.4210 C.2    79  LEU79       0.2616
     97  O        -62.3020  -11.6560   22.3500 O.2    79  LEU79      -0.2715
     98  CB       -61.6950   -9.9690   19.6900 C.3    79  LEU79       0.0311
     99  CG       -61.6440   -9.6630   18.1880 C.3    79  LEU79       0.0022
    100  CD1      -63.0570   -9.3530   17.7190 C.3    79  LEU79       0.0001
    101  CD2      -60.7260   -8.4670   17.8890 C.3    79  LEU79       0.0001
    102  N        -60.2890  -12.2770   21.5930 N.am   80  HIS80      -0.1959
    103  CA       -59.8260  -12.7480   22.8850 C.3    80  HIS80       0.1787
    104  C        -59.5110  -11.7780   24.0070 C.2    80  HIS80       0.2620
    105  O        -59.4790  -12.1780   25.1640 O.2    80  HIS80      -0.2715
    106  CB       -58.5960  -13.6360   22.6850 C.3    80  HIS80       0.0785
    107  CG       -58.8910  -14.9460   22.0240 C.ar   80  HIS80       0.0821
    108  ND1      -58.9860  -15.0870   20.6580 N.ar   80  HIS80      -0.2267
    109  CD2      -59.1010  -16.1810   22.5480 C.ar   80  HIS80       0.1154
    110  CE1      -59.2420  -16.3520   20.3640 C.ar   80  HIS80       0.1986
    111  NE2      -59.3170  -17.0360   21.4930 N.ar   80  HIS80      -0.2212
    112  N        -59.2700  -10.5160   23.6910 N.am   81  GLN81      -0.1963
    113  CA       -58.8960   -9.5970   24.7630 C.3    81  GLN81       0.1733
    114  C        -59.3620   -8.1810   24.5110 C.2    81  GLN81       0.2616
    115  O        -59.5700   -7.7860   23.3630 O.2    81  GLN81      -0.2715
    116  CB       -57.3780   -9.6300   24.9080 C.3    81  GLN81       0.0408
    117  CG       -56.8120   -8.9420   26.1570 C.3    81  GLN81       0.0908
    118  CD       -55.4020   -9.4190   26.4470 C.2    81  GLN81       0.2608
    119  OE1      -55.1810  -10.6080   26.6970 O.2    81  GLN81      -0.2717
    120  NE2      -54.4410   -8.5100   26.3990 N.am   81  GLN81      -0.0878
    121  N        -59.5390   -7.4200   25.5890 N.am   82  ASP82      -0.1971
    122  CA       -59.9640   -6.0410   25.4400 C.3    82  ASP82       0.1709
    123  C        -58.7900   -5.1370   25.8240 C.2    82  ASP82       0.2293
    124  O        -57.8130   -5.5890   26.4360 O.2    82  ASP82      -0.2864
    125  CB       -61.2130   -5.7390   26.2840 C.3    82  ASP82       0.1436
    126  CG       -60.9720   -5.8810   27.7820 C.2    82  ASP82       0.3671
    127  OD1      -60.0290   -5.2510   28.3070 O.co2  82  ASP82      -0.2456
    128  OD2      -61.7370   -6.6270   28.4310 O.co2  82  ASP82      -0.2456
    129  N        -57.7470   -4.8280   29.6830 N.3    85  LYS85      -0.1245
    130  CA       -56.8830   -5.8930   30.1820 C.3    85  LYS85       0.1561
    131  C        -55.4670   -5.7410   29.6240 C.2    85  LYS85       0.2260
    132  O        -54.4820   -5.9190   30.3520 O.2    85  LYS85      -0.2867
    133  CB       -57.4400   -7.2730   29.8060 C.3    85  LYS85       0.0271
    134  CG       -56.5580   -8.4130   30.2890 C.3    85  LYS85       0.0035
    135  CD       -57.0730   -9.7820   29.8390 C.3    85  LYS85       0.0206
    136  CE       -56.2490  -10.9070   30.4620 C.3    85  LYS85       0.1093
    137  NZ       -56.5060  -11.0490   31.9290 N.3    85  LYS85      -0.1314
    138  N        -62.6690   -1.0990   27.7890 N.3   127  GLN127     -0.1245
    139  CA       -63.3270   -2.3960   27.8400 C.3   127  GLN127      0.1566
    140  C        -64.0790   -2.7020   26.5510 C.2   127  GLN127      0.2260
    141  O        -64.2900   -3.8680   26.2300 O.2   127  GLN127     -0.2867
    142  CB       -64.3090   -2.4790   29.0260 C.3   127  GLN127      0.0367
    143  CG       -63.6900   -2.5820   30.4070 C.3   127  GLN127      0.0905
    144  CD       -64.7430   -2.7710   31.4960 C.2   127  GLN127      0.2608
    145  OE1      -64.4270   -2.8070   32.6850 O.2   127  GLN127     -0.2717
    146  NE2      -66.0030   -2.8960   31.0860 N.am  127  GLN127     -0.0878
    147  N        -61.6500   -4.1700   21.4200 N.3   130  LEU130     -0.1245
    148  CA       -61.1250   -5.5380   21.4080 C.3   130  LEU130      0.1561
    149  C        -59.9240   -5.6890   20.4840 C.2   130  LEU130      0.2260
    150  O        -59.8680   -5.0690   19.4310 O.2   130  LEU130     -0.2867
    151  CB       -62.2430   -6.5000   21.0030 C.3   130  LEU130      0.0270
    152  CG       -63.5270   -6.2870   21.8210 C.3   130  LEU130      0.0019
    153  CD1      -64.5410   -7.3780   21.4650 C.3   130  LEU130      0.0001
    154  CD2      -63.1980   -6.3100   23.3400 C.3   130  LEU130      0.0001
    155  N        -66.3540   -2.1940   19.7430 N.3   140  ALA140     -0.1231
    156  CA       -67.4560   -3.0940   20.0710 C.3   140  ALA140      0.1694
    157  C        -68.6030   -2.2680   20.6510 C.2   140  ALA140      0.2592
    158  O        -68.3660   -1.3180   21.3860 O.2   140  ALA140     -0.2718
    159  CB       -66.9870   -4.1400   21.0740 C.3   140  ALA140      0.0304
    160  N        -69.8340   -2.6210   20.2810 N.am  141  ASP141     -0.1974
    161  CA       -71.0430   -1.9340   20.7560 C.3   141  ASP141      0.1709
    162  C        -71.4900   -0.6590   20.0380 C.2   141  ASP141      0.2293
    163  O        -72.2540    0.1140   20.6020 O.2   141  ASP141     -0.2864
    164  CB       -70.9360   -1.6440   22.2530 C.3   141  ASP141      0.1436
    165  CG       -70.9700   -2.9020   23.0920 C.2   141  ASP141      0.3671
    166  OD1      -70.7540   -2.8050   24.3160 O.co2 141  ASP141     -0.2456
    167  OD2      -71.2240   -3.9900   22.5330 O.co2 141  ASP141     -0.2456
@<TRIPOS>BOND
     1    82    80   ar
     2    81    80   ar
     3    80    79    1
     4    78    79    1
     5    78    75    1
     6    58    59    2
     7    58    57    1
     8    56    57    1
     9    57    60    1
    10    75    74    1
    11    75    76    1
    12    74    65   am
    13    60    61    1
    14    60    62    1
    15    65    64    1
    16    65    66    2
    17    76    83   am
    18    76    77    2
    19    83    84    1
    20   100    99    1
    21    64    63    1
    22    64    67    1
    23   101    99    1
    24    86    85    2
    25    99    98    1
    26    69    71   ar
    27    69    68   ar
    28    71    73   ar
    29    67    68    1
    30    85    84    1
    31    85    94   am
    32    84    87    1
    33    68    70   ar
    34   150   149    2
    35    87    88    1
    36    98    95    1
    37   155   156    1
    38    94    95    1
    39    95    96    1
    40    73    72   ar
    41   162   163    2
    42   162   161    1
    43   156   157    1
    44   156   159    1
    45   160   157   am
    46   160   161    1
    47   110   108   ar
    48   110   111   ar
    49    70    72   ar
    50   149   148    1
    51    42    43    1
    52   157   158    2
    53   108   107   ar
    54    89    88   ar
    55    89    91   ar
    56    88    90   ar
    57   161   164    1
    58    45    44    2
    59   151   148    1
    60   151   152    1
    61   148   147    1
    62    96   102   am
    63    96    97    2
    64   153   152    1
    65   111   109   ar
    66   102   103    1
    67    44    43    1
    68   152   154    1
    69    43    46    1
    70    91    93   ar
    71    90    92   ar
    72   107   109   ar
    73   107   106    1
    74   164   165    1
    75   167   165   ar
    76   106   103    1
    77   103   104    1
    78   165   166   ar
    79    93    92   ar
    80   115   114    2
    81    40    41    1
    82    40    39    1
    83   112   104   am
    84   112   113    1
    85    47    48    1
    86    50    49    2
    87   104   105    2
    88    38    39    1
    89    38    37    1
    90    51    48    1
    91    51    52    1
    92    35    34    1
    93    35    36    2
    94   114   113    1
    95   114   121   am
    96    48    49    1
    97   113   116    1
    98    34    37    1
    99    34    33    1
   100   116   117    1
   101    53    52    1
   102    53    54    1
   103   122   121    1
   104   122   123    1
   105   122   125    1
   106    17    15    1
   107   123   124    2
   108   117   118    1
   109    31    30    1
   110    54    55    1
   111   141   140    2
   112   125   126    1
   113   120   118   am
   114   118   119    2
   115   140   139    1
   116    15    14    1
   117    30    32    1
   118    30    27    1
   119   126   127   ar
   120   126   128   ar
   121   138   139    1
   122   139   142    1
   123    27    28    1
   124    27    26    1
   125    16    14    1
   126    28    29    2
   127     1     2    1
   128    14    11    1
   129     4     3    2
   130   142   143    1
   131     8     7   ar
   132     2     3    1
   133     2     5    1
   134     6     5    1
   135     6     7    1
   136    11    10    1
   137    11    12    1
   138   131   130    1
   139   131   132    2
   140   129   130    1
   141     7     9   ar
   142   133   130    1
   143   133   134    1
   144   135   134    1
   145   135   136    1
   146   143   144    1
   147    23    22    1
   148    23    24    1
   149   136   137    1
   150    12    18   am
   151    12    13    2
   152    18    19    1
   153    24    25    2
   154   146   144   am
   155   144   145    2
   156    21    20    2
   157    19    20    1
