@<TRIPOS>MOLECULE
tmp/3r2aD00.pdb
 118 114 0 0 0
SMALL
GASTEIGER

@<TRIPOS>ATOM
      1  N        -77.6960   -1.2050  -16.6590 N.3    34  LEU34      -0.1231
      2  CA       -78.2570   -1.9900  -15.6200 C.3    34  LEU34       0.1693
      3  C        -79.7020   -1.6390  -15.8290 C.2    34  LEU34       0.2592
      4  O        -80.5900   -2.4570  -15.6540 O.2    34  LEU34      -0.2718
      5  CB       -77.8050   -1.4770  -14.2700 C.3    34  LEU34       0.0284
      6  CG       -78.6210   -1.8880  -13.0490 C.3    34  LEU34       0.0019
      7  CD1      -78.3320   -3.2950  -12.6220 C.3    34  LEU34       0.0001
      8  CD2      -78.3990   -0.9410  -11.8960 C.3    34  LEU34       0.0001
      9  N        -79.9420   -0.3950  -16.2220 N.am   35  PHE35      -0.1976
     10  CA       -81.3050    0.0410  -16.3430 C.3    35  PHE35       0.1639
     11  C        -81.9290   -0.8560  -17.3480 C.2    35  PHE35       0.2290
     12  O        -82.9080   -1.4980  -17.0800 O.2    35  PHE35      -0.2864
     13  CB       -81.3060    1.4750  -16.8980 C.3    35  PHE35       0.0560
     14  CG       -82.6620    2.1560  -16.8990 C.ar   35  PHE35      -0.0200
     15  CD1      -82.8750    3.2950  -16.1680 C.ar   35  PHE35      -0.0042
     16  CD2      -83.7060    1.6640  -17.6390 C.ar   35  PHE35      -0.0042
     17  CE1      -84.0990    3.9120  -16.1690 C.ar   35  PHE35      -0.0003
     18  CE2      -84.9300    2.2850  -17.6330 C.ar   35  PHE35      -0.0003
     19  CZ       -85.1230    3.4050  -16.9030 C.ar   35  PHE35      -0.0000
     20  N        -81.8720   -4.4770  -16.2330 N.3    38  VAL38      -0.1231
     21  CA       -82.9440   -4.8430  -15.3280 C.3    38  VAL38       0.1692
     22  C        -84.3530   -4.8140  -15.9080 C.2    38  VAL38       0.2591
     23  O        -85.1390   -5.7010  -15.6350 O.2    38  VAL38      -0.2718
     24  CB       -82.8730   -4.1070  -14.0300 C.3    38  VAL38       0.0266
     25  CG1      -83.6550   -4.8590  -13.0090 C.3    38  VAL38       0.0020
     26  CG2      -81.4590   -4.0340  -13.6030 C.3    38  VAL38       0.0020
     27  N        -84.7050   -3.7970  -16.6780 N.am   39  GLU39      -0.1979
     28  CA       -86.0530   -3.8090  -17.1900 C.3    39  GLU39       0.1602
     29  C        -86.2030   -5.0300  -18.0460 C.2    39  GLU39       0.2287
     30  O        -87.1970   -5.7290  -17.9580 O.2    39  GLU39      -0.2864
     31  CB       -86.4440   -2.5530  -17.9900 C.3    39  GLU39       0.0415
     32  CG       -87.5870   -1.6990  -17.3390 C.3    39  GLU39       0.1163
     33  CD       -88.6860   -1.2390  -18.3110 C.2    39  GLU39       0.3649
     34  OE1      -89.2530   -0.1490  -18.1130 O.co2  39  GLU39      -0.2457
     35  OE2      -89.0080   -1.9670  -19.2590 O.co2  39  GLU39      -0.2457
     36  N        -87.0770   -8.2530  -16.2860 N.3    42  LYS42      -0.1245
     37  CA       -88.3440   -8.3150  -15.5830 C.3    42  LYS42       0.1561
     38  C        -89.4010   -8.9570  -16.4330 C.2    42  LYS42       0.2260
     39  O        -90.1720   -9.7890  -15.9810 O.2    42  LYS42      -0.2867
     40  CB       -88.7930   -6.8970  -15.2240 C.3    42  LYS42       0.0271
     41  CG       -88.1990   -6.2980  -13.9470 C.3    42  LYS42       0.0035
     42  CD       -88.4680   -4.8000  -13.9010 C.3    42  LYS42       0.0206
     43  CE       -87.8610   -4.1320  -12.6950 C.3    42  LYS42       0.1093
     44  NZ       -87.9610   -2.6670  -12.8220 N.3    42  LYS42      -0.1314
     45  N        -89.7140  -15.1480  -15.2800 N.3    47  PHE47      -0.1227
     46  CA       -88.4510  -14.7550  -14.6790 C.3    47  PHE47       0.1736
     47  C        -88.4990  -14.2550  -13.2540 C.2    47  PHE47       0.2596
     48  O        -87.7160  -14.6710  -12.4340 O.2    47  PHE47      -0.2718
     49  CB       -87.8050  -13.6810  -15.5290 C.3    47  PHE47       0.0547
     50  CG       -86.6390  -13.0080  -14.8720 C.ar   47  PHE47      -0.0202
     51  CD1      -85.7300  -13.7300  -14.1410 C.ar   47  PHE47      -0.0042
     52  CD2      -86.4330  -11.6570  -15.0170 C.ar   47  PHE47      -0.0042
     53  CE1      -84.6590  -13.1190  -13.5570 C.ar   47  PHE47      -0.0003
     54  CE2      -85.3560  -11.0520  -14.4200 C.ar   47  PHE47      -0.0003
     55  CZ       -84.4730  -11.7880  -13.6910 C.ar   47  PHE47      -0.0000
     56  N        -89.3990  -13.3280  -12.9730 N.am   48  SER48      -0.1952
     57  CA       -89.5190  -12.7310  -11.6500 C.3    48  SER48       0.1924
     58  C        -89.9300  -13.7360  -10.6000 C.2    48  SER48       0.2314
     59  O        -89.6890  -13.5410   -9.4260 O.2    48  SER48      -0.2863
     60  CB       -90.4850  -11.5650  -11.6610 C.3    48  SER48       0.2116
     61  OG       -89.9960  -10.5270  -12.4700 O.3    48  SER48      -0.2180
     62  N        -85.9520  -14.5530   -5.4510 N.3    52  LEU52      -0.1245
     63  CA       -85.1420  -13.4050   -5.7850 C.3    52  LEU52       0.1561
     64  C        -83.7180  -13.7000   -5.4040 C.2    52  LEU52       0.2260
     65  O        -82.8040  -13.0520   -5.8620 O.2    52  LEU52      -0.2867
     66  CB       -85.6910  -12.1360   -5.1330 C.3    52  LEU52       0.0270
     67  CG       -84.8350  -11.0060   -4.5820 C.3    52  LEU52       0.0019
     68  CD1      -85.4140   -9.6980   -5.0410 C.3    52  LEU52       0.0001
     69  CD2      -84.7740  -11.0500   -3.0650 C.3    52  LEU52       0.0001
     70  N        -82.7660  -14.9590   -8.6230 N.3    55  GLN55      -0.1231
     71  CA       -82.9100  -14.0680   -9.7390 C.3    55  GLN55       0.1698
     72  C        -81.6850  -13.2200   -9.8190 C.2    55  GLN55       0.2592
     73  O        -81.2420  -12.8790  -10.8770 O.2    55  GLN55      -0.2718
     74  CB       -84.1060  -13.1350   -9.5690 C.3    55  GLN55       0.0381
     75  CG       -85.4740  -13.7490   -9.4030 C.3    55  GLN55       0.0905
     76  CD       -86.5520  -12.6850   -9.2650 C.2    55  GLN55       0.2608
     77  OE1      -86.4020  -11.5610   -9.7370 O.2    55  GLN55      -0.2717
     78  NE2      -87.6420  -13.0420   -8.6210 N.am   55  GLN55      -0.0878
     79  N        -81.1580  -12.8300   -8.6860 N.am   56  VAL56      -0.1980
     80  CA       -80.0060  -11.9550   -8.6660 C.3    56  VAL56       0.1595
     81  C        -78.7520  -12.5660   -9.2370 C.2    56  VAL56       0.2287
     82  O        -77.9500  -11.8940   -9.8310 O.2    56  VAL56      -0.2864
     83  CB       -79.7320  -11.4660   -7.2910 C.3    56  VAL56       0.0276
     84  CG1      -79.6820  -12.6400   -6.3630 C.3    56  VAL56       0.0022
     85  CG2      -78.4610  -10.6950   -7.2880 C.3    56  VAL56       0.0022
     86  N        -78.7370  -12.3900  -13.0460 N.3    59  LEU59      -0.1231
     87  CA       -78.4270  -11.1160  -13.5970 C.3    59  LEU59       0.1693
     88  C        -76.9760  -10.8370  -13.5410 C.2    59  LEU59       0.2591
     89  O        -76.4080  -10.3630  -14.4760 O.2    59  LEU59      -0.2718
     90  CB       -79.1490  -10.0480  -12.8340 C.3    59  LEU59       0.0284
     91  CG       -80.3230   -9.5090  -13.6130 C.3    59  LEU59       0.0019
     92  CD1      -81.1190   -8.6510  -12.7260 C.3    59  LEU59       0.0001
     93  CD2      -79.8170   -8.7130  -14.7640 C.3    59  LEU59       0.0001
     94  N        -76.3700  -11.0590  -12.4120 N.am   60  ARG60      -0.1980
     95  CA       -74.9620  -10.8270  -12.3520 C.3    60  ARG60       0.1597
     96  C        -74.2360  -11.8090  -13.2140 C.2    60  ARG60       0.2287
     97  O        -73.2920  -11.4620  -13.8690 O.2    60  ARG60      -0.2864
     98  CB       -74.4720  -10.9160  -10.9360 C.3    60  ARG60       0.0334
     99  CG       -73.1570  -10.2880  -10.7440 C.3    60  ARG60       0.0492
    100  CD       -72.7840  -10.4510   -9.3360 C.3    60  ARG60       0.2205
    101  NE       -73.3560  -11.6700   -8.8080 N.pl3  60  ARG60      -0.0865
    102  CZ       -73.4620  -11.9210   -7.5190 C.cat  60  ARG60       0.5346
    103  NH1      -73.0400  -11.0340   -6.6500 N.pl3  60  ARG60       0.1354
    104  NH2      -73.9870  -13.0500   -7.1020 N.pl3  60  ARG60       0.1354
    105  N        -74.8960  -10.8930  -18.1850 N.3    63  TRP63      -0.1241
    106  CA       -74.5040   -9.5180  -18.0020 C.3    63  TRP63       0.1605
    107  C        -73.4320   -9.3060  -18.9460 C.2    63  TRP63       0.2264
    108  O        -73.6670   -8.7410  -19.9800 O.2    63  TRP63      -0.2867
    109  CB       -73.9980   -9.1600  -16.6030 C.3    63  TRP63       0.0550
    110  CG       -73.6240   -7.6750  -16.5050 C.ar   63  TRP63       0.0003
    111  CD1      -72.5330   -7.0880  -17.0320 C.ar   63  TRP63       0.0946
    112  CD2      -74.3620   -6.6230  -15.8710 C.ar   63  TRP63       0.0152
    113  NE1      -72.5270   -5.7490  -16.7690 N.ar   63  TRP63      -0.2442
    114  CE2      -73.6470   -5.4400  -16.0600 C.ar   63  TRP63       0.0810
    115  CE3      -75.5520   -6.5700  -15.1610 C.ar   63  TRP63       0.0012
    116  CZ2      -74.0740   -4.2330  -15.5680 C.ar   63  TRP63       0.0191
    117  CZ3      -75.9700   -5.3650  -14.6690 C.ar   63  TRP63       0.0001
    118  CH2      -75.2370   -4.2170  -14.8740 C.ar   63  TRP63       0.0015
@<TRIPOS>BOND
     1   108   107    2
     2    35    33   ar
     3   107   106    1
     4    33    34   ar
     5    33    32    1
     6   105   106    1
     7    29    30    2
     8    29    28    1
     9   106   109    1
    10    31    32    1
    11    31    28    1
    12    16    18   ar
    13    16    14   ar
    14    18    19   ar
    15    11    12    2
    16    11    10    1
    17    28    27    1
    18   111   113   ar
    19   111   110   ar
    20    19    17   ar
    21    14    13    1
    22    14    15   ar
    23    13    10    1
    24   113   114   ar
    25    27    22   am
    26     1     2    1
    27   109   110    1
    28   110   112   ar
    29    38    39    2
    30    38    37    1
    31    10     9    1
    32    36    37    1
    33    20    21    1
    34     9     3   am
    35    17    15   ar
    36   114   112   ar
    37   114   116   ar
    38    22    23    2
    39    22    21    1
    40   112   115   ar
    41     3     4    2
    42     3     2    1
    43     2     5    1
    44    37    40    1
    45   116   118   ar
    46    49    50    1
    47    49    46    1
    48    21    24    1
    49    45    46    1
    50    40    41    1
    51   115   117   ar
    52    52    50   ar
    53    52    54   ar
    54   118   117   ar
    55    50    51   ar
    56    93    91    1
    57    46    47    1
    58    89    88    2
    59    54    55   ar
    60     5     6    1
    61    51    53   ar
    62    24    26    1
    63    24    25    1
    64    41    42    1
    65    42    43    1
    66    97    96    2
    67    55    53   ar
    68    91    90    1
    69    91    92    1
    70    87    88    1
    71    87    86    1
    72    87    90    1
    73    88    94   am
    74    47    56   am
    75    47    48    2
    76    96    95    1
    77     6     7    1
    78     6     8    1
    79    56    57    1
    80    44    43    1
    81    61    60    1
    82    94    95    1
    83    95    98    1
    84    60    57    1
    85    57    58    1
    86    98    99    1
    87    73    72    2
    88    99   100    1
    89    58    59    2
    90    82    81    2
    91    72    71    1
    92    72    79   am
    93    71    74    1
    94    71    70    1
    95    77    76    2
    96    74    75    1
    97    75    76    1
    98   100   101    1
    99    76    78   am
   100    81    80    1
   101   101   102    2
   102    79    80    1
   103    80    83    1
   104   102   104    1
   105   102   103    1
   106    83    85    1
   107    83    84    1
   108    65    64    2
   109    63    62    1
   110    63    64    1
   111    63    66    1
   112    66    67    1
   113    68    67    1
   114    67    69    1
