@<TRIPOS>MOLECULE
tmp/3r2aB00.pdb
 97 92 0 0 0
SMALL
GASTEIGER

@<TRIPOS>ATOM
      1  N        -28.7990  -12.4010  -28.8100 N.3    32  LEU32      -0.1245
      2  CA       -28.4320  -13.5420  -28.0420 C.3    32  LEU32       0.1561
      3  C        -26.9340  -13.4040  -28.0940 C.2    32  LEU32       0.2260
      4  O        -26.2230  -13.6800  -27.1430 O.2    32  LEU32      -0.2867
      5  CB       -28.8330  -14.8120  -28.7590 C.3    32  LEU32       0.0270
      6  CG       -28.7620  -16.0730  -27.9050 C.3    32  LEU32       0.0019
      7  CD1      -29.0310  -17.3020  -28.7300 C.3    32  LEU32       0.0001
      8  CD2      -27.4380  -16.1850  -27.2020 C.3    32  LEU32       0.0001
      9  N        -24.3020  -12.7780  -24.9860 N.3    36  VAL36      -0.1245
     10  CA       -23.2230  -13.6910  -24.6130 C.3    36  VAL36       0.1561
     11  C        -21.8100  -13.1040  -24.6510 C.2    36  VAL36       0.2260
     12  O        -20.9890  -13.4020  -23.7900 O.2    36  VAL36      -0.2867
     13  CB       -23.2580  -15.0220  -25.3490 C.3    36  VAL36       0.0252
     14  CG1      -22.1430  -15.8790  -24.8440 C.3    36  VAL36       0.0019
     15  CG2      -24.5500  -15.7170  -25.0970 C.3    36  VAL36       0.0019
     16  N        -21.4220  -11.1200  -21.3920 N.3    39  ALA39      -0.1231
     17  CA       -21.2120  -11.9080  -20.1940 C.3    39  ALA39       0.1694
     18  C        -19.8410  -12.5720  -20.1360 C.2    39  ALA39       0.2591
     19  O        -19.3380  -12.8920  -19.0730 O.2    39  ALA39      -0.2718
     20  CB       -22.2850  -12.9140  -20.0580 C.3    39  ALA39       0.0304
     21  N        -19.2670  -12.8270  -21.3010 N.am   40  LYS40      -0.1980
     22  CA       -17.9810  -13.4960  -21.4080 C.3    40  LYS40       0.1596
     23  C        -16.8600  -12.6970  -20.7920 C.2    40  LYS40       0.2287
     24  O        -15.9690  -13.2300  -20.1450 O.2    40  LYS40      -0.2864
     25  CB       -17.6590  -13.7430  -22.8740 C.3    40  LYS40       0.0298
     26  CG       -18.3180  -14.9670  -23.4780 C.3    40  LYS40       0.0038
     27  CD       -17.8280  -15.1580  -24.9010 C.3    40  LYS40       0.0206
     28  CE       -18.6070  -16.1910  -25.6450 C.3    40  LYS40       0.1093
     29  NZ       -18.4810  -15.8970  -27.0670 N.3    40  LYS40      -0.1314
     30  N        -16.9120  -14.2020  -14.1400 N.3    45  PHE45      -0.1241
     31  CA       -18.0350  -14.9540  -14.6760 C.3    45  PHE45       0.1605
     32  C        -17.7220  -16.2780  -15.3060 C.2    45  PHE45       0.2264
     33  O        -18.3360  -17.2760  -15.0100 O.2    45  PHE45      -0.2867
     34  CB       -18.6760  -14.0810  -15.7430 C.3    45  PHE45       0.0534
     35  CG       -19.9010  -14.6610  -16.3730 C.ar   45  PHE45      -0.0203
     36  CD1      -20.9420  -15.1210  -15.6070 C.ar   45  PHE45      -0.0042
     37  CD2      -20.0350  -14.6810  -17.7400 C.ar   45  PHE45      -0.0042
     38  CE1      -22.0600  -15.6230  -16.1910 C.ar   45  PHE45      -0.0003
     39  CE2      -21.1590  -15.1870  -18.3100 C.ar   45  PHE45      -0.0003
     40  CZ       -22.1690  -15.6560  -17.5360 C.ar   45  PHE45      -0.0000
     41  N        -20.6470  -24.1900  -14.8810 N.3    50  LEU50      -0.1245
     42  CA       -21.5120  -24.0940  -16.0310 C.3    50  LEU50       0.1561
     43  C        -22.9440  -24.1380  -15.6350 C.2    50  LEU50       0.2260
     44  O        -23.7670  -23.4820  -16.2130 O.2    50  LEU50      -0.2867
     45  CB       -21.2440  -25.2520  -16.9570 C.3    50  LEU50       0.0270
     46  CG       -21.6820  -25.0510  -18.3850 C.3    50  LEU50       0.0019
     47  CD1      -20.7480  -24.0600  -19.0200 C.3    50  LEU50       0.0001
     48  CD2      -21.6070  -26.3980  -19.0620 C.3    50  LEU50       0.0001
     49  N        -23.5830  -20.7600  -14.5210 N.3    53  GLN53      -0.1231
     50  CA       -23.4630  -19.7030  -15.5040 C.3    53  GLN53       0.1698
     51  C        -24.7080  -19.5180  -16.3370 C.2    53  GLN53       0.2592
     52  O        -25.1150  -18.4160  -16.6010 O.2    53  GLN53      -0.2718
     53  CB       -22.3020  -20.0070  -16.4670 C.3    53  GLN53       0.0381
     54  CG       -20.9340  -19.4360  -16.1200 C.3    53  GLN53       0.0905
     55  CD       -19.8620  -19.7640  -17.1420 C.2    53  GLN53       0.2608
     56  OE1      -19.9260  -19.3490  -18.2830 O.2    53  GLN53      -0.2717
     57  NE2      -18.8610  -20.4940  -16.7140 N.am   53  GLN53      -0.0878
     58  N        -25.2960  -20.5900  -16.8120 N.am   54  VAL54      -0.1980
     59  CA       -26.4650  -20.4530  -17.6590 C.3    54  VAL54       0.1595
     60  C        -27.6630  -19.8930  -16.9390 C.2    54  VAL54       0.2287
     61  O        -28.4600  -19.1710  -17.4920 O.2    54  VAL54      -0.2864
     62  CB       -26.8000  -21.7320  -18.3810 C.3    54  VAL54       0.0276
     63  CG1      -27.3670  -21.3980  -19.7370 C.3    54  VAL54       0.0022
     64  CG2      -25.5540  -22.5260  -18.5590 C.3    54  VAL54       0.0022
     65  N        -27.7880  -16.3240  -17.0350 N.3    57  LEU57      -0.1231
     66  CA       -28.1570  -15.8090  -18.3260 C.3    57  LEU57       0.1693
     67  C        -29.6120  -15.8070  -18.6210 C.2    57  LEU57       0.2591
     68  O        -30.1210  -14.8790  -19.1630 O.2    57  LEU57      -0.2718
     69  CB       -27.4210  -16.5600  -19.3920 C.3    57  LEU57       0.0284
     70  CG       -26.0660  -15.9090  -19.4660 C.3    57  LEU57       0.0019
     71  CD1      -24.9890  -16.9070  -19.3350 C.3    57  LEU57       0.0001
     72  CD2      -25.9510  -15.1110  -20.7040 C.3    57  LEU57       0.0001
     73  N        -30.2970  -16.8780  -18.3560 N.am   58  ARG58      -0.1980
     74  CA       -31.7030  -16.8260  -18.5890 C.3    58  ARG58       0.1597
     75  C        -32.3110  -15.8890  -17.6230 C.2    58  ARG58       0.2287
     76  O        -33.2320  -15.1830  -17.9270 O.2    58  ARG58      -0.2864
     77  CB       -32.3200  -18.1750  -18.4460 C.3    58  ARG58       0.0334
     78  CG       -32.6450  -18.7310  -19.7540 C.3    58  ARG58       0.0492
     79  CD       -32.3350  -20.1210  -19.6820 C.3    58  ARG58       0.2205
     80  NE       -32.4370  -20.5220  -18.3060 N.pl3  58  ARG58      -0.0865
     81  CZ       -33.2690  -21.4460  -17.8860 C.cat  58  ARG58       0.5346
     82  NH1      -34.0570  -22.0470  -18.7530 N.pl3  58  ARG58       0.1354
     83  NH2      -33.2970  -21.7680  -16.6120 N.pl3  58  ARG58       0.1354
     84  N        -31.7480  -12.1780  -18.6180 N.3    61  TRP61      -0.1241
     85  CA       -31.9630  -11.8440  -19.9860 C.3    61  TRP61       0.1605
     86  C        -32.9540  -10.7520  -20.0390 C.2    61  TRP61       0.2264
     87  O        -32.8370   -9.8350  -20.8000 O.2    61  TRP61      -0.2867
     88  CB       -32.5220  -13.0580  -20.6990 C.3    61  TRP61       0.0550
     89  CG       -32.8610  -12.8830  -22.1350 C.ar   61  TRP61       0.0003
     90  CD1      -33.9140  -12.2240  -22.6430 C.ar   61  TRP61       0.0946
     91  CD2      -32.1660  -13.4310  -23.2380 C.ar   61  TRP61       0.0152
     92  NE1      -33.9180  -12.3060  -23.9940 N.ar   61  TRP61      -0.2442
     93  CE2      -32.8440  -13.0460  -24.3840 C.ar   61  TRP61       0.0810
     94  CE3      -31.0260  -14.2070  -23.3650 C.ar   61  TRP61       0.0012
     95  CZ2      -32.4280  -13.4060  -25.6340 C.ar   61  TRP61       0.0191
     96  CZ3      -30.6240  -14.5670  -24.5980 C.ar   61  TRP61       0.0001
     97  CH2      -31.3130  -14.1660  -25.7210 C.ar   61  TRP61       0.0015
@<TRIPOS>BOND
     1     1     2    1
     2     5     2    1
     3     5     6    1
     4     7     6    1
     5     3     2    1
     6     3     4    2
     7     6     8    1
     8    29    28    1
     9    97    95   ar
    10    97    96   ar
    11    28    27    1
    12    95    93   ar
    13    13    15    1
    14    13    14    1
    15    13    10    1
    16     9    10    1
    17    27    26    1
    18    11    10    1
    19    11    12    2
    20    96    94   ar
    21    93    92   ar
    22    93    91   ar
    23    92    90   ar
    24    26    25    1
    25    94    91   ar
    26    91    89   ar
    27    25    22    1
    28    90    89   ar
    29    89    88    1
    30    22    21    1
    31    22    23    1
    32    16    17    1
    33    21    18   am
    34    87    86    2
    35    23    24    2
    36    72    70    1
    37    88    85    1
    38    17    18    1
    39    17    20    1
    40    18    19    2
    41    86    85    1
    42    85    84    1
    43    78    79    1
    44    78    77    1
    45    63    62    1
    46    79    80    1
    47    70    69    1
    48    70    71    1
    49    69    66    1
    50    68    67    2
    51    48    46    1
    52    47    46    1
    53    82    81    1
    54    67    73   am
    55    67    66    1
    56    74    77    1
    57    74    73    1
    58    74    75    1
    59    64    62    1
    60    46    45    1
    61    62    59    1
    62    66    65    1
    63    39    37   ar
    64    39    40   ar
    65    80    81    2
    66    56    55    2
    67    76    75    2
    68    81    83    1
    69    37    35   ar
    70    59    60    1
    71    59    58    1
    72    40    38   ar
    73    61    60    2
    74    55    57   am
    75    55    54    1
    76    45    42    1
    77    58    51   am
    78    52    51    2
    79    53    54    1
    80    53    50    1
    81    35    34    1
    82    35    36   ar
    83    51    50    1
    84    44    43    2
    85    38    36   ar
    86    42    43    1
    87    42    41    1
    88    34    31    1
    89    50    49    1
    90    32    33    2
    91    32    31    1
    92    31    30    1
