@<TRIPOS>MOLECULE
tmp/3r2aC00.pdb
 132 127 0 0 0
SMALL
GASTEIGER

@<TRIPOS>ATOM
      1  N        -51.8110  -37.6870  -26.9550 N.3    25  GLN25      -0.1245
      2  CA       -53.0150  -36.9520  -27.2460 C.3    25  GLN25       0.1566
      3  C        -53.0600  -36.6430  -28.7090 C.2    25  GLN25       0.2260
      4  O        -54.1060  -36.6370  -29.3210 O.2    25  GLN25      -0.2867
      5  CB       -53.0830  -35.7000  -26.3940 C.3    25  GLN25       0.0367
      6  CG       -53.6770  -35.9620  -25.0390 C.3    25  GLN25       0.0905
      7  CD       -53.2260  -34.9840  -24.0130 C.2    25  GLN25       0.2608
      8  OE1      -52.5510  -34.0200  -24.3270 O.2    25  GLN25      -0.2717
      9  NE2      -53.5940  -35.2210  -22.7710 N.am   25  GLN25      -0.0878
     10  N        -57.9730  -28.4200  -30.2440 N.3    55  TRP55      -0.1227
     11  CA       -57.2490  -29.4200  -29.5150 C.3    55  TRP55       0.1737
     12  C        -57.6110  -29.4290  -28.0740 C.2    55  TRP55       0.2595
     13  O        -57.8210  -30.4660  -27.5240 O.2    55  TRP55      -0.2718
     14  CB       -55.7690  -29.1170  -29.6520 C.3    55  TRP55       0.0564
     15  CG       -54.8420  -29.9830  -28.8940 C.ar   55  TRP55       0.0003
     16  CD1      -54.7590  -30.1200  -27.5590 C.ar   55  TRP55       0.0946
     17  CD2      -53.8160  -30.7870  -29.4400 C.ar   55  TRP55       0.0152
     18  NE1      -53.7600  -30.9810  -27.2340 N.ar   55  TRP55      -0.2442
     19  CE2      -53.1710  -31.4080  -28.3840 C.ar   55  TRP55       0.0810
     20  CE3      -53.3900  -31.0500  -30.7310 C.ar   55  TRP55       0.0012
     21  CZ2      -52.1350  -32.2600  -28.5710 C.ar   55  TRP55       0.0191
     22  CZ3      -52.3750  -31.8910  -30.9070 C.ar   55  TRP55       0.0001
     23  CH2      -51.7500  -32.4890  -29.8430 C.ar   55  TRP55       0.0015
     24  N        -57.6890  -28.2800  -27.4480 N.am   56  ASN56      -0.1974
     25  CA       -58.0590  -28.2490  -26.0500 C.3    56  ASN56       0.1688
     26  C        -59.4700  -28.7380  -25.7360 C.2    56  ASN56       0.2292
     27  O        -59.6550  -29.4970  -24.8200 O.2    56  ASN56      -0.2864
     28  CB       -57.8980  -26.8310  -25.5290 C.3    56  ASN56       0.1181
     29  CG       -57.4220  -26.7750  -24.1100 C.2    56  ASN56       0.2629
     30  OD1      -56.6610  -27.6100  -23.6660 O.2    56  ASN56      -0.2716
     31  ND2      -57.8460  -25.7690  -23.4010 N.am   56  ASN56      -0.0877
     32  N        -60.0890  -32.7400  -26.1720 N.3    59  LEU59      -0.1231
     33  CA       -59.6160  -33.5790  -25.1090 C.3    59  LEU59       0.1693
     34  C        -60.5050  -33.4910  -23.9180 C.2    59  LEU59       0.2591
     35  O        -60.8030  -34.4580  -23.2960 O.2    59  LEU59      -0.2718
     36  CB       -58.2480  -33.1600  -24.6780 C.3    59  LEU59       0.0284
     37  CG       -57.1920  -33.0820  -25.7440 C.3    59  LEU59       0.0019
     38  CD1      -55.9920  -32.6000  -25.0400 C.3    59  LEU59       0.0001
     39  CD2      -56.9340  -34.4030  -26.3750 C.3    59  LEU59       0.0001
     40  N        -60.9040  -32.2960  -23.5700 N.am   60  ILE60      -0.1980
     41  CA       -61.6930  -32.1010  -22.3980 C.3    60  ILE60       0.1595
     42  C        -62.9700  -32.8350  -22.5100 C.2    60  ILE60       0.2287
     43  O        -63.4060  -33.4510  -21.6020 O.2    60  ILE60      -0.2864
     44  CB       -62.0260  -30.6400  -22.2580 C.3    60  ILE60       0.0276
     45  CG1      -60.9030  -29.9180  -21.5540 C.3    60  ILE60       0.0022
     46  CG2      -63.2770  -30.4500  -21.4850 C.3    60  ILE60       0.0022
     47  CD1      -61.1320  -28.5040  -21.4570 C.3    60  ILE60       0.0001
     48  N        -62.1840  -36.5930  -21.5530 N.3    63  PHE63      -0.1241
     49  CA       -62.0270  -37.0450  -20.1960 C.3    63  PHE63       0.1605
     50  C        -63.2900  -36.9360  -19.4040 C.2    63  PHE63       0.2264
     51  O        -63.5050  -37.6890  -18.4870 O.2    63  PHE63      -0.2867
     52  CB       -60.7760  -36.5410  -19.4810 C.3    63  PHE63       0.0534
     53  CG       -60.6690  -35.0740  -19.3440 C.ar   63  PHE63      -0.0203
     54  CD1      -61.4650  -34.3860  -18.4750 C.ar   63  PHE63      -0.0042
     55  CD2      -59.6980  -34.3900  -20.0150 C.ar   63  PHE63      -0.0042
     56  CE1      -61.3330  -33.0400  -18.3290 C.ar   63  PHE63      -0.0003
     57  CE2      -59.5730  -33.0510  -19.8730 C.ar   63  PHE63      -0.0003
     58  CZ       -60.3900  -32.3780  -19.0270 C.ar   63  PHE63      -0.0000
     59  N        -62.1390  -37.2650  -11.9610 N.3    74  ILE74      -0.1245
     60  CA       -61.9510  -37.2590  -13.3930 C.3    74  ILE74       0.1561
     61  C        -60.8930  -38.2540  -13.7240 C.2    74  ILE74       0.2260
     62  O        -59.9340  -38.3660  -13.0190 O.2    74  ILE74      -0.2867
     63  CB       -61.5150  -35.9090  -13.9450 C.3    74  ILE74       0.0252
     64  CG1      -60.1910  -35.5000  -13.3840 C.3    74  ILE74       0.0019
     65  CG2      -62.4510  -34.8370  -13.5610 C.3    74  ILE74       0.0019
     66  CD1      -60.0800  -34.0300  -13.3530 C.3    74  ILE74       0.0001
     67  N        -58.1490  -39.3710  -16.3900 N.3    76  LEU76      -0.1245
     68  CA       -57.3920  -38.9640  -17.5350 C.3    76  LEU76       0.1561
     69  C        -57.1630  -40.1040  -18.4730 C.2    76  LEU76       0.2260
     70  O        -57.3790  -41.2230  -18.1380 O.2    76  LEU76      -0.2867
     71  CB       -56.0920  -38.3360  -17.1070 C.3    76  LEU76       0.0270
     72  CG       -56.2840  -37.2890  -16.0290 C.3    76  LEU76       0.0019
     73  CD1      -55.0280  -36.5490  -15.8580 C.3    76  LEU76       0.0001
     74  CD2      -57.3630  -36.3520  -16.4000 C.3    76  LEU76       0.0001
     75  N        -55.5380  -26.4480   -9.2930 N.3    92  VAL92      -0.1245
     76  CA       -56.5760  -26.4240  -10.2960 C.3    92  VAL92       0.1561
     77  C        -57.9160  -26.7000   -9.7150 C.2    92  VAL92       0.2260
     78  O        -58.7850  -27.1600  -10.3920 O.2    92  VAL92      -0.2867
     79  CB       -56.3480  -27.4270  -11.3830 C.3    92  VAL92       0.0252
     80  CG1      -55.0410  -27.1720  -12.0510 C.3    92  VAL92       0.0019
     81  CG2      -56.4030  -28.8030  -10.8320 C.3    92  VAL92       0.0019
     82  N        -60.7610  -25.3280  -11.7770 N.3    95  ILE95      -0.1231
     83  CA       -61.1320  -26.0170  -12.9860 C.3    95  ILE95       0.1692
     84  C        -61.8550  -27.3070  -12.7800 C.2    95  ILE95       0.2592
     85  O        -62.7920  -27.6240  -13.4690 O.2    95  ILE95      -0.2718
     86  CB       -59.9310  -26.3930  -13.7690 C.3    95  ILE95       0.0266
     87  CG1      -59.8820  -25.5710  -15.0140 C.3    95  ILE95       0.0019
     88  CG2      -60.1030  -27.7760  -14.2470 C.3    95  ILE95       0.0020
     89  CD1      -61.0200  -25.8520  -15.8690 C.3    95  ILE95       0.0001
     90  N        -61.3650  -28.0790  -11.8420 N.am   96  PHE96      -0.1976
     91  CA       -61.8810  -29.3900  -11.5730 C.3    96  PHE96       0.1639
     92  C        -63.3180  -29.2750  -11.1650 C.2    96  PHE96       0.2290
     93  O        -64.1430  -30.0290  -11.6010 O.2    96  PHE96      -0.2864
     94  CB       -61.0410  -29.9780  -10.4610 C.3    96  PHE96       0.0560
     95  CG       -61.4330  -31.3350  -10.0470 C.ar   96  PHE96      -0.0200
     96  CD1      -60.9070  -32.4200  -10.6520 C.ar   96  PHE96      -0.0042
     97  CD2      -62.2920  -31.5260   -9.0140 C.ar   96  PHE96      -0.0042
     98  CE1      -61.2630  -33.6380  -10.2560 C.ar   96  PHE96      -0.0003
     99  CE2      -62.6390  -32.7490   -8.6420 C.ar   96  PHE96      -0.0003
    100  CZ       -62.1280  -33.7940   -9.2550 C.ar   96  PHE96      -0.0000
    101  N        -58.6730  -23.3270  -18.6650 N.3   182  CYS182     -0.1221
    102  CA       -57.5330  -24.2020  -18.5850 C.3   182  CYS182      0.1808
    103  C        -56.3460  -23.4660  -19.0750 C.2   182  CYS182      0.2601
    104  O        -55.2840  -23.6080  -18.5480 O.2   182  CYS182     -0.2717
    105  CB       -57.7340  -25.4130  -19.4460 C.3   182  CYS182      0.0970
    106  SG       -58.4610  -26.7350  -18.6240 S.3   182  CYS182     -0.0800
    107  N        -56.5410  -22.7140  -20.1400 N.am  183  LEU183     -0.1979
    108  CA       -55.5210  -21.8720  -20.7290 C.3   183  LEU183      0.1596
    109  C        -55.1070  -20.7640  -19.8220 C.2   183  LEU183      0.2287
    110  O        -53.9680  -20.4280  -19.7470 O.2   183  LEU183     -0.2864
    111  CB       -56.0280  -21.2470  -21.9920 C.3   183  LEU183      0.0297
    112  CG       -56.0020  -22.1150  -23.2210 C.3   183  LEU183      0.0022
    113  CD1      -56.0580  -21.2280  -24.3930 C.3   183  LEU183      0.0001
    114  CD2      -54.7610  -22.8920  -23.2540 C.3   183  LEU183      0.0001
    115  N        -55.1600  -20.9010  -16.7180 N.3   185  HIS185     -0.1226
    116  CA       -54.3420  -21.5970  -15.7440 C.3   185  HIS185      0.1752
    117  C        -52.9870  -21.9970  -16.2450 C.2   185  HIS185      0.2595
    118  O        -52.0310  -21.8910  -15.5520 O.2   185  HIS185     -0.2718
    119  CB       -55.0460  -22.8420  -15.2730 C.3   185  HIS185      0.0759
    120  CG       -56.1190  -22.5860  -14.2720 C.ar  185  HIS185      0.0818
    121  ND1      -55.9920  -22.9180  -12.9500 N.ar  185  HIS185     -0.2268
    122  CD2      -57.3420  -22.0380  -14.4030 C.ar  185  HIS185      0.1154
    123  CE1      -57.0860  -22.5800  -12.3040 C.ar  185  HIS185      0.1986
    124  NE2      -57.9210  -22.0440  -13.1660 N.ar  185  HIS185     -0.2212
    125  N        -52.9010  -22.5080  -17.4450 N.am  186  LEU186     -0.1980
    126  CA       -51.6230  -22.9100  -17.9560 C.3   186  LEU186      0.1596
    127  C        -50.7380  -21.7120  -18.0590 C.2   186  LEU186      0.2287
    128  O        -49.5660  -21.7790  -17.8000 O.2   186  LEU186     -0.2864
    129  CB       -51.7860  -23.4870  -19.3330 C.3   186  LEU186      0.0297
    130  CG       -50.7840  -24.5540  -19.6340 C.3   186  LEU186      0.0022
    131  CD1      -51.1960  -25.7030  -18.8080 C.3   186  LEU186      0.0001
    132  CD2      -50.9160  -24.8660  -21.0520 C.3   186  LEU186      0.0001
@<TRIPOS>BOND
     1    22    20   ar
     2    22    23   ar
     3    20    17   ar
     4    10    11    1
     5    23    21   ar
     6    14    11    1
     7    14    15    1
     8    11    12    1
     9    17    15   ar
    10    17    19   ar
    11     4     3    2
    12    15    16   ar
    13     3     2    1
    14    21    19   ar
    15    19    18   ar
    16    12    13    2
    17    12    24   am
    18    16    18   ar
    19    24    25    1
    20     2     1    1
    21     2     5    1
    22     5     6    1
    23    39    37    1
    24    32    33    1
    25    25    26    1
    26    25    28    1
    27    37    38    1
    28    37    36    1
    29    26    27    2
    30    28    29    1
    31    33    36    1
    32    33    34    1
    33     6     7    1
    34   113   112    1
    35     8     7    2
    36    29    30    2
    37    29    31   am
    38     7     9   am
    39    34    40   am
    40    34    35    2
    41    40    41    1
    42   114   112    1
    43   112   111    1
    44    42    41    1
    45    42    43    2
    46    41    44    1
    47    44    45    1
    48    44    46    1
    49   111   108    1
    50    45    47    1
    51    48    49    1
    52   132   130    1
    53   108   107    1
    54   108   109    1
    55    49    52    1
    56    49    50    1
    57   107   103   am
    58    55    57   ar
    59    55    53   ar
    60    57    58   ar
    61   109   110    2
    62   130   129    1
    63   130   131    1
    64    52    53    1
    65   105   106    1
    66   105   102    1
    67    50    51    2
    68    53    54   ar
    69   129   126    1
    70   103   102    1
    71   103   104    2
    72    58    56   ar
    73   101   102    1
    74    54    56   ar
    75    69    70    2
    76    69    68    1
    77   127   126    1
    78   127   128    2
    79   126   125    1
    80    68    71    1
    81    68    67    1
    82   125   117   am
    83    71    72    1
    84   115   116    1
    85    74    72    1
    86   117   116    1
    87   117   118    2
    88    72    73    1
    89    89    87    1
    90   116   119    1
    91   119   120    1
    92    87    86    1
    93   122   120   ar
    94   122   124   ar
    95   120   121   ar
    96    88    86    1
    97    63    65    1
    98    63    60    1
    99    63    64    1
   100    86    83    1
   101    61    60    1
   102    61    62    2
   103    85    84    2
   104    60    59    1
   105    64    66    1
   106   124   123   ar
   107    83    84    1
   108    83    82    1
   109   121   123   ar
   110    84    90   am
   111    80    79    1
   112    90    91    1
   113    93    92    2
   114    91    92    1
   115    91    94    1
   116    79    81    1
   117    79    76    1
   118    96    98   ar
   119    96    95   ar
   120    94    95    1
   121    78    77    2
   122    76    77    1
   123    76    75    1
   124    98   100   ar
   125    95    97   ar
   126   100    99   ar
   127    97    99   ar
