@<TRIPOS>MOLECULE
tmp/3r2bB00.pdb
 184 171 0 0 0
SMALL
GASTEIGER

@<TRIPOS>ATOM
      1  N        -30.1240  -43.1760  -10.5540 N.3    24  LEU24      -0.1231
      2  CA       -29.2820  -42.5780  -11.5990 C.3    24  LEU24       0.1693
      3  C        -28.0070  -41.9320  -11.0370 C.2    24  LEU24       0.2593
      4  O        -27.2300  -41.3420  -11.7890 O.2    24  LEU24      -0.2718
      5  CB       -30.0820  -41.5430  -12.4000 C.3    24  LEU24       0.0284
      6  CG       -31.2240  -42.1020  -13.2770 C.3    24  LEU24       0.0019
      7  CD1      -31.8400  -40.9650  -14.0700 C.3    24  LEU24       0.0001
      8  CD2      -30.7650  -43.1780  -14.1980 C.3    24  LEU24       0.0001
      9  N        -27.7920  -42.0460   -9.7270 N.am   25  GLY25      -0.1942
     10  CA       -26.5760  -41.5360   -9.0910 C.3    25  GLY25       0.2014
     11  C        -26.7170  -41.3370   -7.5910 C.2    25  GLY25       0.2639
     12  O        -27.8300  -41.2370   -7.0700 O.2    25  GLY25      -0.2714
     13  N        -25.5780  -41.2890   -6.9000 N.am   26  LEU26      -0.1963
     14  CA       -25.5240  -41.0060   -5.4570 C.3    26  LEU26       0.1731
     15  C        -24.4060  -39.9980   -5.1800 C.2    26  LEU26       0.2656
     16  O        -23.2880  -40.1640   -5.6770 O.2    26  LEU26      -0.2711
     17  CB       -25.2870  -42.2890   -4.6580 C.3    26  LEU26       0.0311
     18  CG       -24.9950  -42.0450   -3.1790 C.3    26  LEU26       0.0022
     19  CD1      -26.3030  -41.8120   -2.4760 C.3    26  LEU26       0.0001
     20  CD2      -24.2830  -43.2440   -2.5660 C.3    26  LEU26       0.0001
     21  N        -24.7020  -38.9630   -4.3950 N.am   27  GLY27      -0.1716
     22  CA       -23.7440  -37.8760   -4.1740 C.2    27  GLY27       0.1480
     23  C        -24.0270  -37.0020   -2.9620 C.2    27  GLY27       0.2820
     24  O        -24.3490  -37.5070   -1.8760 O.2    27  GLY27      -0.2669
     25  N        -23.9040  -35.6870   -3.1570 N.am   28  ILE28      -0.1943
     26  CA       -24.0130  -34.7100   -2.0670 C.3    28  ILE28       0.1599
     27  C        -25.4510  -34.5620   -1.5590 C.2    28  ILE28       0.2287
     28  O        -26.3190  -34.0440   -2.2720 O.2    28  ILE28      -0.2864
     29  CB       -23.4930  -33.3210   -2.5070 C.3    28  ILE28       0.0276
     30  CG1      -22.1000  -33.4340   -3.1490 C.3    28  ILE28       0.0022
     31  CG2      -23.4950  -32.3530   -1.3390 C.3    28  ILE28       0.0022
     32  CD1      -21.1040  -34.2860   -2.3950 C.3    28  ILE28       0.0001
     33  N        -27.8050  -36.7990   -0.9750 N.3    30  GLY30      -0.1225
     34  CA       -28.6360  -37.9730   -1.2510 C.3    30  GLY30       0.1811
     35  C        -28.6380  -38.3790   -2.7120 C.2    30  GLY30       0.2280
     36  O        -28.2530  -37.5980   -3.5850 O.2    30  GLY30      -0.2866
     37  N        -30.0370  -39.7140   -6.5060 N.3    32  VAL32      -0.1245
     38  CA       -31.0270  -39.2500   -7.4720 C.3    32  VAL32       0.1561
     39  C        -31.7530  -40.4320   -8.1170 C.2    32  VAL32       0.2260
     40  O        -31.1630  -41.1780   -8.9010 O.2    32  VAL32      -0.2867
     41  CB       -30.3710  -38.3980   -8.5790 C.3    32  VAL32       0.0252
     42  CG1      -31.3970  -38.0050   -9.6400 C.3    32  VAL32       0.0019
     43  CG2      -29.7230  -37.1660   -7.9770 C.3    32  VAL32       0.0019
     44  N        -35.0130  -41.9590  -10.5300 N.3    34  GLN34      -0.1245
     45  CA       -35.6860  -41.5740  -11.7700 C.3    34  GLN34       0.1566
     46  C        -37.1930  -41.7900  -11.6400 C.2    34  GLN34       0.2260
     47  O        -37.6360  -42.8590  -11.2200 O.2    34  GLN34      -0.2867
     48  CB       -35.1340  -42.3730  -12.9530 C.3    34  GLN34       0.0367
     49  CG       -35.6400  -41.8770  -14.3070 C.3    34  GLN34       0.0905
     50  CD       -34.7590  -42.2890  -15.4730 C.2    34  GLN34       0.2608
     51  OE1      -33.5410  -42.4250  -15.3390 O.2    34  GLN34      -0.2717
     52  NE2      -35.3750  -42.4730  -16.6350 N.am   34  GLN34      -0.0878
     53  N        -35.8850  -36.3990  -13.5370 N.3    45  ALA45      -0.1245
     54  CA       -35.0710  -36.9660  -12.4600 C.3    45  ALA45       0.1562
     55  C        -35.4820  -36.3580  -11.1270 C.2    45  ALA45       0.2260
     56  O        -35.8370  -35.1830  -11.0640 O.2    45  ALA45      -0.2867
     57  CB       -33.5980  -36.7060  -12.7190 C.3    45  ALA45       0.0290
     58  N        -34.3720  -35.6100   -7.1070 N.3    47  LYS47      -0.1245
     59  CA       -33.3460  -35.5120   -6.0640 C.3    47  LYS47       0.1561
     60  C        -34.0280  -35.2400   -4.7320 C.2    47  LYS47       0.2260
     61  O        -34.8270  -34.3140   -4.6170 O.2    47  LYS47      -0.2867
     62  CB       -32.3510  -34.3930   -6.3630 C.3    47  LYS47       0.0271
     63  CG       -31.1330  -34.4070   -5.4540 C.3    47  LYS47       0.0035
     64  CD       -30.3340  -33.1190   -5.5380 C.3    47  LYS47       0.0206
     65  CE       -29.1250  -33.1780   -4.6180 C.3    47  LYS47       0.1093
     66  NZ       -28.2090  -32.0290   -4.8090 N.3    47  LYS47      -0.1314
     67  N        -30.4240  -22.8980   -6.7650 N.3    62  HIS62      -0.1241
     68  CA       -30.6340  -23.6750   -7.9880 C.3    62  HIS62       0.1621
     69  C        -31.7090  -23.0300   -8.8530 C.2    62  HIS62       0.2264
     70  O        -31.5390  -22.9020  -10.0610 O.2    62  HIS62      -0.2867
     71  CB       -31.0380  -25.1180   -7.6610 C.3    62  HIS62       0.0745
     72  CG       -30.8970  -26.0660   -8.8120 C.ar   62  HIS62       0.0817
     73  ND1      -30.0700  -27.1660   -8.7680 N.ar   62  HIS62      -0.2268
     74  CD2      -31.4720  -26.0780  -10.0380 C.ar   62  HIS62       0.1154
     75  CE1      -30.1430  -27.8160   -9.9150 C.ar   62  HIS62       0.1986
     76  NE2      -30.9860  -27.1760  -10.7040 N.ar   62  HIS62      -0.2212
     77  N        -29.0800  -27.2840  -15.1070 N.3    72  VAL72      -0.1245
     78  CA       -30.2340  -28.1900  -15.1610 C.3    72  VAL72       0.1561
     79  C        -31.5010  -27.5470  -14.5950 C.2    72  VAL72       0.2260
     80  O        -31.5210  -27.1150  -13.4390 O.2    72  VAL72      -0.2867
     81  CB       -29.9730  -29.5000  -14.3890 C.3    72  VAL72       0.0252
     82  CG1      -31.1160  -30.4810  -14.6090 C.3    72  VAL72       0.0019
     83  CG2      -28.6590  -30.1230  -14.8190 C.3    72  VAL72       0.0019
     84  N        -36.3410  -32.6360  -11.6150 N.3    92  MET92      -0.1230
     85  CA       -35.5110  -31.9770  -12.6270 C.3    92  MET92       0.1702
     86  C        -35.7080  -32.6140  -13.9990 C.2    92  MET92       0.2592
     87  O        -36.2340  -33.7220  -14.1090 O.2    92  MET92      -0.2718
     88  CB       -34.0330  -32.0800  -12.2440 C.3    92  MET92       0.0401
     89  CG       -33.6900  -31.4890  -10.8900 C.3    92  MET92       0.0596
     90  SD       -32.0690  -32.0090  -10.3010 S.3    92  MET92      -0.1393
     91  CE       -30.9880  -30.9720  -11.2790 C.3    92  MET92       0.0692
     92  N        -35.2790  -31.9030  -15.0400 N.am   93  GLU93      -0.1966
     93  CA       -35.2660  -32.4430  -16.3990 C.3    93  GLU93       0.1733
     94  C        -34.2780  -33.5990  -16.4620 C.2    93  GLU93       0.2616
     95  O        -33.2260  -33.5460  -15.8260 O.2    93  GLU93      -0.2715
     96  CB       -34.8890  -31.3620  -17.4250 C.3    93  GLU93       0.0429
     97  CG       -33.4310  -30.8960  -17.3670 C.3    93  GLU93       0.1163
     98  CD       -33.1010  -29.8160  -18.3850 C.2    93  GLU93       0.3649
     99  OE1      -32.1880  -29.0060  -18.1080 O.co2  93  GLU93      -0.2457
    100  OE2      -33.7420  -29.7730  -19.4580 O.co2  93  GLU93      -0.2457
    101  N        -34.6140  -34.6400  -17.2190 N.am   94  CYS94      -0.1954
    102  CA       -33.7560  -35.8160  -17.3040 C.3    94  CYS94       0.1843
    103  C        -32.5750  -35.5540  -18.2370 C.2    94  CYS94       0.2625
    104  O        -32.7490  -35.0880  -19.3650 O.2    94  CYS94      -0.2714
    105  CB       -34.5410  -37.0390  -17.7780 C.3    94  CYS94       0.0997
    106  SG       -33.6670  -38.6160  -17.5340 S.3    94  CYS94      -0.0797
    107  N        -31.3750  -35.8490  -17.7480 N.am   95  LEU95      -0.1963
    108  CA       -30.1510  -35.6960  -18.5180 C.3    95  LEU95       0.1728
    109  C        -29.5350  -37.0760  -18.7150 C.2    95  LEU95       0.2616
    110  O        -28.5210  -37.4150  -18.1040 O.2    95  LEU95      -0.2715
    111  CB       -29.1820  -34.7590  -17.7880 C.3    95  LEU95       0.0311
    112  CG       -29.6690  -33.3310  -17.5040 C.3    95  LEU95       0.0022
    113  CD1      -28.5540  -32.5200  -16.8750 C.3    95  LEU95       0.0001
    114  CD2      -30.1750  -32.6420  -18.7590 C.3    95  LEU95       0.0001
    115  N        -30.1620  -37.8690  -19.5810 N.am   96  ASP96      -0.1971
    116  CA       -29.7180  -39.2450  -19.8420 C.3    96  ASP96       0.1709
    117  C        -28.6270  -39.3460  -20.9210 C.2    96  ASP96       0.2293
    118  O        -28.3840  -40.4300  -21.4600 O.2    96  ASP96      -0.2864
    119  CB       -30.9170  -40.1580  -20.1770 C.3    96  ASP96       0.1436
    120  CG       -31.7380  -39.6660  -21.3670 C.2    96  ASP96       0.3671
    121  OD1      -32.9500  -39.4230  -21.1870 O.co2  96  ASP96      -0.2456
    122  OD2      -31.1840  -39.5280  -22.4790 O.co2  96  ASP96      -0.2456
    123  N        -25.5410  -39.0770  -20.2630 N.3    98  GLY98      -0.1210
    124  CA       -24.3440  -39.5390  -19.5620 C.3    98  GLY98       0.1956
    125  C        -23.5050  -38.3950  -19.0230 C.2    98  GLY98       0.2611
    126  O        -23.8740  -37.2270  -19.1530 O.2    98  GLY98      -0.2717
    127  N        -22.3740  -38.7360  -18.4090 N.am   99  GLU99      -0.1979
    128  CA       -21.4250  -37.7330  -17.9270 C.3    99  GLU99       0.1602
    129  C        -20.6260  -37.1700  -19.0970 C.2    99  GLU99       0.2287
    130  O        -20.6080  -37.7490  -20.1870 O.2    99  GLU99      -0.2864
    131  CB       -20.4720  -38.3300  -16.8850 C.3    99  GLU99       0.0415
    132  CG       -21.1580  -38.8010  -15.6020 C.3    99  GLU99       0.1163
    133  CD       -20.2020  -39.4770  -14.6250 C.2    99  GLU99       0.3649
    134  OE1      -20.6270  -40.4280  -13.9320 O.co2  99  GLU99      -0.2457
    135  OE2      -19.0250  -39.0640  -14.5490 O.co2  99  GLU99      -0.2457
    136  N        -17.1700  -30.2770  -10.9480 N.3   138  LYS138     -0.1245
    137  CA       -16.3340  -31.4430  -11.2200 C.3   138  LYS138      0.1561
    138  C        -16.9340  -32.2160  -12.3940 C.2   138  LYS138      0.2260
    139  O        -18.1060  -32.0260  -12.7140 O.2   138  LYS138     -0.2867
    140  CB       -16.2350  -32.3250   -9.9670 C.3   138  LYS138      0.0271
    141  CG       -17.5740  -32.8730   -9.4660 C.3   138  LYS138      0.0035
    142  CD       -17.4500  -33.4740   -8.0740 C.3   138  LYS138      0.0206
    143  CE       -18.7580  -34.0890   -7.6020 C.3   138  LYS138      0.1093
    144  NZ       -18.7130  -34.4650   -6.1630 N.3   138  LYS138     -0.1314
    145  N        -18.1870  -35.0690  -12.7860 N.3   140  GLU140     -0.1231
    146  CA       -19.3540  -35.9010  -12.5010 C.3   140  GLU140      0.1699
    147  C        -20.6580  -35.0990  -12.4670 C.2   140  GLU140      0.2592
    148  O        -21.7370  -35.6650  -12.6500 O.2   140  GLU140     -0.2718
    149  CB       -19.1660  -36.6490  -11.1750 C.3   140  GLU140      0.0402
    150  CG       -17.9440  -37.5790  -11.1340 C.3   140  GLU140      0.1161
    151  CD       -16.6500  -36.8600  -10.7560 C.2   140  GLU140      0.3649
    152  OE1      -16.5800  -36.2980   -9.6420 O.co2 140  GLU140     -0.2457
    153  OE2      -15.7040  -36.8600  -11.5740 O.co2 140  GLU140     -0.2457
    154  N        -20.5520  -33.7900  -12.2330 N.am  141  ASN141     -0.1974
    155  CA       -21.7130  -32.8930  -12.2220 C.3   141  ASN141      0.1688
    156  C        -22.0010  -32.2470  -13.5850 C.2   141  ASN141      0.2292
    157  O        -22.8020  -31.3180  -13.6710 O.2   141  ASN141     -0.2864
    158  CB       -21.5180  -31.7850  -11.1770 C.3   141  ASN141      0.1181
    159  CG       -21.3420  -32.3210   -9.7700 C.2   141  ASN141      0.2629
    160  OD1      -21.7820  -33.4170   -9.4450 O.2   141  ASN141     -0.2716
    161  ND2      -20.7030  -31.5330   -8.9230 N.am  141  ASN141     -0.0877
    162  N        -23.4990  -33.1820  -17.1460 N.3   143  LEU143     -0.1245
    163  CA       -24.2710  -34.2050  -17.8470 C.3   143  LEU143      0.1561
    164  C        -24.9160  -33.6520  -19.1140 C.2   143  LEU143      0.2260
    165  O        -25.3490  -32.5000  -19.1460 O.2   143  LEU143     -0.2867
    166  CB       -25.3630  -34.7640  -16.9290 C.3   143  LEU143      0.0270
    167  CG       -24.9660  -35.0770  -15.4840 C.3   143  LEU143      0.0019
    168  CD1      -26.1520  -35.6470  -14.7330 C.3   143  LEU143      0.0001
    169  CD2      -23.7850  -36.0310  -15.4250 C.3   143  LEU143      0.0001
    170  N        -24.8890  -29.3900  -12.7710 N.3   156  THR156     -0.1203
    171  CA       -25.8680  -29.8640  -11.7940 C.3   156  THR156      0.1994
    172  C        -25.3100  -29.8660  -10.3700 C.2   156  THR156      0.2617
    173  O        -24.1280  -29.5960  -10.1670 O.2   156  THR156     -0.2717
    174  CB       -26.3330  -31.2820  -12.1470 C.3   156  THR156      0.1784
    175  OG1      -27.4440  -31.6410  -11.3170 O.3   156  THR156     -0.2211
    176  CG2      -25.1970  -32.2860  -11.9600 C.3   156  THR156      0.0376
    177  N        -26.1770  -30.1690   -9.4010 N.am  157  ASP157     -0.1973
    178  CA       -25.8110  -30.2960   -7.9760 C.3   157  ASP157      0.1709
    179  C        -25.3450  -28.9800   -7.3440 C.2   157  ASP157      0.2293
    180  O        -24.1630  -28.6400   -7.3930 O.2   157  ASP157     -0.2864
    181  CB       -24.7500  -31.3970   -7.7730 C.3   157  ASP157      0.1436
    182  CG       -24.6260  -31.8490   -6.3130 C.2   157  ASP157      0.3671
    183  OD1      -24.0290  -32.9240   -6.0760 O.co2 157  ASP157     -0.2456
    184  OD2      -25.1190  -31.1490   -5.4010 O.co2 157  ASP157     -0.2456
@<TRIPOS>BOND
     1   122   120   ar
     2   118   117    2
     3   120   121   ar
     4   120   119    1
     5   117   116    1
     6   123   124    1
     7   130   129    2
     8   119   116    1
     9   116   115    1
    10   115   109   am
    11   124   125    1
    12   100    98   ar
    13   104   103    2
    14   126   125    2
    15   165   164    2
    16   164   163    1
    17   129   128    1
    18   125   127   am
    19   114   112    1
    20   109   108    1
    21   109   110    2
    22   108   111    1
    23   108   107    1
    24   127   128    1
    25    98    99   ar
    26    98    97    1
    27   103   107   am
    28   103   102    1
    29   128   131    1
    30   163   162    1
    31   163   166    1
    32   111   112    1
    33   105   106    1
    34   105   102    1
    35   112   113    1
    36    96    97    1
    37    96    93    1
    38   102   101    1
    39   101    94   am
    40   166   167    1
    41   131   132    1
    42    52    50   am
    43    94    93    1
    44    94    95    2
    45    93    92    1
    46   132   133    1
    47   167   169    1
    48   167   168    1
    49    50    51    2
    50    50    49    1
    51    78    77    1
    52    78    79    1
    53    78    81    1
    54    92    86   am
    55    83    81    1
    56   133   135   ar
    57   133   134   ar
    58    82    81    1
    59    79    80    2
    60    49    48    1
    61     8     6    1
    62    87    86    2
    63     7     6    1
    64    86    85    1
    65   157   156    2
    66   156   155    1
    67    53    54    1
    68     6     5    1
    69    48    45    1
    70   145   146    1
    71   170   171    1
    72    57    54    1
    73   139   138    2
    74   148   147    2
    75    85    88    1
    76    85    84    1
    77   146   147    1
    78   146   149    1
    79   147   154   am
    80    54    55    1
    81     5     2    1
    82   138   137    1
    83    88    89    1
    84   154   155    1
    85   155   158    1
    86   174   176    1
    87   174   171    1
    88   174   175    1
    89   171   172    1
    90     4     3    2
    91    45    46    1
    92    45    44    1
    93    46    47    2
    94     2     3    1
    95     2     1    1
    96   153   151   ar
    97    91    90    1
    98   137   136    1
    99   137   140    1
   100   158   159    1
   101   149   150    1
   102   150   151    1
   103    55    56    2
   104     3     9   am
   105    89    90    1
   106   151   152   ar
   107    76    74   ar
   108    76    75   ar
   109   172   173    2
   110   172   177   am
   111    70    69    2
   112    74    72   ar
   113   140   141    1
   114    75    73   ar
   115   159   160    2
   116   159   161   am
   117     9    10    1
   118    42    41    1
   119   141   142    1
   120   177   178    1
   121    10    11    1
   122    40    39    2
   123    69    68    1
   124    72    73   ar
   125    72    71    1
   126    41    43    1
   127    41    38    1
   128    39    38    1
   129   142   143    1
   130    68    71    1
   131    68    67    1
   132   178   181    1
   133   178   179    1
   134   181   182    1
   135   143   144    1
   136    11    12    2
   137    11    13   am
   138    38    37    1
   139   180   179    2
   140    58    59    1
   141    13    14    1
   142    62    59    1
   143    62    63    1
   144   182   183   ar
   145   182   184   ar
   146    59    60    1
   147    16    15    2
   148    64    63    1
   149    64    65    1
   150    14    15    1
   151    14    17    1
   152    15    21    1
   153    66    65    1
   154    60    61    2
   155    17    18    1
   156    21    22    2
   157    22    23    1
   158    36    35    2
   159    18    20    1
   160    18    19    1
   161    25    23   am
   162    25    26    1
   163    30    29    1
   164    30    32    1
   165    23    24    2
   166    35    34    1
   167    29    26    1
   168    29    31    1
   169    28    27    2
   170    26    27    1
   171    34    33    1
