@<TRIPOS>MOLECULE
tmp/3r2cC00.pdb
 78 68 0 0 0
SMALL
GASTEIGER

@<TRIPOS>ATOM
      1  N          2.1810    2.5960   30.3710 N.3     4  ILE4       -0.1245
      2  CA         3.0170    2.9480   29.2370 C.3     4  ILE4        0.1561
      3  C          2.7800    1.8700   28.1790 C.2     4  ILE4        0.2260
      4  O          2.9870    0.6920   28.4540 O.2     4  ILE4       -0.2867
      5  CB         4.5050    2.9250   29.6530 C.3     4  ILE4        0.0252
      6  CG1        4.7500    3.9040   30.8030 C.3     4  ILE4        0.0019
      7  CG2        5.4290    3.2390   28.4760 C.3     4  ILE4        0.0019
      8  CD1        6.1770    3.9110   31.3010 C.3     4  ILE4        0.0001
      9  N          4.1430    0.4180   24.6810 N.3     6  ILE6       -0.1245
     10  CA         5.2730    0.4460   23.7590 C.3     6  ILE6        0.1561
     11  C          4.9370   -0.3600   22.5180 C.2     6  ILE6        0.2260
     12  O          4.4330   -1.4700   22.6250 O.2     6  ILE6       -0.2867
     13  CB         6.5120   -0.2180   24.3880 C.3     6  ILE6        0.0252
     14  CG1        6.8170    0.3990   25.7530 C.3     6  ILE6        0.0019
     15  CG2        7.7140   -0.1090   23.4610 C.3     6  ILE6        0.0019
     16  CD1        7.7620   -0.4470   26.5750 C.3     6  ILE6        0.0001
     17  N         13.3460   -6.0870   27.5050 N.3    23  ILE23      -0.1245
     18  CA        12.5610   -5.0510   28.1500 C.3    23  ILE23       0.1561
     19  C         11.7580   -5.6370   29.3030 C.2    23  ILE23       0.2260
     20  O         11.6760   -5.0470   30.3740 O.2    23  ILE23      -0.2867
     21  CB        11.6150   -4.3650   27.1650 C.3    23  ILE23       0.0252
     22  CG1       12.4170   -3.4690   26.2110 C.3    23  ILE23       0.0019
     23  CG2       10.5730   -3.5380   27.9110 C.3    23  ILE23       0.0019
     24  CD1       11.6650   -3.1020   24.9420 C.3    23  ILE23       0.0001
     25  N          3.4660   -1.6010   29.9260 N.3    53  ILE53      -0.1245
     26  CA         4.0110   -1.5690   31.2830 C.3    53  ILE53       0.1561
     27  C          2.9830   -0.9380   32.2050 C.2    53  ILE53       0.2260
     28  O          2.7450    0.2670   32.1380 O.2    53  ILE53      -0.2867
     29  CB         5.2920   -0.7480   31.3650 C.3    53  ILE53       0.0252
     30  CG1        6.3390   -1.2930   30.3960 C.3    53  ILE53       0.0019
     31  CG2        5.8300   -0.7670   32.7930 C.3    53  ILE53       0.0019
     32  CD1        7.5950   -0.4630   30.3550 C.3    53  ILE53       0.0001
     33  N         12.5250    2.9680   35.2130 N.3    61  ILE61      -0.1245
     34  CA        12.9180    3.9250   34.1700 C.3    61  ILE61       0.1561
     35  C         14.4250    3.9890   34.0280 C.2    61  ILE61       0.2260
     36  O         14.9460    3.9690   32.9230 O.2    61  ILE61      -0.2867
     37  CB        12.4090    5.3480   34.4710 C.3    61  ILE61       0.0252
     38  CG1       10.8970    5.3480   34.6530 C.3    61  ILE61       0.0019
     39  CG2       12.7870    6.2940   33.3460 C.3    61  ILE61       0.0019
     40  CD1       10.1640    4.6850   33.5170 C.3    61  ILE61       0.0001
     41  N         15.6210    0.9040   32.4160 N.3    64  LEU64      -0.1245
     42  CA        15.2350    0.9040   31.0020 C.3    64  LEU64       0.1561
     43  C         16.1370    1.8090   30.1760 C.2    64  LEU64       0.2260
     44  O         16.4340    1.4990   29.0330 O.2    64  LEU64      -0.2867
     45  CB        13.7790    1.3390   30.8280 C.3    64  LEU64       0.0270
     46  CG        12.7430    0.2720   31.1690 C.3    64  LEU64       0.0019
     47  CD1       11.3420    0.8650   31.1370 C.3    64  LEU64       0.0001
     48  CD2       12.8670   -0.9070   30.2040 C.3    64  LEU64       0.0001
     49  N         19.6740    0.2060   29.0450 N.3    67  ILE67      -0.1245
     50  CA        19.8040   -0.9070   28.1090 C.3    67  ILE67       0.1561
     51  C         19.9560   -0.4120   26.6900 C.2    67  ILE67       0.2260
     52  O         19.4100    0.6250   26.3060 O.2    67  ILE67      -0.2867
     53  CB        18.6500   -1.9360   28.1670 C.3    67  ILE67       0.0252
     54  CG1       17.2850   -1.2530   28.2460 C.3    67  ILE67       0.0019
     55  CG2       18.8650   -2.8890   29.3320 C.3    67  ILE67       0.0019
     56  CD1       16.1550   -2.2160   28.5510 C.3    67  ILE67       0.0001
     57  N         19.3750   -1.5360   22.8680 N.3    69  LEU69      -0.1245
     58  CA        18.6860   -2.4670   21.9890 C.3    69  LEU69       0.1561
     59  C         19.4030   -2.5440   20.6530 C.2    69  LEU69       0.2260
     60  O         20.0010   -1.5640   20.2150 O.2    69  LEU69      -0.2867
     61  CB        17.2360   -2.0240   21.7800 C.3    69  LEU69       0.0270
     62  CG        16.2930   -2.2210   22.9690 C.3    69  LEU69       0.0019
     63  CD1       16.3750   -3.6580   23.4710 C.3    69  LEU69       0.0001
     64  CD2       16.6060   -1.2400   24.0930 C.3    69  LEU69       0.0001
     65  N         11.3950    1.7440   18.4330 N.3    75  VAL75      -0.1245
     66  CA        10.4980    1.7650   19.5840 C.3    75  VAL75       0.1561
     67  C          9.6560    3.0410   19.6200 C.2    75  VAL75       0.2260
     68  O         10.1810    4.1460   19.4730 O.2    75  VAL75      -0.2867
     69  CB        11.3090    1.6620   20.8950 C.3    75  VAL75       0.0252
     70  CG1       10.4030    1.7640   22.1070 C.3    75  VAL75       0.0019
     71  CG2       12.0970    0.3580   20.9220 C.3    75  VAL75       0.0019
     72  N          6.2620    5.0530   21.8130 N.3    77  VAL77      -0.1245
     73  CA         5.5050    5.0430   23.0680 C.3    77  VAL77       0.1561
     74  C          4.2610    5.9110   23.0430 C.2    77  VAL77       0.2260
     75  O          4.2010    6.8850   22.2990 O.2    77  VAL77      -0.2867
     76  CB         6.3550    5.5560   24.2460 C.3    77  VAL77       0.0252
     77  CG1        5.4910    5.7220   25.4860 C.3    77  VAL77       0.0019
     78  CG2        7.5120    4.6100   24.5180 C.3    77  VAL77       0.0019
@<TRIPOS>BOND
     1    65    66    1
     2    68    67    2
     3    66    67    1
     4    66    69    1
     5    60    59    2
     6    59    58    1
     7    69    71    1
     8    69    70    1
     9    61    58    1
    10    61    62    1
    11    72    73    1
    12    58    57    1
    13    75    74    2
    14    11    12    2
    15    11    10    1
    16    62    63    1
    17    62    64    1
    18    74    73    1
    19    73    76    1
    20    15    13    1
    21    10    13    1
    22    10     9    1
    23    76    78    1
    24    76    77    1
    25    13    14    1
    26    24    22    1
    27    14    16    1
    28    22    21    1
    29    52    51    2
    30    51    50    1
    31    21    23    1
    32    21    18    1
    33    17    18    1
    34    50    53    1
    35    50    49    1
    36    18    19    1
    37    53    54    1
    38    53    55    1
    39     3     4    2
    40     3     2    1
    41    54    56    1
    42     7     5    1
    43    44    43    2
    44     2     5    1
    45     2     1    1
    46    19    20    2
    47     5     6    1
    48    25    26    1
    49    43    42    1
    50    48    46    1
    51    32    30    1
    52    30    29    1
    53     6     8    1
    54    45    42    1
    55    45    46    1
    56    42    41    1
    57    47    46    1
    58    26    29    1
    59    26    27    1
    60    29    31    1
    61    28    27    2
    62    36    35    2
    63    39    37    1
    64    40    38    1
    65    35    34    1
    66    34    37    1
    67    34    33    1
    68    37    38    1
