@<TRIPOS>MOLECULE
tmp/3r2jB00.pdb
 140 135 0 0 0
SMALL
GASTEIGER

@<TRIPOS>ATOM
      1  N         22.5870   10.2530   37.0220 N.3    18  ASP18      -0.1239
      2  CA        21.5110   11.1240   36.5420 C.3    18  ASP18       0.1674
      3  C         21.4240   12.4700   37.2400 C.2    18  ASP18       0.2266
      4  O         20.3370   12.9130   37.6010 O.2    18  ASP18      -0.2867
      5  CB        20.1390   10.4270   36.6240 C.3    18  ASP18       0.1410
      6  CG        20.0300    9.1610   35.7430 C.2    18  ASP18       0.3668
      7  OD1       20.8700    8.9540   34.8330 O.co2  18  ASP18      -0.2456
      8  OD2       19.0720    8.3730   35.9710 O.co2  18  ASP18      -0.2456
      9  N         15.7330   16.0910   37.0090 N.3    23  PHE23      -0.1241
     10  CA        15.5970   15.4410   38.2990 C.3    23  PHE23       0.1605
     11  C         15.8780   16.3850   39.4600 C.2    23  PHE23       0.2264
     12  O         15.4730   16.1080   40.5960 O.2    23  PHE23      -0.2867
     13  CB        16.5290   14.2300   38.4050 C.3    23  PHE23       0.0534
     14  CG        16.3390   13.2120   37.3180 C.ar   23  PHE23      -0.0203
     15  CD1       15.2110   12.3880   37.3000 C.ar   23  PHE23      -0.0042
     16  CD2       17.3010   13.0600   36.3230 C.ar   23  PHE23      -0.0042
     17  CE1       15.0340   11.4300   36.2930 C.ar   23  PHE23      -0.0003
     18  CE2       17.1390   12.1060   35.3120 C.ar   23  PHE23      -0.0003
     19  CZ        15.9990   11.2890   35.2930 C.ar   23  PHE23      -0.0000
     20  N         10.5090   15.5380   36.5420 N.3    30  LEU30      -0.1245
     21  CA        10.6350   14.5370   37.5830 C.3    30  LEU30       0.1561
     22  C         11.5130   15.0370   38.7260 C.2    30  LEU30       0.2260
     23  O         12.5770   14.4740   38.9820 O.2    30  LEU30      -0.2867
     24  CB        11.2410   13.2620   36.9900 C.3    30  LEU30       0.0270
     25  CG        10.3610   12.0450   36.7360 C.3    30  LEU30       0.0019
     26  CD1       11.1030   11.0470   35.8890 C.3    30  LEU30       0.0001
     27  CD2        9.9620   11.4140   38.0670 C.3    30  LEU30       0.0001
     28  N         20.1950   10.1490   31.6580 N.3    59  ASP59      -0.1239
     29  CA        18.9180    9.6390   31.1380 C.3    59  ASP59       0.1674
     30  C         18.6530   10.4690   29.8840 C.2    59  ASP59       0.2266
     31  O         18.6840   11.6980   29.9340 O.2    59  ASP59      -0.2867
     32  CB        17.7780    9.7870   32.1680 C.3    59  ASP59       0.1410
     33  CG        16.6660    8.7230   32.0100 C.2    59  ASP59       0.3668
     34  OD1       16.9760    7.5600   31.6680 O.co2  59  ASP59      -0.2456
     35  OD2       15.4750    9.0480   32.2500 O.co2  59  ASP59      -0.2456
     36  N         16.1550   10.2170   26.7510 N.3    61  HIS61      -0.1241
     37  CA        15.0030    9.6370   26.0370 C.3    61  HIS61       0.1621
     38  C         14.6300   10.4320   24.7800 C.2    61  HIS61       0.2264
     39  O         14.7830   11.6530   24.7540 O.2    61  HIS61      -0.2867
     40  CB        13.7640    9.5430   26.9450 C.3    61  HIS61       0.0745
     41  CG        13.9580    8.7250   28.1870 C.ar   61  HIS61       0.0817
     42  ND1       14.4880    7.4530   28.1770 N.ar   61  HIS61      -0.2268
     43  CD2       13.6490    8.9890   29.4790 C.ar   61  HIS61       0.1154
     44  CE1       14.5270    6.9810   29.4110 C.ar   61  HIS61       0.1986
     45  NE2       14.0190    7.8920   30.2200 N.ar   61  HIS61      -0.2212
     46  N          6.0350    7.4280   33.7010 N.3    75  TRP75      -0.1241
     47  CA         6.5560    8.7640   33.9520 C.3    75  TRP75       0.1605
     48  C          5.9940    9.8640   33.0430 C.2    75  TRP75       0.2264
     49  O          5.4450    9.5770   31.9740 O.2    75  TRP75      -0.2867
     50  CB         8.0740    8.7420   33.8560 C.3    75  TRP75       0.0550
     51  CG         8.6990    7.6520   34.6120 C.ar   75  TRP75       0.0003
     52  CD1        9.2450    6.5230   34.0980 C.ar   75  TRP75       0.0946
     53  CD2        8.8730    7.5750   36.0340 C.ar   75  TRP75       0.0152
     54  NE1        9.7510    5.7370   35.1080 N.ar   75  TRP75      -0.2442
     55  CE2        9.5360    6.3600   36.3070 C.ar   75  TRP75       0.0810
     56  CE3        8.5380    8.4150   37.1020 C.ar   75  TRP75       0.0012
     57  CZ2        9.8670    5.9600   37.6010 C.ar   75  TRP75       0.0191
     58  CZ3        8.8710    8.0180   38.3910 C.ar   75  TRP75       0.0001
     59  CH2        9.5300    6.7970   38.6260 C.ar   75  TRP75       0.0015
     60  N         10.5650   13.4000   30.3010 N.3    78  HIS78      -0.1241
     61  CA        11.6960   13.8960   31.0760 C.3    78  HIS78       0.1621
     62  C         12.9700   13.5420   30.3150 C.2    78  HIS78       0.2264
     63  O         13.0050   12.5270   29.6140 O.2    78  HIS78      -0.2867
     64  CB        11.7180   13.2450   32.4720 C.3    78  HIS78       0.0745
     65  CG        11.9550   11.7630   32.4430 C.ar   78  HIS78       0.0817
     66  ND1       10.9390   10.8470   32.2670 N.ar   78  HIS78      -0.2268
     67  CD2       13.0970   11.0420   32.5510 C.ar   78  HIS78       0.1154
     68  CE1       11.4440    9.6280   32.2750 C.ar   78  HIS78       0.1986
     69  NE2       12.7520    9.7180   32.4430 N.ar   78  HIS78      -0.2212
     70  N         21.7330    6.5160   28.6800 N.3   103  LYS103     -0.1245
     71  CA        20.8350    5.3570   28.7360 C.3   103  LYS103      0.1561
     72  C         19.3790    5.7170   28.3910 C.2   103  LYS103      0.2260
     73  O         18.9920    6.8850   28.4420 O.2   103  LYS103     -0.2867
     74  CB        20.9040    4.7050   30.1160 C.3   103  LYS103      0.0271
     75  CG        20.0840    5.4210   31.1820 C.3   103  LYS103      0.0035
     76  CD        20.6560    5.1970   32.5690 C.3   103  LYS103      0.0206
     77  CE        20.0040    6.1190   33.5720 C.3   103  LYS103      0.1093
     78  NZ        18.7320    5.5880   34.1470 N.3   103  LYS103     -0.1314
     79  N         13.1370    1.0760   28.1390 N.3   110  ASP110     -0.1225
     80  CA        13.7340    1.9510   29.1410 C.3   110  ASP110      0.1805
     81  C         14.9180    1.2440   29.8210 C.2   110  ASP110      0.2598
     82  O         15.0750    0.0270   29.7280 O.2   110  ASP110     -0.2718
     83  CB        12.6660    2.3800   30.1610 C.3   110  ASP110      0.1424
     84  CG        13.1000    3.5620   31.0370 C.2   110  ASP110      0.3668
     85  OD1       12.2740    3.9850   31.8870 O.co2 110  ASP110     -0.2456
     86  OD2       14.2440    4.0640   30.8890 O.co2 110  ASP110     -0.2456
     87  N         15.7610    2.0240   30.4840 N.am  111  SER111     -0.1938
     88  CA        16.9020    1.4770   31.1830 C.3   111  SER111      0.2055
     89  C         17.1610    2.2570   32.4590 C.2   111  SER111      0.2643
     90  O         17.3900    3.4550   32.4280 O.2   111  SER111     -0.2714
     91  CB        18.1380    1.5140   30.2920 C.3   111  SER111      0.2130
     92  OG        19.2190    0.8430   30.9220 O.3   111  SER111     -0.2179
     93  N         17.1200    1.5800   33.5910 N.am  112  TYR112     -0.1973
     94  CA        17.5320    2.2220   34.8220 C.3   112  TYR112      0.1639
     95  C         19.0250    1.9870   35.1030 C.2   112  TYR112      0.2290
     96  O         19.6620    2.7600   35.8060 O.2   112  TYR112     -0.2864
     97  CB        16.6500    1.7590   35.9730 C.3   112  TYR112      0.0560
     98  CG        15.2020    2.1760   35.8190 C.ar  112  TYR112     -0.0198
     99  CD1       14.8580    3.5220   35.6220 C.ar  112  TYR112     -0.0009
    100  CD2       14.1740    1.2330   35.8820 C.ar  112  TYR112     -0.0009
    101  CE1       13.5290    3.9140   35.4800 C.ar  112  TYR112      0.0417
    102  CE2       12.8470    1.6140   35.7460 C.ar  112  TYR112      0.0417
    103  CZ        12.5330    2.9550   35.5450 C.ar  112  TYR112      0.1957
    104  OH        11.2190    3.3350   35.4200 O.3   112  TYR112     -0.2866
    105  N         21.2320   10.1680   41.7040 N.3   142  VAL142     -0.1231
    106  CA        19.7990    9.8920   41.6780 C.3   142  VAL142      0.1692
    107  C         19.4350    8.9060   40.5310 C.2   142  VAL142      0.2591
    108  O         20.2120    8.7530   39.5800 O.2   142  VAL142     -0.2718
    109  CB        19.0010   11.2240   41.5640 C.3   142  VAL142      0.0266
    110  CG1       19.0750   12.0290   42.8700 C.3   142  VAL142      0.0020
    111  CG2       19.4990   12.0600   40.4050 C.3   142  VAL142      0.0020
    112  N         18.3050    8.1950   40.6150 N.am  143  ALA143     -0.1980
    113  CA        17.4240    8.1240   41.7850 C.3   143  ALA143      0.1597
    114  C         17.7250    6.8520   42.5810 C.2   143  ALA143      0.2287
    115  O         17.8390    5.7670   42.0110 O.2   143  ALA143     -0.2864
    116  CB        15.9650    8.1430   41.3530 C.3   143  ALA143      0.0319
    117  N         15.9460    3.8770   41.7610 N.3   146  PHE146     -0.1227
    118  CA        16.0140    3.5610   40.3280 C.3   146  PHE146      0.1736
    119  C         17.4580    3.5060   39.8310 C.2   146  PHE146      0.2595
    120  O         18.1440    2.5280   40.1120 O.2   146  PHE146     -0.2718
    121  CB        15.1420    4.5090   39.5100 C.3   146  PHE146      0.0547
    122  CG        13.6900    4.3350   39.7770 C.ar  146  PHE146     -0.0202
    123  CD1       13.0760    5.0170   40.8270 C.ar  146  PHE146     -0.0042
    124  CD2       12.9310    3.4530   39.0150 C.ar  146  PHE146     -0.0042
    125  CE1       11.7180    4.8400   41.1010 C.ar  146  PHE146     -0.0003
    126  CE2       11.5770    3.2640   39.2810 C.ar  146  PHE146     -0.0003
    127  CZ        10.9710    3.9590   40.3240 C.ar  146  PHE146     -0.0000
    128  N         17.9340    4.5440   39.1350 N.am  147  CYS147     -0.1970
    129  CA        19.2550    4.4850   38.5000 C.3   147  CYS147      0.1712
    130  C         20.3510    3.9670   39.4200 C.2   147  CYS147      0.2296
    131  O         21.0780    3.0590   39.0500 O.2   147  CYS147     -0.2864
    132  CB        19.6770    5.8270   37.9150 C.3   147  CYS147      0.0983
    133  SG        21.2140    5.7270   36.9210 S.3   147  CYS147     -0.0798
    134  N         12.9150    8.8790   44.4160 N.3   172  VAL172     -0.1245
    135  CA        11.6180    9.2900   43.8940 C.3   172  VAL172      0.1561
    136  C         10.5670    9.0090   44.9630 C.2   172  VAL172      0.2260
    137  O          9.6380    9.7970   45.1700 O.2   172  VAL172     -0.2867
    138  CB        11.2750    8.5180   42.5840 C.3   172  VAL172      0.0252
    139  CG1        9.8040    8.6760   42.2020 C.3   172  VAL172      0.0019
    140  CG2       12.1650    8.9710   41.4430 C.3   172  VAL172      0.0019
@<TRIPOS>BOND
     1    39    38    2
     2    38    37    1
     3    37    36    1
     4    37    40    1
     5    40    41    1
     6    79    80    1
     7    42    41   ar
     8    42    44   ar
     9    41    43   ar
    10    72    73    2
    11    72    71    1
    12    70    71    1
    13    71    74    1
    14    80    81    1
    15    80    83    1
    16    44    45   ar
    17    43    45   ar
    18    63    62    2
    19    82    81    2
    20    81    87   am
    21    30    31    2
    22    30    29    1
    23    74    75    1
    24    83    84    1
    25    91    92    1
    26    91    88    1
    27    60    61    1
    28    62    61    1
    29    87    88    1
    30    86    84   ar
    31    84    85   ar
    32    61    64    1
    33    29    28    1
    34    29    32    1
    35    75    76    1
    36    88    89    1
    37    34    33   ar
    38    49    48    2
    39    33    32    1
    40    33    35   ar
    41    66    68   ar
    42    66    65   ar
    43    68    69   ar
    44    90    89    2
    45    69    67   ar
    46    65    64    1
    47    65    67   ar
    48    89    93   am
    49    76    77    1
    50    48    47    1
    51    77    78    1
    52    93    94    1
    53    46    47    1
    54    50    47    1
    55    50    51    1
    56    52    51   ar
    57    52    54   ar
    58    51    53   ar
    59    94    95    1
    60    94    97    1
    61     7     6   ar
    62    95    96    2
    63    54    55   ar
    64    19    18   ar
    65    19    17   ar
    66    18    16   ar
    67   104   103    1
    68   101   103   ar
    69   101    99   ar
    70   103   102   ar
    71    99    98   ar
    72     6     8   ar
    73     6     5    1
    74   102   100   ar
    75    98   100   ar
    76    98    97    1
    77    26    25    1
    78    53    55   ar
    79    53    56   ar
    80    17    15   ar
    81    55    57   ar
    82    16    14   ar
    83    20    21    1
    84     2     5    1
    85     2     1    1
    86     2     3    1
    87    25    24    1
    88    25    27    1
    89   133   132    1
    90    24    21    1
    91     9    10    1
    92    56    58   ar
    93     3     4    2
    94    15    14   ar
    95    14    13    1
    96    21    22    1
    97    57    59   ar
    98   132   129    1
    99    10    13    1
   100    10    11    1
   101    58    59   ar
   102   129   128    1
   103   129   130    1
   104    22    23    2
   105   124   126   ar
   106   124   122   ar
   107   131   130    2
   108   128   119   am
   109   126   127   ar
   110    11    12    2
   111   121   122    1
   112   121   118    1
   113   108   107    2
   114   122   123   ar
   115   119   120    2
   116   119   118    1
   117   127   125   ar
   118   118   117    1
   119   111   109    1
   120   107   112   am
   121   107   106    1
   122   112   113    1
   123   123   125   ar
   124   116   113    1
   125   140   138    1
   126   109   106    1
   127   109   110    1
   128   106   105    1
   129   113   114    1
   130   115   114    2
   131   139   138    1
   132   138   135    1
   133   135   134    1
   134   135   136    1
   135   136   137    2
