@<TRIPOS>MOLECULE
tmp/3r2qA00.pdb
 104 101 0 0 0
SMALL
GASTEIGER

@<TRIPOS>ATOM
      1  N        -27.4830   20.5370   13.6320 N.3     9  SER9       -0.1217
      2  CA       -28.6850   20.4500   12.7880 C.3     9  SER9        0.1889
      3  C        -28.3990   20.6550   11.3160 C.2     9  SER9        0.2288
      4  O        -27.7940   21.6870   10.9660 O.2     9  SER9       -0.2866
      5  CB       -29.6840   21.5680   13.2480 C.3     9  SER9        0.2089
      6  OG       -30.7540   21.6510   12.3230 O.3     9  SER9       -0.2183
      7  N        -30.7080   21.2960    9.0510 N.3    11  PHE11      -0.1241
      8  CA       -31.5780   22.3690    8.6240 C.3    11  PHE11       0.1605
      9  C        -30.9160   23.7160    8.8130 C.2    11  PHE11       0.2264
     10  O        -31.0130   24.6230    7.9970 O.2    11  PHE11      -0.2867
     11  CB       -32.8950   22.3360    9.4220 C.3    11  PHE11       0.0534
     12  CG       -33.6580   21.0300    9.3160 C.ar   11  PHE11      -0.0203
     13  CD1      -34.4400   20.7310    8.1850 C.ar   11  PHE11      -0.0042
     14  CD2      -33.6270   20.1430   10.3680 C.ar   11  PHE11      -0.0042
     15  CE1      -35.1470   19.5390    8.1600 C.ar   11  PHE11      -0.0003
     16  CE2      -34.3220   18.9650   10.2980 C.ar   11  PHE11      -0.0003
     17  CZ       -35.0880   18.6480    9.1920 C.ar   11  PHE11      -0.0000
     18  N        -32.2890   22.6890   21.2360 N.3    33  PRO33      -0.2102
     19  CA       -33.7520   22.7140   21.2720 C.3    33  PRO33       0.1504
     20  C        -34.3680   21.5310   21.9840 C.2    33  PRO33       0.2575
     21  O        -35.5200   21.5810   22.3430 O.2    33  PRO33      -0.2718
     22  CB       -34.1490   22.7450   19.7920 C.3    33  PRO33       0.0282
     23  CG       -32.9980   22.1090   19.1090 C.3    33  PRO33       0.0208
     24  CD       -31.7550   22.5520   19.8510 C.3    33  PRO33       0.0893
     25  N        -33.6060   20.4390   22.1950 N.am   34  TYR34      -0.1977
     26  CA       -34.1320   19.2820   22.9550 C.3    34  TYR34       0.1639
     27  C        -33.8010   19.3640   24.4040 C.2    34  TYR34       0.2290
     28  O        -34.2720   18.5200   25.1750 O.2    34  TYR34      -0.2864
     29  CB       -33.6140   17.9720   22.3460 C.3    34  TYR34       0.0560
     30  CG       -34.2390   17.7510   21.0020 C.ar   34  TYR34      -0.0198
     31  CD1      -35.5950   17.3640   20.8530 C.ar   34  TYR34      -0.0009
     32  CD2      -33.4910   17.9360   19.8400 C.ar   34  TYR34      -0.0009
     33  CE1      -36.1300   17.1680   19.5840 C.ar   34  TYR34       0.0417
     34  CE2      -34.0450   17.7660   18.5800 C.ar   34  TYR34       0.0417
     35  CZ       -35.3740   17.3880   18.4770 C.ar   34  TYR34       0.1957
     36  OH       -35.8120   17.2350   17.1740 O.3    34  TYR34      -0.2866
     37  N        -38.2250   25.1910   17.4770 N.3    48  LYS48      -0.1231
     38  CA       -37.3050   24.5600   16.5500 C.3    48  LYS48       0.1693
     39  C        -36.3260   25.5750   15.9690 C.2    48  LYS48       0.2592
     40  O        -36.6480   26.7420   15.7960 O.2    48  LYS48      -0.2718
     41  CB       -38.0570   23.8530   15.4040 C.3    48  LYS48       0.0285
     42  CG       -38.9760   22.7560   15.9310 C.3    48  LYS48       0.0035
     43  CD       -39.5420   21.8530   14.8560 C.3    48  LYS48       0.0206
     44  CE       -40.5110   20.8350   15.4210 C.3    48  LYS48       0.1093
     45  NZ       -40.8760   19.8290   14.4370 N.3    48  LYS48      -0.1314
     46  N        -35.1460   25.0540   15.6630 N.am   49  VAL49      -0.1966
     47  CA       -34.1600   25.7730   14.8980 C.3    49  VAL49       0.1712
     48  C        -34.0740   25.1860   13.5020 C.2    49  VAL49       0.2458
     49  O        -34.3240   23.9850   13.3090 O.2    49  VAL49      -0.2730
     50  CB       -32.7680   25.7430   15.5770 C.3    49  VAL49       0.0289
     51  CG1      -32.8400   26.4890   16.9170 C.3    49  VAL49       0.0023
     52  CG2      -32.2300   24.3100   15.6960 C.3    49  VAL49       0.0023
     53  N        -33.7020   25.9710   12.4920 N.am   50  PRO50      -0.2727
     54  CA       -33.2170   27.3460   12.5610 C.3    50  PRO50       0.1402
     55  C        -34.3070   28.3820   12.6800 C.2    50  PRO50       0.2269
     56  O        -35.4710   28.1960   12.3010 O.2    50  PRO50      -0.2865
     57  CB       -32.5160   27.5310   11.2000 C.3    50  PRO50       0.0296
     58  CG       -33.2960   26.5940   10.2880 C.3    50  PRO50       0.0237
     59  CD       -33.5810   25.4000   11.1440 C.3    50  PRO50       0.0939
     60  N        -39.8890   28.2990    8.8580 N.3    62  ASP62      -0.1225
     61  CA       -38.8680   27.3000    9.0620 C.3    62  ASP62       0.1805
     62  C        -37.7780   27.3970    7.9990 C.2    62  ASP62       0.2598
     63  O        -37.6850   28.3890    7.2650 O.2    62  ASP62      -0.2718
     64  CB       -39.4970   25.9190    9.1890 C.3    62  ASP62       0.1424
     65  CG       -40.2090   25.4240    7.9570 C.2    62  ASP62       0.3668
     66  OD1      -40.6610   26.2660    7.1340 O.co2  62  ASP62      -0.2456
     67  OD2      -40.3420   24.1790    7.8420 O.co2  62  ASP62      -0.2456
     68  N        -36.8700   26.4020    7.9080 N.am   63  SER63      -0.1938
     69  CA       -35.7130   26.5360    7.0820 C.3    63  SER63       0.2043
     70  C        -35.9810   26.8300    5.6230 C.2    63  SER63       0.2522
     71  O        -35.2290   27.6470    5.0510 O.2    63  SER63      -0.2726
     72  CB       -34.7480   25.3600    7.2220 C.3    63  SER63       0.2129
     73  OG       -35.1690   24.1740    6.5990 O.3    63  SER63      -0.2179
     74  N        -36.9540   26.2430    4.9230 N.am   64  PRO64      -0.2503
     75  CA       -37.1540   26.6120    3.5210 C.3    64  PRO64       0.1487
     76  C        -37.5460   28.0610    3.3810 C.2    64  PRO64       0.2276
     77  O        -37.1500   28.7260    2.4040 O.2    64  PRO64      -0.2865
     78  CB       -38.2550   25.6350    3.0270 C.3    64  PRO64       0.0556
     79  CG       -38.5330   24.7790    4.1350 C.2    64  PRO64      -0.0078
     80  CD       -37.8710   25.1400    5.3240 C.2    64  PRO64       0.0634
     81  N        -34.9470   17.8810    2.7630 N.3    98  ASP98      -0.1239
     82  CA       -35.3890   18.1850    4.0910 C.3    98  ASP98       0.1674
     83  C        -36.1310   16.9990    4.7060 C.2    98  ASP98       0.2266
     84  O        -36.0300   16.7710    5.9170 O.2    98  ASP98      -0.2867
     85  CB       -36.2970   19.3930    4.0920 C.3    98  ASP98       0.1410
     86  CG       -35.5850   20.7230    3.8370 C.2    98  ASP98       0.3668
     87  OD1      -34.3690   20.8150    3.8570 O.co2  98  ASP98      -0.2456
     88  OD2      -36.3260   21.7450    3.6600 O.co2  98  ASP98      -0.2456
     89  N        -35.5120   15.0300    8.0760 N.3   102  ASP102     -0.1239
     90  CA       -36.5790   14.7460    9.0260 C.3   102  ASP102      0.1674
     91  C        -36.5180   13.2810    9.4840 C.2   102  ASP102      0.2266
     92  O        -36.6510   12.9840   10.6720 O.2   102  ASP102     -0.2867
     93  CB       -37.9460   15.0430    8.4430 C.3   102  ASP102      0.1410
     94  CG       -38.4360   16.4210    8.1180 C.2   102  ASP102      0.3668
     95  OD1      -37.9390   17.3610    8.7600 O.co2 102  ASP102     -0.2456
     96  OD2      -39.3280   16.6130    7.2630 O.co2 102  ASP102     -0.2456
     97  N        -33.5610   12.5840   11.6780 N.3   105  LEU105     -0.1245
     98  CA       -33.7890   13.1490   13.0010 C.3   105  LEU105      0.1561
     99  C        -34.7780   12.2940   13.8110 C.2   105  LEU105      0.2260
    100  O        -34.5370   12.0170   14.9980 O.2   105  LEU105     -0.2867
    101  CB       -34.3050   14.5830   12.8710 C.3   105  LEU105      0.0270
    102  CG       -34.6110   15.2750   14.1700 C.3   105  LEU105      0.0019
    103  CD1      -33.3620   15.4020   15.0560 C.3   105  LEU105      0.0001
    104  CD2      -35.2320   16.6460   13.9060 C.3   105  LEU105      0.0001
@<TRIPOS>BOND
     1    77    76    2
     2    81    82    1
     3    78    75    1
     4    78    79    1
     5    76    75    1
     6    75    74    1
     7    88    86   ar
     8    86    87   ar
     9    86    85    1
    10    82    85    1
    11    82    83    1
    12    79    80    2
    13    83    84    2
    14    74    80    1
    15    74    70   am
    16    71    70    2
    17    70    69    1
    18    73    72    1
    19    69    72    1
    20    69    68    1
    21    66    65   ar
    22    96    94   ar
    23    63    62    2
    24    67    65   ar
    25    68    62   am
    26    65    64    1
    27    10     9    2
    28    62    61    1
    29    89    90    1
    30    94    93    1
    31    94    95   ar
    32    15    13   ar
    33    15    17   ar
    34    13    12   ar
    35    93    90    1
    36     8     9    1
    37     8     7    1
    38     8    11    1
    39    60    61    1
    40    90    91    1
    41    61    64    1
    42    17    16   ar
    43    12    11    1
    44    12    14   ar
    45    91    92    2
    46    58    59    1
    47    58    57    1
    48    16    14   ar
    49     4     3    2
    50    59    53    1
    51    57    54    1
    52     3     2    1
    53    97    98    1
    54    56    55    2
    55     6     5    1
    56    53    54    1
    57    53    48   am
    58    54    55    1
    59     2     5    1
    60     2     1    1
    61   101    98    1
    62   101   102    1
    63    98    99    1
    64    49    48    2
    65    48    47    1
    66    99   100    2
    67   104   102    1
    68   102   103    1
    69    45    44    1
    70    43    44    1
    71    43    42    1
    72    47    50    1
    73    47    46    1
    74    41    42    1
    75    41    38    1
    76    50    52    1
    77    50    51    1
    78    46    39   am
    79    40    39    2
    80    39    38    1
    81    38    37    1
    82    36    35    1
    83    35    34   ar
    84    35    33   ar
    85    34    32   ar
    86    23    22    1
    87    23    24    1
    88    33    31   ar
    89    22    19    1
    90    32    30   ar
    91    24    18    1
    92    31    30   ar
    93    30    29    1
    94    18    19    1
    95    19    20    1
    96    20    25   am
    97    20    21    2
    98    25    26    1
    99    29    26    1
   100    26    27    1
   101    27    28    2
