@<TRIPOS>MOLECULE
tmp/3r2yA01.pdb
 86 80 0 0 0
SMALL
GASTEIGER

@<TRIPOS>ATOM
      1  N          6.4370   11.4290   44.7070 N.3    27  LEU27      -0.1231
      2  CA         6.5800   10.2470   43.8740 C.3    27  LEU27       0.1693
      3  C          5.8830   10.4280   42.5180 C.2    27  LEU27       0.2593
      4  O          4.8950   11.1430   42.4060 O.2    27  LEU27      -0.2718
      5  CB         5.9820    9.0720   44.6130 C.3    27  LEU27       0.0284
      6  CG         6.3710    7.7010   44.0670 C.3    27  LEU27       0.0019
      7  CD1        7.8510    7.4370   44.4320 C.3    27  LEU27       0.0001
      8  CD2        5.3920    6.5550   44.5570 C.3    27  LEU27       0.0001
      9  N          6.4180    9.7800   41.4930 N.am   28  GLY28      -0.1942
     10  CA         5.9350    9.9510   40.1210 C.3    28  GLY28       0.2014
     11  C          6.6280    8.9470   39.2070 C.2    28  GLY28       0.2639
     12  O          7.5190    8.1980   39.6710 O.2    28  GLY28      -0.2714
     13  N          6.2680    8.9280   37.9140 N.am   29  ILE29      -0.1963
     14  CA         6.7230    7.8350   37.0490 C.3    29  ILE29       0.1727
     15  C          8.2120    7.6110   37.1400 C.2    29  ILE29       0.2616
     16  O          8.6560    6.4840   37.0470 O.2    29  ILE29      -0.2715
     17  CB         6.4370    8.0190   35.5440 C.3    29  ILE29       0.0290
     18  CG1        4.9380    8.2280   35.2460 C.3    29  ILE29       0.0022
     19  CG2        6.9650    6.7610   34.7790 C.3    29  ILE29       0.0023
     20  CD1        4.5490    8.1410   33.6880 C.3    29  ILE29       0.0001
     21  N          8.9780    8.6810   37.3170 N.am   30  ASN30      -0.1972
     22  CA        10.4450    8.6160   37.1960 C.3    30  ASN30       0.1688
     23  C         11.1780    8.4990   38.5290 C.2    30  ASN30       0.2292
     24  O         12.3750    8.8430   38.6350 O.2    30  ASN30      -0.2864
     25  CB        10.9750    9.8500   36.4770 C.3    30  ASN30       0.1181
     26  CG        10.0730   10.2970   35.3860 C.2    30  ASN30       0.2629
     27  OD1       10.2760    9.9200   34.2350 O.2    30  ASN30      -0.2716
     28  ND2        9.0390   11.0860   35.7310 N.am   30  ASN30      -0.0877
     29  N         13.7740   17.1230   40.3270 N.3    48  LYS48      -0.1245
     30  CA        13.1110   16.0420   39.6090 C.3    48  LYS48       0.1561
     31  C         14.0710   15.4700   38.6180 C.2    48  LYS48       0.2260
     32  O         14.7120   16.1990   37.8870 O.2    48  LYS48      -0.2867
     33  CB        11.8700   16.5170   38.8570 C.3    48  LYS48       0.0271
     34  CG        11.0040   15.3560   38.3150 C.3    48  LYS48       0.0035
     35  CD         9.9570   15.8650   37.3460 C.3    48  LYS48       0.0206
     36  CE         8.7260   14.9740   37.2430 C.3    48  LYS48       0.1093
     37  NZ         7.5920   15.7160   36.6690 N.3    48  LYS48      -0.1314
     38  N          8.9390   17.6670   28.4310 N.3    59  GLU59      -0.1245
     39  CA         8.4160   18.1610   29.7110 C.3    59  GLU59       0.1567
     40  C          9.1110   19.4690   29.9950 C.2    59  GLU59       0.2260
     41  O          8.4920   20.5280   29.9790 O.2    59  GLU59      -0.2867
     42  CB         8.6770   17.1430   30.8400 C.3    59  GLU59       0.0388
     43  CG         8.5110   17.6840   32.2450 C.3    59  GLU59       0.1160
     44  CD         8.1850   16.6100   33.2910 C.2    59  GLU59       0.3649
     45  OE1        8.1230   16.9490   34.5000 O.co2  59  GLU59      -0.2457
     46  OE2        7.9880   15.4300   32.9210 O.co2  59  GLU59      -0.2457
     47  N         -2.9860   16.3190   33.4080 N.3   135  ASP135     -0.1239
     48  CA        -2.9870   15.7700   34.7630 C.3   135  ASP135      0.1674
     49  C         -3.1710   16.7970   35.8730 C.2   135  ASP135      0.2266
     50  O         -2.3320   16.8960   36.7310 O.2   135  ASP135     -0.2867
     51  CB        -1.6520   15.0620   34.9540 C.3   135  ASP135      0.1410
     52  CG        -1.6020   14.1510   36.1590 C.2   135  ASP135      0.3668
     53  OD1       -2.6560   13.8160   36.6990 O.co2 135  ASP135     -0.2456
     54  OD2       -0.4880   13.7430   36.5690 O.co2 135  ASP135     -0.2456
     55  N         -4.8210   16.8340   38.6760 N.3   137  LYS137     -0.1245
     56  CA        -5.3430   16.2150   39.8870 C.3   137  LYS137      0.1561
     57  C         -4.9970   17.1440   41.0350 C.2   137  LYS137      0.2260
     58  O         -4.2420   18.0960   40.8380 O.2   137  LYS137     -0.2867
     59  CB        -4.7660   14.7870   40.0790 C.3   137  LYS137      0.0271
     60  CG        -3.2570   14.5650   39.8310 C.3   137  LYS137      0.0035
     61  CD        -2.9170   13.0450   39.7580 C.3   137  LYS137      0.0206
     62  CE        -1.4350   12.7760   39.3950 C.3   137  LYS137      0.1093
     63  NZ        -1.1390   11.5560   38.5400 N.3   137  LYS137     -0.1314
     64  N          3.9730   19.3360   37.9500 N.3   156  ASP156     -0.1239
     65  CA         3.9880   17.9980   37.3470 C.3   156  ASP156      0.1674
     66  C          3.5340   18.0390   35.9010 C.2   156  ASP156      0.2266
     67  O          2.3620   18.0590   35.6130 O.2   156  ASP156     -0.2867
     68  CB         3.1250   17.0380   38.1630 C.3   156  ASP156      0.1410
     69  CG         3.2240   15.6130   37.6860 C.2   156  ASP156      0.3668
     70  OD1        3.9300   15.3870   36.6690 O.co2 156  ASP156     -0.2456
     71  OD2        2.5920   14.7280   38.3370 O.co2 156  ASP156     -0.2456
     72  N          4.5410   15.8900   33.5090 N.3   158  GLY158     -0.1210
     73  CA         4.7820   14.5750   32.8970 C.3   158  GLY158      0.1956
     74  C          3.8740   14.2270   31.7220 C.2   158  GLY158      0.2611
     75  O          4.2480   13.4420   30.8740 O.2   158  GLY158     -0.2717
     76  N          2.6850   14.8270   31.6880 N.am  159  PHE159     -0.1976
     77  CA         1.6760   14.5690   30.6860 C.3   159  PHE159      0.1639
     78  C          1.3110   15.8140   29.8730 C.2   159  PHE159      0.2290
     79  O          0.4900   15.7330   28.9810 O.2   159  PHE159     -0.2864
     80  CB         0.4270   14.0370   31.3760 C.3   159  PHE159      0.0560
     81  CG         0.6440   12.7490   32.1250 C.ar  159  PHE159     -0.0200
     82  CD1        0.9720   11.5890   31.4610 C.ar  159  PHE159     -0.0042
     83  CD2        0.5000   12.6930   33.4900 C.ar  159  PHE159     -0.0042
     84  CE1        1.1760   10.4000   32.1640 C.ar  159  PHE159     -0.0003
     85  CE2        0.6910   11.5150   34.1990 C.ar  159  PHE159     -0.0003
     86  CZ         1.0200   10.3710   33.5450 C.ar  159  PHE159     -0.0000
@<TRIPOS>BOND
     1    38    39    1
     2    79    78    2
     3    39    40    1
     4    39    42    1
     5    78    77    1
     6    41    40    2
     7    77    80    1
     8    77    76    1
     9    42    43    1
    10    75    74    2
    11    80    81    1
    12    82    81   ar
    13    82    84   ar
    14    76    74   am
    15    74    73    1
    16    81    83   ar
    17    84    86   ar
    18    43    44    1
    19    73    72    1
    20    46    44   ar
    21    44    45   ar
    22    47    48    1
    23    83    85   ar
    24    86    85   ar
    25    20    18    1
    26    27    26    2
    27    48    51    1
    28    48    49    1
    29    19    17    1
    30    51    52    1
    31    18    17    1
    32    26    28   am
    33    26    25    1
    34    17    14    1
    35    67    66    2
    36    49    50    2
    37    66    65    1
    38    52    54   ar
    39    52    53   ar
    40    25    22    1
    41    70    69   ar
    42    37    36    1
    43    16    15    2
    44    14    15    1
    45    14    13    1
    46    15    21   am
    47    22    21    1
    48    22    23    1
    49    36    35    1
    50    35    34    1
    51    65    64    1
    52    65    68    1
    53    69    68    1
    54    69    71   ar
    55    32    31    2
    56    13    11   am
    57    34    33    1
    58    23    24    2
    59    63    62    1
    60    31    30    1
    61    55    56    1
    62    33    30    1
    63    11    12    2
    64    11    10    1
    65    62    61    1
    66    30    29    1
    67    61    60    1
    68    60    59    1
    69    56    59    1
    70    56    57    1
    71    10     9    1
    72    58    57    2
    73     9     3   am
    74     4     3    2
    75     3     2    1
    76     2     5    1
    77     2     1    1
    78     6     7    1
    79     6     8    1
    80     6     5    1
