@<TRIPOS>MOLECULE
tmp/3r30A00.pdb
 176 166 0 0 0
SMALL
GASTEIGER

@<TRIPOS>ATOM
      1  N         10.1210   14.6830   48.5640 N.3    25  LEU25      -0.1231
      2  CA         9.0210   15.6370   48.6410 C.3    25  LEU25       0.1693
      3  C          7.8170   15.1910   47.7670 C.2    25  LEU25       0.2593
      4  O          6.7710   15.8510   47.7550 O.2    25  LEU25      -0.2718
      5  CB         9.5280   17.0300   48.2210 C.3    25  LEU25       0.0284
      6  CG        10.8570   17.5160   48.8350 C.3    25  LEU25       0.0019
      7  CD1       11.4430   18.6370   48.0210 C.3    25  LEU25       0.0001
      8  CD2       10.6640   17.9560   50.2680 C.3    25  LEU25       0.0001
      9  N          7.9740   14.0800   47.0390 N.am   26  GLY26      -0.1942
     10  CA         6.9000   13.5220   46.2050 C.3    26  GLY26       0.2014
     11  C          7.3940   12.4480   45.2430 C.2    26  GLY26       0.2639
     12  O          8.5490   12.4680   44.8210 O.2    26  GLY26      -0.2714
     13  N          6.5140   11.5010   44.9190 N.am   27  LEU27      -0.1963
     14  CA         6.7900   10.4210   43.9510 C.3    27  LEU27       0.1731
     15  C          5.8030   10.5670   42.8100 C.2    27  LEU27       0.2655
     16  O          4.6120   10.6090   43.0660 O.2    27  LEU27      -0.2711
     17  CB         6.5960    9.0420   44.6020 C.3    27  LEU27       0.0311
     18  CG         6.9280    7.8080   43.7760 C.3    27  LEU27       0.0022
     19  CD1        8.4330    7.6660   43.5870 C.3    27  LEU27       0.0001
     20  CD2        6.3580    6.5540   44.4330 C.3    27  LEU27       0.0001
     21  N          6.2450   10.6530   41.5570 N.am   28  GLY28      -0.1730
     22  CA         5.2400   10.8310   40.5010 C.2    28  GLY28       0.1340
     23  C          5.4100   10.6120   38.9890 C.2    28  GLY28       0.2521
     24  O          4.7540   11.3540   38.2050 O.2    28  GLY28      -0.2816
     25  N         10.9740   12.8140   44.0360 N.3    32  VAL32      -0.1245
     26  CA        11.4090   14.2130   44.0540 C.3    32  VAL32       0.1561
     27  C         12.1050   14.5110   45.3680 C.2    32  VAL32       0.2260
     28  O         11.5150   14.3540   46.4380 O.2    32  VAL32      -0.2867
     29  CB        10.2540   15.1740   43.9380 C.3    32  VAL32       0.0252
     30  CG1       10.7400   16.5610   44.2100 C.3    32  VAL32       0.0019
     31  CG2        9.6300   15.0740   42.5560 C.3    32  VAL32       0.0019
     32  N         13.4970   21.7310   45.2180 N.3    45  ALA45      -0.1245
     33  CA        12.9890   20.4100   44.8740 C.3    45  ALA45       0.1562
     34  C         13.6810   19.9990   43.5970 C.2    45  ALA45       0.2260
     35  O         13.8030   20.7930   42.6720 O.2    45  ALA45      -0.2867
     36  CB        11.4800   20.4600   44.6810 C.3    45  ALA45       0.0290
     37  N         13.8790   17.1870   40.4420 N.3    47  LYS47      -0.1245
     38  CA        13.2050   16.1100   39.7120 C.3    47  LYS47       0.1561
     39  C         14.1750   15.5240   38.7090 C.2    47  LYS47       0.2260
     40  O         14.8200   16.2330   37.9760 O.2    47  LYS47      -0.2867
     41  CB        11.9350   16.6190   39.0120 C.3    47  LYS47       0.0271
     42  CG        11.0860   15.5110   38.3600 C.3    47  LYS47       0.0035
     43  CD         9.7290   16.0220   37.8860 C.3    47  LYS47       0.0206
     44  CE         8.8900   14.8940   37.3130 C.3    47  LYS47       0.1093
     45  NZ         7.4630   15.2370   37.0230 N.3    47  LYS47      -0.1314
     46  N          8.8910   17.5540   28.5790 N.3    58  GLU58      -0.1245
     47  CA         8.3910   18.0320   29.8610 C.3    58  GLU58       0.1567
     48  C          9.1360   19.3210   30.1900 C.2    58  GLU58       0.2260
     49  O          8.5410   20.3870   30.3100 O.2    58  GLU58      -0.2867
     50  CB         8.5560   16.9620   30.9660 C.3    58  GLU58       0.0388
     51  CG         8.4390   17.5040   32.4060 C.3    58  GLU58       0.1160
     52  CD         8.2200   16.4270   33.4830 C.2    58  GLU58       0.3649
     53  OE1        8.3390   16.7980   34.6770 O.co2  58  GLU58      -0.2457
     54  OE2        7.9250   15.2440   33.1570 O.co2  58  GLU58      -0.2457
     55  N          7.3730   22.7840   30.7190 N.3    62  HIS62      -0.1241
     56  CA         7.3190   23.3360   32.0620 C.3    62  HIS62       0.1621
     57  C          8.0060   24.6870   32.0290 C.2    62  HIS62       0.2264
     58  O          7.4550   25.7190   32.4500 O.2    62  HIS62      -0.2867
     59  CB         8.0570   22.4420   33.0570 C.3    62  HIS62       0.0745
     60  CG         7.7300   22.7350   34.4910 C.ar   62  HIS62       0.0817
     61  ND1        7.5500   21.7390   35.4260 N.ar   62  HIS62      -0.2268
     62  CD2        7.5280   23.9060   35.1410 C.ar   62  HIS62       0.1154
     63  CE1        7.2720   22.2890   36.5950 C.ar   62  HIS62       0.1986
     64  NE2        7.2460   23.6020   36.4470 N.ar   62  HIS62      -0.2212
     65  N         13.3000   22.9320   41.0680 N.3    92  MET92      -0.1230
     66  CA        12.0790   23.7380   41.1470 C.3    92  MET92       0.1702
     67  C         11.9410   24.4610   42.4540 C.2    92  MET92       0.2592
     68  O         12.5470   24.0820   43.4540 O.2    92  MET92      -0.2718
     69  CB        10.8520   22.8470   41.0680 C.3    92  MET92       0.0401
     70  CG        10.6880   22.1690   39.7880 C.3    92  MET92       0.0596
     71  SD         9.6810   20.7650   40.0930 S.3    92  MET92      -0.1393
     72  CE         8.1030   21.5880   40.1250 C.3    92  MET92       0.0692
     73  N         11.0490   25.4460   42.4640 N.am   93  GLU93      -0.1966
     74  CA        10.7370   26.1470   43.6860 C.3    93  GLU93       0.1733
     75  C         10.1290   25.1910   44.6990 C.2    93  GLU93       0.2616
     76  O          9.2750   24.3960   44.3810 O.2    93  GLU93      -0.2715
     77  CB         9.8550   27.3770   43.4250 C.3    93  GLU93       0.0429
     78  CG         8.3980   27.1450   43.1090 C.3    93  GLU93       0.1163
     79  CD         7.6060   28.4730   43.0330 C.2    93  GLU93       0.3649
     80  OE1        7.0190   28.7800   41.9700 O.co2  93  GLU93      -0.2457
     81  OE2        7.5800   29.2310   44.0300 O.co2  93  GLU93      -0.2457
     82  N         10.6180   25.2450   45.9260 N.am   94  CYS94      -0.1954
     83  CA        10.1660   24.3050   46.9310 C.3    94  CYS94       0.1843
     84  C          8.8310   24.7220   47.5480 C.2    94  CYS94       0.2625
     85  O          8.7470   25.6690   48.3280 O.2    94  CYS94      -0.2714
     86  CB        11.2210   24.1420   48.0060 C.3    94  CYS94       0.0997
     87  SG        10.8030   22.7720   49.0200 S.3    94  CYS94      -0.0797
     88  N          7.7840   24.0040   47.1970 N.am   95  LEU95      -0.1963
     89  CA         6.4650   24.3290   47.7010 C.3    95  LEU95       0.1728
     90  C          6.2390   23.6430   49.0550 C.2    95  LEU95       0.2616
     91  O          5.9190   22.4610   49.1210 O.2    95  LEU95      -0.2715
     92  CB         5.4210   23.9420   46.6500 C.3    95  LEU95       0.0311
     93  CG         5.6420   24.6670   45.3140 C.3    95  LEU95       0.0022
     94  CD1        4.9080   24.0110   44.1970 C.3    95  LEU95       0.0001
     95  CD2        5.2140   26.0940   45.4110 C.3    95  LEU95       0.0001
     96  N          6.4380   24.3900   50.1370 N.am   96  ASP96      -0.1971
     97  CA         6.3990   23.8050   51.4870 C.3    96  ASP96       0.1709
     98  C          5.0090   23.4860   51.9950 C.2    96  ASP96       0.2293
     99  O          4.8400   22.5210   52.7300 O.2    96  ASP96      -0.2864
    100  CB         7.0790   24.7090   52.5050 C.3    96  ASP96       0.1436
    101  CG         8.5730   24.7020   52.3630 C.2    96  ASP96       0.3671
    102  OD1        9.0790   24.3070   51.2760 O.co2  96  ASP96      -0.2456
    103  OD2        9.2450   25.1000   53.3420 O.co2  96  ASP96      -0.2456
    104  N          2.4920   21.9770   50.9760 N.3    98  GLY98      -0.1210
    105  CA         1.9760   20.6250   50.7710 C.3    98  GLY98       0.1956
    106  C          0.6700   20.6180   50.0040 C.2    98  GLY98       0.2611
    107  O          0.1780   21.6620   49.5820 O.2    98  GLY98      -0.2717
    108  N          0.1030   19.4290   49.8390 N.am   99  GLU99      -0.1979
    109  CA        -0.9760   19.2180   48.8740 C.3    99  GLU99       0.1602
    110  C         -2.2770   19.9010   49.2700 C.2    99  GLU99       0.2287
    111  O         -2.6500   19.9050   50.4420 O.2    99  GLU99      -0.2864
    112  CB        -1.2070   17.7240   48.6740 C.3    99  GLU99       0.0415
    113  CG         0.0110   17.0330   48.1080 C.3    99  GLU99       0.1163
    114  CD        -0.2350   15.6060   47.6800 C.2    99  GLU99       0.3649
    115  OE1        0.6080   15.1150   46.8890 O.co2  99  GLU99      -0.2457
    116  OE2       -1.2430   14.9820   48.1260 O.co2  99  GLU99      -0.2457
    117  N         -3.1890   16.0730   43.7900 N.3   138  GLU138     -0.1231
    118  CA        -1.8230   15.6660   44.1030 C.3   138  GLU138      0.1699
    119  C         -0.7960   16.5760   43.4650 C.2   138  GLU138      0.2592
    120  O          0.3580   16.5440   43.8720 O.2   138  GLU138     -0.2718
    121  CB        -1.5250   14.2410   43.6160 C.3   138  GLU138      0.0402
    122  CG        -2.0700   13.1170   44.4980 C.3   138  GLU138      0.1161
    123  CD        -3.6120   12.9440   44.4460 C.2   138  GLU138      0.3649
    124  OE1       -4.3040   13.7130   43.7180 O.co2 138  GLU138     -0.2457
    125  OE2       -4.1280   12.0300   45.1550 O.co2 138  GLU138     -0.2457
    126  N         -1.1840   17.3530   42.4510 N.am  139  ASN139     -0.1974
    127  CA        -0.2540   18.2630   41.7780 C.3   139  ASN139      0.1688
    128  C         -0.5940   19.7220   42.0390 C.2   139  ASN139      0.2292
    129  O         -0.2250   20.6080   41.2690 O.2   139  ASN139     -0.2864
    130  CB        -0.2690   17.9960   40.2730 C.3   139  ASN139      0.1181
    131  CG        -0.0130   16.5440   39.9310 C.2   139  ASN139      0.2629
    132  OD1        0.8580   15.9010   40.5120 O.2   139  ASN139     -0.2716
    133  ND2       -0.7700   16.0190   38.9770 N.am  139  ASN139     -0.0877
    134  N          0.0130   22.3890   44.9720 N.3   141  LEU141     -0.1245
    135  CA         0.7040   22.5860   46.2550 C.3   141  LEU141      0.1561
    136  C          0.8230   24.0740   46.6120 C.2   141  LEU141      0.2260
    137  O          0.8690   24.9360   45.7240 O.2   141  LEU141     -0.2867
    138  CB         2.0890   21.9410   46.2340 C.3   141  LEU141      0.0270
    139  CG         2.2840   20.6050   45.5120 C.3   141  LEU141      0.0019
    140  CD1        3.4820   19.8600   46.0660 C.3   141  LEU141      0.0001
    141  CD2        1.0870   19.7230   45.6230 C.3   141  LEU141      0.0001
    142  N          3.1300   26.7720   54.5900 N.3   145  LYS145     -0.1245
    143  CA         2.0610   26.4130   55.5270 C.3   145  LYS145      0.1561
    144  C          1.3210   27.6800   55.9470 C.2   145  LYS145      0.2260
    145  O          0.1870   27.6050   56.4150 O.2   145  LYS145     -0.2867
    146  CB         2.6130   25.6500   56.7480 C.3   145  LYS145      0.0271
    147  CG         3.2960   24.3960   56.1880 C.3   145  LYS145      0.0035
    148  CD         2.2470   23.3490   55.8530 C.3   145  LYS145      0.0206
    149  CE         2.8490   22.0280   56.3450 C.3   145  LYS145      0.1093
    150  NZ         2.0160   21.0320   55.6010 N.3   145  LYS145     -0.1314
    151  N          1.8330   21.7650   39.5600 N.3   154  THR154     -0.1203
    152  CA         3.0720   21.0500   39.2990 C.3   154  THR154      0.1994
    153  C          2.8650   19.8130   38.4440 C.2   154  THR154      0.2618
    154  O          1.7430   19.4460   38.1400 O.2   154  THR154     -0.2717
    155  CB         3.6520   20.5970   40.5950 C.3   154  THR154      0.1784
    156  OG1        2.8770   19.4970   41.0830 O.3   154  THR154     -0.2211
    157  CG2        3.5910   21.7280   41.5850 C.3   154  THR154      0.0376
    158  N          3.9710   19.1720   38.0770 N.am  155  ASP155     -0.1959
    159  CA         3.9670   17.9260   37.2990 C.3   155  ASP155      0.1840
    160  C          3.5220   18.1290   35.8550 C.2   155  ASP155      0.2622
    161  O          2.3470   18.2390   35.5810 O.2   155  ASP155     -0.2715
    162  CB         3.1340   16.8310   37.9800 C.3   155  ASP155      0.1450
    163  CG         3.5080   15.4470   37.4970 C.2   155  ASP155      0.3671
    164  OD1        4.0740   15.3850   36.3870 O.co2 155  ASP155     -0.2456
    165  OD2        3.2700   14.4320   38.2130 O.co2 155  ASP155     -0.2456
    166  N          4.4770   18.1500   34.9330 N.am  156  PHE156     -0.1974
    167  CA         4.1880   18.3250   33.5000 C.3   156  PHE156      0.1639
    168  C          4.4260   17.0870   32.6700 C.2   156  PHE156      0.2290
    169  O          4.6270   17.1680   31.4720 O.2   156  PHE156     -0.2864
    170  CB         5.0560   19.4540   32.9510 C.3   156  PHE156      0.0560
    171  CG         4.4710   20.7840   33.1730 C.ar  156  PHE156     -0.0200
    172  CD1        4.3270   21.2630   34.4510 C.ar  156  PHE156     -0.0042
    173  CD2        4.0190   21.5380   32.1140 C.ar  156  PHE156     -0.0042
    174  CE1        3.7740   22.4860   34.6680 C.ar  156  PHE156     -0.0003
    175  CE2        3.4560   22.7570   32.3320 C.ar  156  PHE156     -0.0003
    176  CZ         3.3350   23.2370   33.6110 C.ar  156  PHE156     -0.0000
@<TRIPOS>BOND
     1    46    47    1
     2    47    48    1
     3    47    50    1
     4    48    49    2
     5    55    56    1
     6    50    51    1
     7   169   168    2
     8    57    56    1
     9    57    58    2
    10    56    59    1
    11   173   175   ar
    12   173   171   ar
    13   175   176   ar
    14    51    52    1
    15   168   167    1
    16   170   171    1
    17   170   167    1
    18    59    60    1
    19    54    52   ar
    20   171   172   ar
    21    52    53   ar
    22   167   166    1
    23   176   174   ar
    24   172   174   ar
    25    60    62   ar
    26    60    61   ar
    27   166   160   am
    28    62    64   ar
    29    61    63   ar
    30   161   160    2
    31   160   159    1
    32   164   163   ar
    33    64    63   ar
    34    45    44    1
    35   159   162    1
    36   159   158    1
    37    44    43    1
    38   163   162    1
    39   163   165   ar
    40    43    42    1
    41    40    39    2
    42   158   153   am
    43   154   153    2
    44    24    23    2
    45    42    41    1
    46   153   152    1
    47    39    38    1
    48   133   131   am
    49    23    22    1
    50    41    38    1
    51   152   151    1
    52   152   155    1
    53    38    37    1
    54    70    71    1
    55    70    69    1
    56   131   130    1
    57   131   132    2
    58    71    72    1
    59   130   127    1
    60    22    21    2
    61   155   156    1
    62   155   157    1
    63    69    66    1
    64    65    66    1
    65    66    67    1
    66   129   128    2
    67    21    15    1
    68   127   128    1
    69   127   126    1
    70    80    79   ar
    71   126   119   am
    72    67    73   am
    73    67    68    2
    74    73    74    1
    75    31    29    1
    76    35    34    2
    77    15    16    2
    78    15    14    1
    79    79    78    1
    80    79    81   ar
    81    78    77    1
    82    77    74    1
    83   119   120    2
    84   119   118    1
    85    19    18    1
    86    34    33    1
    87   121   118    1
    88   121   122    1
    89    74    75    1
    90   124   123   ar
    91    18    20    1
    92    18    17    1
    93   117   118    1
    94    29    26    1
    95    29    30    1
    96    14    17    1
    97    14    13    1
    98    25    26    1
    99    26    27    1
   100    94    93    1
   101    76    75    2
   102   123   122    1
   103   123   125   ar
   104    36    33    1
   105    75    82   am
   106    12    11    2
   107    33    32    1
   108    13    11   am
   109   134   135    1
   110    11    10    1
   111    93    95    1
   112    93    92    1
   113    27    28    2
   114   139   141    1
   115   139   140    1
   116   139   138    1
   117   137   136    2
   118    82    83    1
   119    10     9    1
   120   138   135    1
   121   135   136    1
   122    92    89    1
   123   115   114   ar
   124    83    84    1
   125    83    86    1
   126     9     3   am
   127    88    84   am
   128    88    89    1
   129    84    85    2
   130   114   113    1
   131   114   116   ar
   132    89    90    1
   133     4     3    2
   134     3     2    1
   135    86    87    1
   136     7     6    1
   137   113   112    1
   138     5     2    1
   139     5     6    1
   140     1     2    1
   141   112   109    1
   142     6     8    1
   143   109   110    1
   144   109   108    1
   145    90    91    2
   146    90    96   am
   147   110   111    2
   148   107   106    2
   149   108   106   am
   150   106   105    1
   151    96    97    1
   152   105   104    1
   153   102   101   ar
   154    97    98    1
   155    97   100    1
   156    98    99    2
   157   101   100    1
   158   101   103   ar
   159   142   143    1
   160   143   144    1
   161   143   146    1
   162   150   149    1
   163   148   147    1
   164   148   149    1
   165   144   145    2
   166   147   146    1
