@<TRIPOS>MOLECULE
tmp/3r33A00.pdb
 117 111 0 0 0
SMALL
GASTEIGER

@<TRIPOS>ATOM
      1  N          9.5980   -3.5700  -13.3290 N.3     5  ILE5       -0.1231
      2  CA         8.5220   -4.5180  -13.1030 C.3     5  ILE5        0.1692
      3  C          7.2090   -3.8910  -13.6360 C.2     5  ILE5        0.2592
      4  O          6.9180   -2.7390  -13.3130 O.2     5  ILE5       -0.2718
      5  CB         8.4760   -5.0970  -11.6620 C.3     5  ILE5        0.0266
      6  CG1        7.3730   -6.2050  -11.5090 C.3     5  ILE5        0.0019
      7  CG2        8.3850   -3.9830  -10.6020 C.3     5  ILE5        0.0020
      8  CD1        7.5100   -7.1420  -10.2350 C.3     5  ILE5        0.0001
      9  N          6.4710   -4.6180  -14.5000 N.am    6  ALA6       -0.1966
     10  CA         5.2330   -4.1310  -15.1270 C.3     6  ALA6        0.1728
     11  C          4.2740   -5.2540  -15.5330 C.2     6  ALA6        0.2616
     12  O          4.7260   -6.3770  -15.8140 O.2     6  ALA6       -0.2715
     13  CB         5.5850   -3.3360  -16.3760 C.3     6  ALA6        0.0334
     14  N          2.9720   -4.9100  -15.6670 N.am    7  ALA7       -0.1977
     15  CA         1.8860   -5.8080  -16.1190 C.3     7  ALA7        0.1597
     16  C          1.3440   -5.3400  -17.5040 C.2     7  ALA7        0.2287
     17  O          0.8170   -4.2330  -17.6310 O.2     7  ALA7       -0.2864
     18  CB         0.7700   -5.8510  -15.0770 C.3     7  ALA7        0.0319
     19  N         -5.2210    0.6740  -14.1260 N.3    20  MET20      -0.1245
     20  CA        -4.8250   -0.5880  -14.7440 C.3    20  MET20       0.1570
     21  C         -6.1700   -1.3240  -14.8460 C.2    20  MET20       0.2261
     22  O         -6.7160   -1.7390  -13.8260 O.2    20  MET20      -0.2867
     23  CB        -3.7990   -1.3070  -13.8750 C.3    20  MET20       0.0387
     24  CG        -2.4440   -0.5870  -13.9000 C.3    20  MET20       0.0595
     25  SD        -1.3710   -1.1120  -12.5610 S.3    20  MET20      -0.1393
     26  CE        -0.8560    0.4490  -11.9170 C.3    20  MET20       0.0692
     27  N         -1.3700  -10.8380   -9.8620 N.3    27  ASP27      -0.1225
     28  CA        -0.3300   -9.8700  -10.2120 C.3    27  ASP27       0.1805
     29  C          0.0370   -8.9880   -8.9920 C.2    27  ASP27       0.2597
     30  O          1.2060   -8.6290   -8.8290 O.2    27  ASP27      -0.2718
     31  CB        -0.7490   -8.9950  -11.4180 C.3    27  ASP27       0.1424
     32  CG         0.2900   -7.9350  -11.7290 C.2    27  ASP27       0.3668
     33  OD1        1.3830   -8.3030  -12.2290 O.co2  27  ASP27      -0.2456
     34  OD2        0.0830   -6.7590  -11.3240 O.co2  27  ASP27      -0.2456
     35  N         -0.9510   -8.6500   -8.1370 N.am   28  LEU28      -0.1979
     36  CA        -0.6860   -7.8450   -6.9420 C.3    28  LEU28       0.1596
     37  C          0.2280   -8.5920   -5.9860 C.2    28  LEU28       0.2287
     38  O          1.2440   -8.0140   -5.5970 O.2    28  LEU28      -0.2864
     39  CB        -1.9690   -7.2790   -6.2600 C.3    28  LEU28       0.0297
     40  CG        -2.9860   -6.5400   -7.1740 C.3    28  LEU28       0.0022
     41  CD1       -4.0920   -5.8880   -6.3460 C.3    28  LEU28       0.0001
     42  CD2       -2.3200   -5.4470   -8.0340 C.3    28  LEU28       0.0001
     43  N          2.3210  -11.1420   -6.7800 N.3    30  TRP30      -0.1227
     44  CA         3.5810  -11.2110   -7.5200 C.3    30  TRP30       0.1737
     45  C          4.3420   -9.8690   -7.3870 C.2    30  TRP30       0.2595
     46  O          5.5480   -9.8590   -7.1550 O.2    30  TRP30      -0.2718
     47  CB         3.2910  -11.5000   -9.0030 C.3    30  TRP30       0.0564
     48  CG         4.4370  -11.2030   -9.9540 C.ar   30  TRP30       0.0003
     49  CD1        4.5620  -10.1070  -10.7570 C.ar   30  TRP30       0.0946
     50  CD2        5.5260  -12.0810  -10.3020 C.ar   30  TRP30       0.0152
     51  NE1        5.7010  -10.2150  -11.5370 N.ar   30  TRP30      -0.2442
     52  CE2        6.2900  -11.4310  -11.3020 C.ar   30  TRP30       0.0810
     53  CE3        5.9200  -13.3630   -9.8790 C.ar   30  TRP30       0.0012
     54  CZ2        7.4580  -12.0030  -11.8530 C.ar   30  TRP30       0.0191
     55  CZ3        7.0930  -13.9100  -10.3900 C.ar   30  TRP30       0.0001
     56  CH2        7.8480  -13.2360  -11.3670 C.ar   30  TRP30       0.0015
     57  N          3.6550   -8.7560   -7.5970 N.am   31  PHE31      -0.1976
     58  CA         4.2590   -7.4290   -7.4900 C.3    31  PHE31       0.1639
     59  C          4.8080   -7.2190   -6.0680 C.2    31  PHE31       0.2290
     60  O          5.9750   -6.8910   -5.9180 O.2    31  PHE31      -0.2864
     61  CB         3.2660   -6.3270   -7.8730 C.3    31  PHE31       0.0560
     62  CG         3.7680   -4.9440   -7.5640 C.ar   31  PHE31      -0.0200
     63  CD1        4.7510   -4.3510   -8.3510 C.ar   31  PHE31      -0.0042
     64  CD2        3.2710   -4.2320   -6.4710 C.ar   31  PHE31      -0.0042
     65  CE1        5.2140   -3.0710   -8.0560 C.ar   31  PHE31      -0.0003
     66  CE2        3.7320   -2.9460   -6.1910 C.ar   31  PHE31      -0.0003
     67  CZ         4.7080   -2.3860   -6.9670 C.ar   31  PHE31      -0.0000
     68  N          2.0960    7.8330  -11.4820 N.3    46  THR46      -0.1218
     69  CA         1.9250    6.5690  -10.7530 C.3    46  THR46       0.1862
     70  C          1.7880    6.8490   -9.2580 C.2    46  THR46       0.2287
     71  O          0.9430    6.2250   -8.6030 O.2    46  THR46      -0.2866
     72  CB         2.9900    5.5240  -11.1080 C.3    46  THR46       0.1770
     73  OG1        3.0130    5.3590  -12.5190 O.3    46  THR46      -0.2211
     74  CG2        2.7260    4.1510  -10.4460 C.3    46  THR46       0.0375
     75  N         -1.4810    5.7820   -6.4810 N.3    50  ILE50      -0.1245
     76  CA        -1.4130    4.9170   -5.3040 C.3    50  ILE50       0.1561
     77  C         -1.8480    5.6410   -4.0200 C.2    50  ILE50       0.2260
     78  O         -2.2810    4.9830   -3.0720 O.2    50  ILE50      -0.2867
     79  CB        -0.1050    4.0790   -5.1820 C.3    50  ILE50       0.0252
     80  CG1        1.1440    4.9700   -4.9240 C.3    50  ILE50       0.0019
     81  CG2        0.0740    3.1450   -6.3940 C.3    50  ILE50       0.0019
     82  CD1        2.3510    4.2040   -4.3090 C.3    50  ILE50       0.0001
     83  N          4.0670    2.8630   -0.5410 N.3    54  LEU54      -0.1245
     84  CA         4.0820    1.3950   -0.4760 C.3    54  LEU54       0.1561
     85  C          4.8770    0.9820    0.7420 C.2    54  LEU54       0.2260
     86  O          6.0020    1.4550    0.9030 O.2    54  LEU54      -0.2867
     87  CB         4.6840    0.7850   -1.7630 C.3    54  LEU54       0.0270
     88  CG         3.8230    0.9140   -3.0150 C.3    54  LEU54       0.0019
     89  CD1        4.6940    1.0020   -4.2740 C.3    54  LEU54       0.0001
     90  CD2        2.8350   -0.2430   -3.1360 C.3    54  LEU54       0.0001
     91  N          8.8170    0.8390  -10.9930 N.3    94  ILE94      -0.1245
     92  CA         7.4240    0.3910  -10.9860 C.3    94  ILE94       0.1561
     93  C          6.4100    1.1650  -11.8630 C.2    94  ILE94       0.2260
     94  O          5.1980    0.9050  -11.7700 O.2    94  ILE94      -0.2867
     95  CB         6.9620    0.2160   -9.5000 C.3    94  ILE94       0.0252
     96  CG1        6.8260    1.5890   -8.7900 C.3    94  ILE94       0.0019
     97  CG2        7.8790   -0.7220   -8.7330 C.3    94  ILE94       0.0019
     98  CD1        5.7740    1.6180   -7.7450 C.3    94  ILE94       0.0001
     99  N          9.2570    3.9490  -17.5470 N.3   100  TYR100     -0.1241
    100  CA         9.7800    2.6970  -18.1240 C.3   100  TYR100      0.1605
    101  C         10.6520    2.9610  -19.3350 C.2   100  TYR100      0.2264
    102  O         11.7060    2.3480  -19.4410 O.2   100  TYR100     -0.2867
    103  CB         8.6630    1.7290  -18.5120 C.3   100  TYR100      0.0534
    104  CG         7.8580    1.1390  -17.3690 C.ar  100  TYR100     -0.0201
    105  CD1        8.4910    0.5520  -16.2680 C.ar  100  TYR100     -0.0009
    106  CD2        6.4710    1.0220  -17.4600 C.ar  100  TYR100     -0.0009
    107  CE1        7.7530   -0.0850  -15.2630 C.ar  100  TYR100      0.0417
    108  CE2        5.7250    0.3990  -16.4640 C.ar  100  TYR100      0.0417
    109  CZ         6.3640   -0.1400  -15.3580 C.ar  100  TYR100      0.1957
    110  OH         5.5890   -0.7140  -14.3770 O.3   100  TYR100     -0.2866
    111  N          4.3160   -9.3820  -16.3630 N.3   113  THR113     -0.1218
    112  CA         3.0950  -10.1670  -16.2280 C.3   113  THR113      0.1862
    113  C          2.3960   -9.9660  -17.5580 C.2   113  THR113      0.2287
    114  O          1.8770   -8.8740  -17.8020 O.2   113  THR113     -0.2866
    115  CB         2.2100   -9.6570  -15.0820 C.3   113  THR113      0.1770
    116  OG1        2.9440   -9.5960  -13.8590 O.3   113  THR113     -0.2211
    117  CG2        0.9410  -10.4790  -14.9040 C.3   113  THR113      0.0375
@<TRIPOS>BOND
     1   102   101    2
     2   101   100    1
     3   103   100    1
     4   103   104    1
     5   100    99    1
     6   114   113    2
     7    17    16    2
     8   113   112    1
     9    16    15    1
    10   106   104   ar
    11   106   108   ar
    12   104   105   ar
    13   108   109   ar
    14    13    10    1
    15   111   112    1
    16   105   107   ar
    17   112   115    1
    18    15    14    1
    19    15    18    1
    20    12    11    2
    21    14    11   am
    22    11    10    1
    23   109   107   ar
    24   109   110    1
    25    10     9    1
    26   115   117    1
    27   115   116    1
    28    21    20    1
    29    21    22    2
    30    20    19    1
    31    20    23    1
    32     9     3   am
    33    24    23    1
    34    24    25    1
    35     3     4    2
    36     3     2    1
    37     1     2    1
    38     2     5    1
    39    25    26    1
    40    73    72    1
    41    33    32   ar
    42    93    94    2
    43    93    92    1
    44    54    56   ar
    45    54    52   ar
    46    32    31    1
    47    32    34   ar
    48     5     6    1
    49     5     7    1
    50    51    52   ar
    51    51    49   ar
    52     6     8    1
    53    68    69    1
    54    31    28    1
    55    56    55   ar
    56    52    50   ar
    57    72    69    1
    58    72    74    1
    59    91    92    1
    60    92    95    1
    61    49    48   ar
    62    69    70    1
    63    55    53   ar
    64    50    48   ar
    65    50    53   ar
    66    28    27    1
    67    28    29    1
    68    48    47    1
    69    95    96    1
    70    95    97    1
    71    70    71    2
    72    47    44    1
    73    29    30    2
    74    29    35   am
    75    96    98    1
    76    63    65   ar
    77    63    62   ar
    78    35    36    1
    79    65    67   ar
    80    42    40    1
    81    61    62    1
    82    61    58    1
    83    57    58    1
    84    57    45   am
    85    62    64   ar
    86    44    45    1
    87    44    43    1
    88    58    59    1
    89    45    46    2
    90    40    41    1
    91    40    39    1
    92    67    66   ar
    93    36    39    1
    94    36    37    1
    95    75    76    1
    96    64    66   ar
    97    81    79    1
    98    59    60    2
    99    37    38    2
   100    76    79    1
   101    76    77    1
   102    79    80    1
   103    80    82    1
   104    89    88    1
   105    77    78    2
   106    90    88    1
   107    88    87    1
   108    87    84    1
   109    83    84    1
   110    84    85    1
   111    85    86    2
