@<TRIPOS>MOLECULE
tmp/3r44A00.pdb
 80 77 0 0 0
SMALL
GASTEIGER

@<TRIPOS>ATOM
      1  N          3.8740   25.5360   -3.9490 N.3     4  MET4       -0.1230
      2  CA         4.0900   24.1260   -4.2370 C.3     4  MET4        0.1702
      3  C          4.5560   23.3830   -2.9800 C.2     4  MET4        0.2592
      4  O          4.4480   22.1650   -2.8990 O.2     4  MET4       -0.2718
      5  CB         5.1060   23.9370   -5.3850 C.3     4  MET4        0.0401
      6  CG         4.5830   24.2310   -6.8110 C.3     4  MET4        0.0596
      7  SD         3.0460   23.3780   -7.1880 S.3     4  MET4       -0.1393
      8  CE         2.0190   24.8100   -7.0690 C.3     4  MET4        0.0692
      9  N          5.0420   24.1290   -1.9720 N.am    5  LYS5       -0.1966
     10  CA         5.4760   23.5630   -0.7080 C.3     5  LYS5        0.1728
     11  C          4.5440   24.0200    0.4230 C.2     5  LYS5        0.2616
     12  O          4.9890   24.2980    1.5320 O.2     5  LYS5       -0.2715
     13  CB         6.9120   24.0080   -0.4500 C.3     5  LYS5        0.0311
     14  CG         7.8910   23.3950   -1.4320 C.3     5  LYS5        0.0038
     15  CD         9.3040   23.9910   -1.2030 C.3     5  LYS5        0.0206
     16  CE        10.2270   23.6950   -2.3680 C.3     5  LYS5        0.1093
     17  NZ        10.2710   22.2730   -2.6890 N.3     5  LYS5       -0.1314
     18  N          3.2570   24.1390    0.1070 N.am    6  ASN6       -0.1958
     19  CA         2.2840   24.5600    1.0940 C.3     6  ASN6        0.1819
     20  C          1.3430   23.3920    1.4380 C.2     6  ASN6        0.2621
     21  O          0.7200   22.7830    0.5520 O.2     6  ASN6       -0.2715
     22  CB         1.5210   25.7790    0.5480 C.3     6  ASN6        0.1195
     23  CG         0.5160   26.2940    1.5020 C.2     6  ASN6        0.2630
     24  OD1       -0.4750   25.6380    1.7940 O.2     6  ASN6       -0.2716
     25  ND2        0.7520   27.4880    2.0030 N.am    6  ASN6       -0.0877
     26  N          1.1960   23.1040    2.7250 N.am    7  ILE7       -0.1977
     27  CA         0.4300   21.9630    3.1850 C.3     7  ILE7        0.1596
     28  C         -1.0440   22.1160    2.8120 C.2     7  ILE7        0.2287
     29  O         -1.7190   21.1260    2.5150 O.2     7  ILE7       -0.2864
     30  CB         0.5850   21.8230    4.7550 C.3     7  ILE7        0.0276
     31  CG1        2.0140   21.3650    5.0780 C.3     7  ILE7        0.0022
     32  CG2       -0.4540   20.8990    5.3190 C.3     7  ILE7        0.0022
     33  CD1        2.3480   19.9390    4.6170 C.3     7  ILE7        0.0001
     34  N         -1.3110   21.2620   -0.7340 N.3    10  MET10      -0.1245
     35  CA        -1.2990   19.8100   -0.8000 C.3    10  MET10       0.1570
     36  C         -2.6900   19.2060   -0.6860 C.2    10  MET10       0.2261
     37  O         -3.0410   18.2310   -1.4010 O.2    10  MET10      -0.2867
     38  CB        -0.3250   19.1710    0.2030 C.3    10  MET10       0.0387
     39  CG        -0.1610   17.7090   -0.0010 C.3    10  MET10       0.0595
     40  SD         0.8560   16.8980    1.2620 S.3    10  MET10      -0.1393
     41  CE        -0.3640   17.0580    2.6170 C.3    10  MET10       0.0692
     42  N          7.0300   26.0500    2.4270 N.3   158  GLY158     -0.1225
     43  CA         8.4200   25.7160    2.7160 C.3   158  GLY158      0.1811
     44  C          8.7660   25.9210    4.1780 C.2   158  GLY158      0.2280
     45  O          8.1040   25.3990    5.0690 O.2   158  GLY158     -0.2866
     46  N          5.7810   24.2830    7.0850 N.3   178  HIS178     -0.1226
     47  CA         5.1640   23.4780    6.0490 C.3   178  HIS178      0.1752
     48  C          6.1780   22.3540    5.7050 C.2   178  HIS178      0.2595
     49  O          5.8050   21.2070    5.5080 O.2   178  HIS178     -0.2718
     50  CB         4.8160   24.2760    4.7950 C.3   178  HIS178      0.0759
     51  CG         3.7120   25.2720    4.9940 C.ar  178  HIS178      0.0818
     52  ND1        2.4200   25.0740    4.5450 N.ar  178  HIS178     -0.2268
     53  CD2        3.6780   26.4010    5.7380 C.ar  178  HIS178      0.1154
     54  CE1        1.6610   26.0860    4.9360 C.ar  178  HIS178      0.1986
     55  NE2        2.4090   26.9320    5.6250 N.ar  178  HIS178     -0.2212
     56  N          7.4500   22.6900    5.6400 N.am  179  GLU179     -0.1979
     57  CA         8.4860   21.7190    5.3180 C.3   179  GLU179      0.1602
     58  C          8.6000   20.6260    6.3570 C.2   179  GLU179      0.2287
     59  O          8.7200   19.4710    5.9880 O.2   179  GLU179     -0.2864
     60  CB         9.8540   22.3970    5.1480 C.3   179  GLU179      0.0415
     61  CG        11.0530   21.4390    5.1060 C.3   179  GLU179      0.1163
     62  CD        12.3850   22.1860    4.8760 C.2   179  GLU179      0.3649
     63  OE1       12.8880   22.8060    5.8320 O.co2 179  GLU179     -0.2457
     64  OE2       12.9060   22.2070    3.7430 O.co2 179  GLU179     -0.2457
     65  N          5.4330   18.4160    6.2890 N.3   182  HIS182     -0.1226
     66  CA         5.4730   17.5960    5.0840 C.3   182  HIS182      0.1752
     67  C          6.4920   16.4550    5.2460 C.2   182  HIS182      0.2596
     68  O          6.2240   15.3180    4.8640 O.2   182  HIS182     -0.2718
     69  CB         5.8290   18.4420    3.8870 C.3   182  HIS182      0.0759
     70  CG         6.1850   17.6440    2.6710 C.ar  182  HIS182      0.0818
     71  ND1        7.4930   17.4240    2.2800 N.ar  182  HIS182     -0.2268
     72  CD2        5.4020   16.9730    1.7950 C.ar  182  HIS182      0.1154
     73  CE1        7.4910   16.6670    1.1910 C.ar  182  HIS182      0.1986
     74  NE2        6.2340   16.3960    0.8660 N.ar  182  HIS182     -0.2212
     75  N          7.6540   16.7730    5.7990 N.am  183  SER183     -0.1952
     76  CA         8.6960   15.7520    5.9720 C.3   183  SER183      0.1924
     77  C          8.2450   14.6600    6.9280 C.2   183  SER183      0.2314
     78  O          8.4750   13.4850    6.6880 O.2   183  SER183     -0.2863
     79  CB         9.9790   16.3960    6.4460 C.3   183  SER183      0.2116
     80  OG        10.5510   17.1300    5.3750 O.3   183  SER183     -0.2180
@<TRIPOS>BOND
     1     7     8    1
     2     7     6    1
     3     6     5    1
     4     5     2    1
     5     2     1    1
     6     2     3    1
     7     3     4    2
     8     3     9   am
     9    17    16    1
    10    16    15    1
    11     9    10    1
    12    14    15    1
    13    14    13    1
    14    37    36    2
    15    35    34    1
    16    35    36    1
    17    35    38    1
    18    10    13    1
    19    10    11    1
    20    39    38    1
    21    39    40    1
    22    18    11   am
    23    18    19    1
    24    11    12    2
    25    22    19    1
    26    22    23    1
    27    21    20    2
    28    74    73   ar
    29    74    72   ar
    30    19    20    1
    31    73    71   ar
    32    40    41    1
    33    20    26   am
    34    23    24    2
    35    23    25   am
    36    72    70   ar
    37    71    70   ar
    38    42    43    1
    39    29    28    2
    40    70    69    1
    41    43    44    1
    42    26    27    1
    43    28    27    1
    44    27    30    1
    45    64    62   ar
    46    69    66    1
    47    44    45    2
    48    52    54   ar
    49    52    51   ar
    50    33    31    1
    51    30    31    1
    52    30    32    1
    53    50    51    1
    54    50    47    1
    55    68    67    2
    56    62    61    1
    57    62    63   ar
    58    54    55   ar
    59    51    53   ar
    60    66    67    1
    61    66    65    1
    62    61    60    1
    63    60    57    1
    64    67    75   am
    65    57    56    1
    66    57    58    1
    67    80    79    1
    68    49    48    2
    69    55    53   ar
    70    56    48   am
    71    48    47    1
    72    75    76    1
    73    76    79    1
    74    76    77    1
    75    59    58    2
    76    47    46    1
    77    78    77    2
