@<TRIPOS>MOLECULE
tmp/3r49A00.pdb
 79 73 0 0 0
SMALL
GASTEIGER

@<TRIPOS>ATOM
      1  N         11.8380   15.3750   16.6530 N.3    62  GLN62      -0.1245
      2  CA        10.6830   15.0040   17.4740 C.3    62  GLN62       0.1566
      3  C         10.3770   13.5060   17.4290 C.2    62  GLN62       0.2260
      4  O         10.4700   12.8690   16.3750 O.2    62  GLN62      -0.2867
      5  CB         9.4540   15.7940   17.0240 C.3    62  GLN62       0.0367
      6  CG         8.2430   15.6540   17.9350 C.3    62  GLN62       0.0905
      7  CD         7.1130   16.5890   17.5530 C.2    62  GLN62       0.2608
      8  OE1        7.3430   17.6740   17.0120 O.2    62  GLN62      -0.2717
      9  NE2        5.8870   16.1800   17.8440 N.am   62  GLN62      -0.0878
     10  N          2.6590   11.1260   15.1770 N.3    71  GLY71      -0.1210
     11  CA         2.6020   12.4770   15.7420 C.3    71  GLY71       0.1956
     12  C          1.2540   12.8810   16.3160 C.2    71  GLY71       0.2613
     13  O          1.0910   14.0070   16.7910 O.2    71  GLY71      -0.2717
     14  N          0.2850   11.9690   16.2690 N.am   72  THR72      -0.1938
     15  CA        -1.0490   12.2210   16.8060 C.3    72  THR72       0.2028
     16  C         -1.2600   11.5370   18.1510 C.2    72  THR72       0.2642
     17  O         -2.2270   11.8320   18.8470 O.2    72  THR72      -0.2714
     18  CB        -2.1350   11.7080   15.8460 C.3    72  THR72       0.1808
     19  OG1       -2.0080   10.2850   15.6940 O.3    72  THR72      -0.2208
     20  CG2       -2.0120   12.3930   14.4800 C.3    72  THR72       0.0379
     21  N         -0.3550   10.6290   18.5130 N.am   73  GLY73      -0.1954
     22  CA        -0.5740    9.7330   19.6440 C.3    73  GLY73       0.1869
     23  C          0.3810    9.9070   20.8070 C.2    73  GLY73       0.2309
     24  O          0.8930   11.0040   21.0630 O.2    73  GLY73      -0.2863
     25  N         -3.0770   12.6110   28.9520 N.3    81  ARG81      -0.1245
     26  CA        -2.4190   13.9210   28.9240 C.3    81  ARG81       0.1563
     27  C         -2.2050   14.4750   30.3380 C.2    81  ARG81       0.2260
     28  O         -2.8970   14.0780   31.2830 O.2    81  ARG81      -0.2867
     29  CB        -3.2550   14.9080   28.0940 C.3    81  ARG81       0.0307
     30  CG        -3.4920   14.4970   26.6300 C.3    81  ARG81       0.0489
     31  CD        -2.2470   14.6840   25.7750 C.3    81  ARG81       0.2205
     32  NE        -2.4320   14.2470   24.3860 N.pl3  81  ARG81      -0.0865
     33  CZ        -2.1370   13.0340   23.9120 C.cat  81  ARG81       0.5346
     34  NH1       -1.6360   12.0930   24.6940 N.pl3  81  ARG81       0.1354
     35  NH2       -2.3450   12.7580   22.6300 N.pl3  81  ARG81       0.1354
     36  N          6.7120   18.1020   23.3520 N.3   100  ALA100     -0.1231
     37  CA         5.8230   18.4700   22.2560 C.3   100  ALA100      0.1694
     38  C          4.4210   18.5500   22.8450 C.2   100  ALA100      0.2592
     39  O          4.1460   17.9360   23.8810 O.2   100  ALA100     -0.2718
     40  CB         5.8820   17.4450   21.1360 C.3   100  ALA100      0.0304
     41  N          3.5480   19.3260   22.2070 N.am  101  ASN101     -0.1960
     42  CA         2.1680   19.4530   22.6600 C.3   101  ASN101      0.1819
     43  C          1.2280   19.8980   21.5380 C.2   101  ASN101      0.2621
     44  O          1.6730   20.2290   20.4410 O.2   101  ASN101     -0.2715
     45  CB         2.0720   20.3830   23.8840 C.3   101  ASN101      0.1195
     46  CG         2.4710   21.8220   23.5860 C.2   101  ASN101      0.2630
     47  OD1        2.0420   22.4150   22.5890 O.2   101  ASN101     -0.2716
     48  ND2        3.2690   22.4060   24.4800 N.am  101  ASN101     -0.0877
     49  N         -0.0700   19.8640   21.8170 N.am  102  ALA102     -0.1977
     50  CA        -1.0840   20.3440   20.8840 C.3   102  ALA102      0.1597
     51  C         -1.7910   21.5280   21.5350 C.2   102  ALA102      0.2287
     52  O         -3.0200   21.6450   21.4970 O.2   102  ALA102     -0.2864
     53  CB        -2.0590   19.2370   20.5370 C.3   102  ALA102      0.0319
     54  N         -1.3920   19.8030   27.2020 N.3   106  THR106     -0.1218
     55  CA        -1.6100   18.5920   26.3980 C.3   106  THR106      0.1862
     56  C         -0.3330   17.7460   26.2550 C.2   106  THR106      0.2287
     57  O         -0.0850   17.1390   25.2070 O.2   106  THR106     -0.2866
     58  CB        -2.1530   18.9390   24.9960 C.3   106  THR106      0.1770
     59  OG1       -1.2070   19.7520   24.2910 O.3   106  THR106     -0.2211
     60  CG2       -3.4910   19.6680   25.1000 C.3   106  THR106      0.0375
     61  N          1.8980   14.5510   26.6570 N.3   108  GLY108     -0.1210
     62  CA         1.6700   13.1100   26.7060 C.3   108  GLY108      0.1956
     63  C          2.9970   12.3930   26.8330 C.2   108  GLY108      0.2613
     64  O          3.5290   12.2440   27.9370 O.2   108  GLY108     -0.2717
     65  N          3.5310   11.9560   25.6960 N.am  109  SER109     -0.1938
     66  CA         4.8400   11.3080   25.6410 C.3   109  SER109      0.2055
     67  C          5.7600   11.8880   24.5620 C.2   109  SER109      0.2642
     68  O          6.9640   11.6600   24.6040 O.2   109  SER109     -0.2714
     69  CB         4.6770    9.8080   25.4110 C.3   109  SER109      0.2130
     70  OG         3.8920    9.5500   24.2620 O.3   109  SER109     -0.2179
     71  N          5.2030   12.6220   23.5990 N.am  110  GLN110     -0.1976
     72  CA         6.0080   13.2050   22.5360 C.3   110  GLN110      0.1601
     73  C          6.9270   14.3000   23.0690 C.2   110  GLN110      0.2287
     74  O          6.5430   15.1110   23.9230 O.2   110  GLN110     -0.2864
     75  CB         5.1390   13.7400   21.3970 C.3   110  GLN110      0.0394
     76  CG         4.4390   12.6490   20.6010 C.3   110  GLN110      0.0908
     77  CD         3.6650   13.2070   19.4280 C.2   110  GLN110      0.2608
     78  OE1        4.2350   13.8600   18.5500 O.2   110  GLN110     -0.2717
     79  NE2        2.3560   12.9550   19.4050 N.am  110  GLN110     -0.0878
@<TRIPOS>BOND
     1    20    18    1
     2    10    11    1
     3    19    18    1
     4    11    12    1
     5    18    15    1
     6    14    12   am
     7    14    15    1
     8    12    13    2
     9     4     3    2
    10     1     2    1
    11    15    16    1
    12     8     7    2
    13     5     2    1
    14     5     6    1
    15     3     2    1
    16     7     9   am
    17     7     6    1
    18    16    21   am
    19    16    17    2
    20    21    22    1
    21    78    77    2
    22    79    77   am
    23    77    76    1
    24    22    23    1
    25    44    43    2
    26    53    50    1
    27    76    75    1
    28    23    24    2
    29    50    51    1
    30    50    49    1
    31    40    37    1
    32    75    72    1
    33    52    51    2
    34    43    49   am
    35    43    42    1
    36    41    42    1
    37    41    38   am
    38    37    38    1
    39    37    36    1
    40    72    73    1
    41    72    71    1
    42    47    46    2
    43    35    33    1
    44    42    45    1
    45    38    39    2
    46    73    74    2
    47    46    45    1
    48    46    48   am
    49    71    67   am
    50    33    32    2
    51    33    34    1
    52    70    69    1
    53    59    58    1
    54    32    31    1
    55    67    68    2
    56    67    66    1
    57    58    60    1
    58    58    55    1
    59    57    56    2
    60    69    66    1
    61    66    65    1
    62    65    63   am
    63    31    30    1
    64    56    55    1
    65    55    54    1
    66    30    29    1
    67    61    62    1
    68    62    63    1
    69    63    64    2
    70    29    26    1
    71    26    25    1
    72    26    27    1
    73    27    28    2
