@<TRIPOS>MOLECULE
tmp/3r4bB00.pdb
 112 105 0 0 0
SMALL
GASTEIGER

@<TRIPOS>ATOM
      1  N         21.0860   34.2570   27.6650 N.3     8  ARG8       -0.1245
      2  CA        21.7950   33.5650   26.5780 C.3     8  ARG8        0.1563
      3  C         22.8980   32.6480   27.1370 C.2     8  ARG8        0.2260
      4  O         23.7140   33.0940   27.9760 O.2     8  ARG8       -0.2867
      5  CB        22.4430   34.5690   25.6180 C.3     8  ARG8        0.0307
      6  CG        21.4760   35.3690   24.7810 C.3     8  ARG8        0.0489
      7  CD        22.2010   36.0450   23.6130 C.3     8  ARG8        0.2205
      8  NE        21.3320   36.9350   22.8390 N.pl3   8  ARG8       -0.0865
      9  CZ        21.4410   37.1760   21.5250 C.cat   8  ARG8        0.5346
     10  NH1       22.3700   36.5610   20.7730 N.pl3   8  ARG8        0.1354
     11  NH2       20.5910   38.0180   20.9440 N.pl3   8  ARG8        0.1354
     12  N         28.0910   31.3900   21.9380 N.3    23  LEU23      -0.1245
     13  CA        26.7480   30.9690   22.2780 C.3    23  LEU23       0.1561
     14  C         26.6120   29.4590   22.0640 C.2    23  LEU23       0.2260
     15  O         26.8820   28.9500   20.9620 O.2    23  LEU23      -0.2867
     16  CB        25.7840   31.7590   21.3830 C.3    23  LEU23       0.0270
     17  CG        24.2800   31.6910   21.5520 C.3    23  LEU23       0.0019
     18  CD1       23.9060   32.1180   22.9520 C.3    23  LEU23       0.0001
     19  CD2       23.6240   32.5780   20.4700 C.3    23  LEU23       0.0001
     20  N         24.6320   26.6720   21.0350 N.3    25  ASP25      -0.1239
     21  CA        23.5150   26.8050   20.1140 C.3    25  ASP25       0.1674
     22  C         23.0470   25.4640   19.5530 C.2    25  ASP25       0.2266
     23  O         23.5560   24.9840   18.5310 O.2    25  ASP25      -0.2867
     24  CB        23.9190   27.7630   18.9800 C.3    25  ASP25       0.1410
     25  CG        22.7490   28.1700   18.1120 C.2    25  ASP25       0.3668
     26  OD1       21.6270   27.6280   18.2740 O.co2  25  ASP25      -0.2456
     27  OD2       22.9640   29.0390   17.2580 O.co2  25  ASP25      -0.2456
     28  N         20.3530   24.8500   18.0080 N.3    27  GLY27      -0.1210
     29  CA        19.7240   25.0400   16.7020 C.3    27  GLY27       0.1956
     30  C         20.7170   25.2080   15.5500 C.2    27  GLY27       0.2612
     31  O         20.3040   25.3050   14.4000 O.2    27  GLY27      -0.2717
     32  N         22.0070   25.2710   15.8630 N.am   28  ALA28      -0.1965
     33  CA        23.0740   25.3150   14.8520 C.3    28  ALA28       0.1728
     34  C         23.6670   23.9140   14.5970 C.2    28  ALA28       0.2616
     35  O         24.1540   23.2530   15.5290 O.2    28  ALA28      -0.2715
     36  CB        24.1880   26.3170   15.2840 C.3    28  ALA28       0.0334
     37  N         23.6230   23.4570   13.3450 N.am   29  ASP29      -0.1957
     38  CA        24.2950   22.1950   12.9700 C.3    29  ASP29       0.1840
     39  C         25.8060   22.3640   13.1120 C.2    29  ASP29       0.2622
     40  O         26.5100   21.4640   13.6050 O.2    29  ASP29      -0.2715
     41  CB        24.0240   21.7830   11.5140 C.3    29  ASP29       0.1450
     42  CG        22.5580   21.5110   11.2160 C.2    29  ASP29       0.3671
     43  OD1       21.7520   21.2780   12.1360 O.co2  29  ASP29      -0.2456
     44  OD2       22.2090   21.5200   10.0240 O.co2  29  ASP29      -0.2456
     45  N         26.2920   23.5220   12.6640 N.am   30  ASP30      -0.1971
     46  CA        27.7210   23.8090   12.5630 C.3    30  ASP30       0.1709
     47  C         28.1520   24.9150   13.5200 C.2    30  ASP30       0.2293
     48  O         27.3310   25.7100   13.9920 O.2    30  ASP30      -0.2864
     49  CB        28.0680   24.2370   11.1300 C.3    30  ASP30       0.1436
     50  CG        27.4190   23.3550   10.0790 C.2    30  ASP30       0.3671
     51  OD1       27.6450   22.1300   10.0980 O.co2  30  ASP30      -0.2456
     52  OD2       26.6890   23.9000    9.2230 O.co2  30  ASP30      -0.2456
     53  N         30.0420   28.3370   13.9220 N.3    32  VAL32      -0.1245
     54  CA        30.3250   29.5160   13.0880 C.3    32  VAL32       0.1561
     55  C         30.8660   30.6480   13.9700 C.2    32  VAL32       0.2260
     56  O         30.1700   31.1240   14.8800 O.2    32  VAL32      -0.2867
     57  CB        29.0620   30.0350   12.3280 C.3    32  VAL32       0.0252
     58  CG1       29.4900   31.0000   11.2070 C.3    32  VAL32       0.0019
     59  CG2       28.2610   28.8830   11.7690 C.3    32  VAL32       0.0019
     60  N         26.5910   28.7600    4.0270 N.3    47  ILE47      -0.1231
     61  CA        25.5750   28.2500    4.9520 C.3    47  ILE47       0.1692
     62  C         24.3890   29.2120    5.0510 C.2    47  ILE47       0.2593
     63  O         24.5370   30.4180    4.8790 O.2    47  ILE47      -0.2718
     64  CB        26.1370   27.9510    6.3790 C.3    47  ILE47       0.0266
     65  CG1       26.7250   29.2070    7.0410 C.3    47  ILE47       0.0019
     66  CG2       27.1760   26.8280    6.3370 C.3    47  ILE47       0.0020
     67  CD1       27.1160   28.9910    8.5120 C.3    47  ILE47       0.0001
     68  N         23.2200   28.6490    5.3400 N.am   48  GLY48      -0.1942
     69  CA        21.9750   29.4000    5.4080 C.3    48  GLY48       0.2014
     70  C         21.4230   29.4470    6.8200 C.2    48  GLY48       0.2639
     71  O         21.4630   28.4600    7.5390 O.2    48  GLY48      -0.2714
     72  N         20.8830   30.5980    7.1940 N.am   49  GLY49      -0.1939
     73  CA        20.1620   30.7460    8.4440 C.3    49  GLY49       0.2014
     74  C         18.8550   31.4620    8.2220 C.2    49  GLY49       0.2638
     75  O         18.3280   31.4930    7.0930 O.2    49  GLY49      -0.2714
     76  N         18.3160   32.0450    9.2920 N.am   50  ILE50      -0.1977
     77  CA        17.2980   33.0790    9.1560 C.3    50  ILE50       0.1596
     78  C         17.9710   34.2770    8.5040 C.2    50  ILE50       0.2287
     79  O         19.0760   34.6790    8.8830 O.2    50  ILE50      -0.2864
     80  CB        16.6730   33.4970   10.5150 C.3    50  ILE50       0.0276
     81  CG1       15.4360   32.6470   10.8170 C.3    50  ILE50       0.0022
     82  CG2       16.2730   34.9730   10.4900 C.3    50  ILE50       0.0022
     83  CD1       14.7520   32.9780   12.1400 C.3    50  ILE50       0.0001
     84  N         28.7570   35.8470   10.8280 N.3    80  THR80      -0.1204
     85  CA        27.7420   35.5330   11.8180 C.3    80  THR80       0.1979
     86  C         27.5850   36.7170   12.7800 C.2    80  THR80       0.2460
     87  O         28.5650   37.3740   13.1290 O.2    80  THR80      -0.2732
     88  CB        28.1080   34.2490   12.5990 C.3    80  THR80       0.1783
     89  OG1       27.0890   33.9530   13.5600 O.3    80  THR80      -0.2211
     90  CG2       29.4690   34.3730   13.2810 C.3    80  THR80       0.0376
     91  N         26.3530   37.0030   13.2030 N.am   81  PRO81      -0.2717
     92  CA        26.1760   38.0700   14.1930 C.3    81  PRO81       0.1535
     93  C         26.7890   37.7860   15.5660 C.2    81  PRO81       0.2598
     94  O         27.0530   38.7240   16.3190 O.2    81  PRO81      -0.2715
     95  CB        24.6560   38.1850   14.3210 C.3    81  PRO81       0.0310
     96  CG        24.1160   37.5430   13.0940 C.3    81  PRO81       0.0237
     97  CD        25.0640   36.4400   12.7760 C.3    81  PRO81       0.0939
     98  N         26.9680   36.5080   15.9030 N.am   82  VAL82      -0.1978
     99  CA        27.5750   36.1020   17.1820 C.3    82  VAL82       0.1596
    100  C         28.3590   34.8140   16.9610 C.2    82  VAL82       0.2287
    101  O         28.0030   34.0160   16.0870 O.2    82  VAL82      -0.2864
    102  CB        26.5080   35.8830   18.3010 C.3    82  VAL82       0.0276
    103  CG1       25.5120   34.8100   17.9100 C.3    82  VAL82       0.0022
    104  CG2       27.1750   35.5090   19.6220 C.3    82  VAL82       0.0022
    105  N         28.9810   31.1560   17.4480 N.3    84  ILE84      -0.1245
    106  CA        28.0430   30.1030   17.8110 C.3    84  ILE84       0.1561
    107  C         28.7390   28.7390   17.8420 C.2    84  ILE84       0.2260
    108  O         29.4860   28.3860   16.9290 O.2    84  ILE84      -0.2867
    109  CB        26.7490   30.0870   16.9120 C.3    84  ILE84       0.0252
    110  CG1       27.0450   29.7100   15.4690 C.3    84  ILE84       0.0019
    111  CG2       25.9910   31.4400   16.9730 C.3    84  ILE84       0.0019
    112  CD1       25.8240   29.9010   14.5380 C.3    84  ILE84       0.0001
@<TRIPOS>BOND
     1    60    61    1
     2    63    62    2
     3    61    62    1
     4    61    64    1
     5    62    68   am
     6    68    69    1
     7    69    70    1
     8    66    64    1
     9    64    65    1
    10    70    72   am
    11    70    71    2
    12    65    67    1
    13    75    74    2
    14    72    73    1
    15    74    73    1
    16    74    76   am
    17    78    79    2
    18    78    77    1
    19    77    76    1
    20    77    80    1
    21    52    50   ar
    22    44    42   ar
    23    50    51   ar
    24    50    49    1
    25    82    80    1
    26    80    81    1
    27    81    83    1
    28    84    85    1
    29    49    46    1
    30    58    57    1
    31    42    41    1
    32    42    43   ar
    33    41    38    1
    34    59    57    1
    35    85    88    1
    36    85    86    1
    37    57    54    1
    38    46    45    1
    39    46    47    1
    40    88    90    1
    41    88    89    1
    42    45    39   am
    43    97    96    1
    44    97    91    1
    45    86    87    2
    46    86    91   am
    47    38    39    1
    48    38    37    1
    49    54    53    1
    50    54    55    1
    51    96    95    1
    52    39    40    2
    53    91    92    1
    54    37    34   am
    55    47    48    2
    56    55    56    2
    57    92    95    1
    58    92    93    1
    59    31    30    2
    60   112   110    1
    61    34    33    1
    62    34    35    2
    63    33    36    1
    64    33    32    1
    65   110   109    1
    66    30    32   am
    67    30    29    1
    68    93    98   am
    69    93    94    2
    70    98    99    1
    71   101   100    2
    72    29    28    1
    73   109   111    1
    74   109   106    1
    75   108   107    2
    76   100    99    1
    77    99   102    1
    78    27    25   ar
    79   105   106    1
    80   106   107    1
    81   103   102    1
    82    25    26   ar
    83    25    24    1
    84   102   104    1
    85    23    22    2
    86    24    21    1
    87    22    21    1
    88    21    20    1
    89    19    17    1
    90    10     9    1
    91    11     9    1
    92    15    14    2
    93    16    17    1
    94    16    13    1
    95     9     8    2
    96    17    18    1
    97    12    13    1
    98    14    13    1
    99     8     7    1
   100     7     6    1
   101     6     5    1
   102     5     2    1
   103     2     3    1
   104     2     1    1
   105     3     4    2
