@<TRIPOS>MOLECULE
tmp/3r4lA01.pdb
 103 95 0 0 0
SMALL
GASTEIGER

@<TRIPOS>ATOM
      1  N        -12.6910   -4.6010    9.6220 N.3   174  LYS174     -0.1245
      2  CA       -13.0270   -3.3860    8.9410 C.3   174  LYS174      0.1561
      3  C        -11.8220   -2.4360    9.1200 C.2   174  LYS174      0.2260
      4  O        -11.1720   -2.0810    8.1400 O.2   174  LYS174     -0.2867
      5  CB       -14.2950   -2.8110    9.5060 C.3   174  LYS174      0.0271
      6  CG       -14.5630   -1.4210    9.0170 C.3   174  LYS174      0.0035
      7  CD       -16.0120   -1.2760    8.7140 C.3   174  LYS174      0.0206
      8  CE       -16.3480    0.1630    8.5540 C.3   174  LYS174      0.1093
      9  NZ       -17.3150    0.2630    7.4440 N.3   174  LYS174     -0.1314
     10  N        -13.4440    5.2310   16.9060 N.3   205  LYS205     -0.1231
     11  CA       -14.8410    5.3180   17.3490 C.3   205  LYS205      0.1693
     12  C        -15.5440    3.9220   17.3390 C.2   205  LYS205      0.2592
     13  O        -15.9290    3.4310   16.2760 O.2   205  LYS205     -0.2718
     14  CB       -15.6140    6.3400   16.4880 C.3   205  LYS205      0.0285
     15  CG       -15.1750    7.7840   16.6750 C.3   205  LYS205      0.0035
     16  CD       -16.2140    8.7480   16.1730 C.3   205  LYS205      0.0206
     17  CE       -16.6940    9.6320   17.3180 C.3   205  LYS205      0.1093
     18  NZ       -18.1510   10.0140   17.1860 N.3   205  LYS205     -0.1314
     19  N        -15.7100    3.2820   18.5030 N.am  206  PHE206     -0.1962
     20  CA       -16.4030    1.9760   18.5460 C.3   206  PHE206      0.1771
     21  C        -17.8750    2.1130   18.9460 C.2   206  PHE206      0.2619
     22  O        -18.2560    3.0590   19.6490 O.2   206  PHE206     -0.2715
     23  CB       -15.7230    0.9770   19.5020 C.3   206  PHE206      0.0574
     24  CG       -14.2230    0.8280   19.3020 C.ar  206  PHE206     -0.0200
     25  CD1      -13.7080   -0.2120   18.5480 C.ar  206  PHE206     -0.0042
     26  CD2      -13.3150    1.7280   19.9030 C.ar  206  PHE206     -0.0042
     27  CE1      -12.3080   -0.3600   18.3790 C.ar  206  PHE206     -0.0003
     28  CE2      -11.9110    1.5930   19.7420 C.ar  206  PHE206     -0.0003
     29  CZ       -11.4080    0.5510   18.9780 C.ar  206  PHE206     -0.0000
     30  N        -18.7040    1.1710   18.4940 N.am  207  ASN207     -0.1972
     31  CA       -20.0110    0.9580   19.1160 C.3   207  ASN207      0.1688
     32  C        -19.7970    0.3350   20.4860 C.2   207  ASN207      0.2292
     33  O        -19.0710   -0.6710   20.6100 O.2   207  ASN207     -0.2864
     34  CB       -20.8930    0.0430   18.2700 C.3   207  ASN207      0.1181
     35  CG       -21.7730    0.8060   17.3070 C.2   207  ASN207      0.2629
     36  OD1      -22.2290    1.9230   17.6030 O.2   207  ASN207     -0.2716
     37  ND2      -22.0250    0.1980   16.1380 N.am  207  ASN207     -0.0877
     38  N        -18.2520   -3.7900   20.2580 N.3   223  GLU223     -0.1245
     39  CA       -18.3400   -4.2980   18.8770 C.3   223  GLU223      0.1567
     40  C        -17.1470   -3.9630   17.9850 C.2   223  GLU223      0.2260
     41  O        -16.8820   -2.7740   17.7320 O.2   223  GLU223     -0.2867
     42  CB       -19.6030   -3.7600   18.1600 C.3   223  GLU223      0.0388
     43  CG       -19.8060   -4.3430   16.7360 C.3   223  GLU223      0.1160
     44  CD       -21.0450   -3.8500   16.0090 C.2   223  GLU223      0.3649
     45  OE1      -21.5110   -2.7370   16.2970 O.co2 223  GLU223     -0.2457
     46  OE2      -21.5580   -4.5610   15.1160 O.co2 223  GLU223     -0.2457
     47  N        -16.1880   -4.3530   14.0140 N.3   225  PRO225     -0.2116
     48  CA       -16.5850   -4.7240   12.6510 C.3   225  PRO225      0.1372
     49  C        -15.4840   -5.4480   11.8920 C.2   225  PRO225      0.2244
     50  O        -14.2820   -5.2060   12.0950 O.2   225  PRO225     -0.2868
     51  CB       -16.8460   -3.3780   11.9710 C.3   225  PRO225      0.0268
     52  CG       -16.9040   -2.3900   13.0200 C.3   225  PRO225      0.0207
     53  CD       -16.1020   -2.8920   14.1640 C.3   225  PRO225      0.0892
     54  N        -18.7200   -5.2700    6.7260 N.3   229  ASP229     -0.1239
     55  CA       -19.7390   -5.2840    7.7850 C.3   229  ASP229      0.1674
     56  C        -20.6960   -6.4970    7.8490 C.2   229  ASP229      0.2266
     57  O        -21.7560   -6.4350    8.4650 O.2   229  ASP229     -0.2867
     58  CB       -20.5030   -3.9520    7.7590 C.3   229  ASP229      0.1410
     59  CG       -19.5840   -2.7570    8.0130 C.2   229  ASP229      0.3668
     60  OD1      -18.7640   -2.4270    7.1240 O.co2 229  ASP229     -0.2456
     61  OD2      -19.6640   -2.1680    9.1140 O.co2 229  ASP229     -0.2456
     62  N        -19.4060   -9.0820   12.7880 N.3   232  SER232     -0.1217
     63  CA       -18.7600   -8.2990   13.8370 C.3   232  SER232      0.1889
     64  C        -18.3240   -9.2130   14.9810 C.2   232  SER232      0.2288
     65  O        -18.9210  -10.2680   15.2160 O.2   232  SER232     -0.2866
     66  CB       -19.7260   -7.2370   14.3640 C.3   232  SER232      0.2089
     67  OG       -19.9610   -6.2410   13.3800 O.3   232  SER232     -0.2183
     68  N        -26.2700   -5.1060   21.3340 N.3   261  LYS261     -0.1245
     69  CA       -26.1620   -4.3470   20.0960 C.3   261  LYS261      0.1561
     70  C        -27.2310   -3.2390   20.0670 C.2   261  LYS261      0.2260
     71  O        -26.8700   -2.0660   19.9780 O.2   261  LYS261     -0.2867
     72  CB       -26.1340   -5.2430   18.8370 C.3   261  LYS261      0.0271
     73  CG       -27.0340   -4.7660   17.7120 C.3   261  LYS261      0.0035
     74  CD       -26.3590   -4.5150   16.3690 C.3   261  LYS261      0.0206
     75  CE       -27.4340   -3.9420   15.3890 C.3   261  LYS261      0.1093
     76  NZ       -27.2360   -4.2050   13.9170 N.3   261  LYS261     -0.1314
     77  N        -26.3570   -0.0400   21.6670 N.3   264  MET264     -0.1245
     78  CA       -25.0360    0.5610   21.4430 C.3   264  MET264      0.1570
     79  C        -24.9480    1.9580   20.8310 C.2   264  MET264      0.2261
     80  O        -25.8760    2.4420   20.1860 O.2   264  MET264     -0.2867
     81  CB       -24.1530   -0.3850   20.6700 C.3   264  MET264      0.0387
     82  CG       -23.3470   -1.2370   21.5890 C.3   264  MET264      0.0595
     83  SD       -22.5260   -2.3720   20.5180 S.3   264  MET264     -0.1393
     84  CE       -21.5040   -3.2810   21.6810 C.3   264  MET264      0.0692
     85  N        -21.8640    4.8740   19.2450 N.3   266  ARG266     -0.1245
     86  CA       -20.4870    5.0000   18.7430 C.3   266  ARG266      0.1563
     87  C        -19.7650    5.9820   19.6450 C.2   266  ARG266      0.2260
     88  O        -20.3100    7.0230   19.9670 O.2   266  ARG266     -0.2867
     89  CB       -20.5020    5.4810   17.2960 C.3   266  ARG266      0.0307
     90  CG       -19.3640    4.9990   16.4330 C.3   266  ARG266      0.0489
     91  CD       -19.2170    5.9630   15.2590 C.3   266  ARG266      0.2205
     92  NE       -18.1200    5.6110   14.3610 N.pl3 266  ARG266     -0.0865
     93  CZ       -18.2850    5.0610   13.1620 C.cat 266  ARG266      0.5346
     94  NH1      -19.5100    4.8000   12.7090 N.pl3 266  ARG266      0.1354
     95  NH2      -17.2250    4.7680   12.4130 N.pl3 266  ARG266      0.1354
     96  N        -24.2530  -10.3680   10.8570 N.3   363  ASN363     -0.1240
     97  CA       -25.1150   -9.2480   11.2250 C.3   363  ASN363      0.1653
     98  C        -26.5190   -9.1910   10.6210 C.2   363  ASN363      0.2266
     99  O        -27.4870   -8.9950   11.3480 O.2   363  ASN363     -0.2867
    100  CB       -24.3620   -7.9310   11.1410 C.3   363  ASN363      0.1155
    101  CG       -23.4480   -7.7170   12.3610 C.2   363  ASN363      0.2627
    102  OD1      -23.8810   -7.8500   13.5150 O.2   363  ASN363     -0.2716
    103  ND2      -22.1810   -7.3880   12.1040 N.am  363  ASN363     -0.0877
@<TRIPOS>BOND
     1    54    55    1
     2    60    59   ar
     3     9     8    1
     4    58    55    1
     5    58    59    1
     6    55    56    1
     7    56    57    2
     8    59    61   ar
     9     4     3    2
    10     8     7    1
    11     7     6    1
    12     2     3    1
    13     2     5    1
    14     2     1    1
    15     6     5    1
    16    98    97    1
    17    98    99    2
    18    96    97    1
    19   100    97    1
    20   100   101    1
    21    49    50    2
    22    49    48    1
    23    51    48    1
    24    51    52    1
    25   103   101   am
    26   101   102    2
    27    95    93    1
    28    48    47    1
    29    94    93    1
    30    62    63    1
    31    52    53    1
    32    93    92    2
    33    67    66    1
    34    63    66    1
    35    63    64    1
    36    76    75    1
    37    47    53    1
    38    92    91    1
    39    64    65    2
    40    46    44   ar
    41    91    90    1
    42    75    74    1
    43    44    45   ar
    44    44    43    1
    45    37    35   am
    46    16    15    1
    47    16    17    1
    48    13    12    2
    49    74    73    1
    50    90    89    1
    51    14    15    1
    52    14    11    1
    53    43    42    1
    54    10    11    1
    55    18    17    1
    56    89    86    1
    57    35    36    2
    58    35    34    1
    59    12    11    1
    60    12    19   am
    61    73    72    1
    62    41    40    2
    63    40    39    1
    64    42    39    1
    65    34    31    1
    66    27    25   ar
    67    27    29   ar
    68    30    21   am
    69    30    31    1
    70    19    20    1
    71    20    21    1
    72    20    23    1
    73    25    24   ar
    74    86    85    1
    75    86    87    1
    76    72    69    1
    77    39    38    1
    78    21    22    2
    79    29    28   ar
    80    31    32    1
    81    24    23    1
    82    24    26   ar
    83    87    88    2
    84    28    26   ar
    85    71    70    2
    86    70    69    1
    87    69    68    1
    88    80    79    2
    89    32    33    2
    90    83    82    1
    91    83    84    1
    92    81    78    1
    93    81    82    1
    94    79    78    1
    95    78    77    1
