@<TRIPOS>MOLECULE
tmp/3r4nB00.pdb
 136 126 0 0 0
SMALL
GASTEIGER

@<TRIPOS>ATOM
      1  N         15.0240   47.4270   41.9350 N.3    40  LEU40      -0.1245
      2  CA        15.2440   46.4460   40.8770 C.3    40  LEU40       0.1561
      3  C         16.7240   46.0920   40.7500 C.2    40  LEU40       0.2260
      4  O         17.0750   44.9260   40.5830 O.2    40  LEU40      -0.2867
      5  CB        14.7100   46.9750   39.5390 C.3    40  LEU40       0.0270
      6  CG        13.1890   47.1830   39.4970 C.3    40  LEU40       0.0019
      7  CD1       12.7660   47.7440   38.1360 C.3    40  LEU40       0.0001
      8  CD2       12.4900   45.8560   39.7690 C.3    40  LEU40       0.0001
      9  N         17.6430   43.7840   43.5530 N.3    43  ASN43      -0.1225
     10  CA        17.2610   42.4100   43.2400 C.3    43  ASN43       0.1785
     11  C         18.2590   41.7710   42.2780 C.2    43  ASN43       0.2597
     12  O         18.6730   40.6280   42.4720 O.2    43  ASN43      -0.2718
     13  CB        15.8580   42.3680   42.6320 C.3    43  ASN43       0.1169
     14  CG        14.7640   42.5620   43.6700 C.2    43  ASN43       0.2627
     15  OD1       15.0150   42.5050   44.8780 O.2    43  ASN43      -0.2716
     16  ND2       13.5440   42.7900   43.2030 N.am   43  ASN43      -0.0877
     17  N         18.6520   42.5180   41.2490 N.am   44  SER44      -0.1952
     18  CA        19.6440   42.0310   40.2930 C.3    44  SER44       0.1924
     19  C         20.9590   41.6870   40.9870 C.2    44  SER44       0.2314
     20  O         21.5500   40.6300   40.7440 O.2    44  SER44      -0.2863
     21  CB        19.8860   43.0860   39.2040 C.3    44  SER44       0.2116
     22  OG        18.7450   43.2130   38.3680 O.3    44  SER44      -0.2180
     23  N         21.4410   40.8770   44.1080 N.3    46  ASP46      -0.1225
     24  CA        21.2450   39.6610   44.8930 C.3    46  ASP46       0.1805
     25  C         21.2580   38.4300   43.9950 C.2    46  ASP46       0.2597
     26  O         21.8110   37.3920   44.3600 O.2    46  ASP46      -0.2718
     27  CB        19.9130   39.7120   45.6490 C.3    46  ASP46       0.1424
     28  CG        19.9060   40.7450   46.7570 C.2    46  ASP46       0.3668
     29  OD1       20.9840   41.2920   47.0770 O.co2  46  ASP46      -0.2456
     30  OD2       18.8170   41.0050   47.3040 O.co2  46  ASP46      -0.2456
     31  N         20.6460   38.5500   42.8180 N.am   47  ALA47      -0.1979
     32  CA        20.5970   37.4330   41.8700 C.3    47  ALA47       0.1597
     33  C         21.9900   37.0780   41.3560 C.2    47  ALA47       0.2287
     34  O         22.3170   35.8980   41.1810 O.2    47  ALA47      -0.2864
     35  CB        19.6780   37.7810   40.6980 C.3    47  ALA47       0.0319
     36  N         23.9130   35.2930   44.0650 N.3    50  LYS50      -0.1245
     37  CA        23.5200   33.8960   44.1940 C.3    50  LYS50       0.1561
     38  C         24.2460   33.0090   43.1930 C.2    50  LYS50       0.2260
     39  O         24.7940   31.9710   43.5670 O.2    50  LYS50      -0.2867
     40  CB        22.0120   33.7300   44.0070 C.3    50  LYS50       0.0271
     41  CG        21.1740   34.2960   45.1300 C.3    50  LYS50       0.0035
     42  CD        19.9490   33.4290   45.3810 C.3    50  LYS50       0.0206
     43  CE        19.7440   33.2130   46.8730 C.3    50  LYS50       0.1093
     44  NZ        21.0430   32.9370   47.5580 N.3    50  LYS50      -0.1314
     45  N         19.9370   41.5810   33.9680 N.3    85  ASP85      -0.1239
     46  CA        21.1030   41.0700   34.6830 C.3    85  ASP85       0.1674
     47  C         21.4350   39.6580   34.2280 C.2    85  ASP85       0.2266
     48  O         20.5940   38.9650   33.6590 O.2    85  ASP85      -0.2867
     49  CB        20.8630   41.0970   36.2010 C.3    85  ASP85       0.1410
     50  CG        19.7330   40.1650   36.6420 C.2    85  ASP85       0.3668
     51  OD1       19.8750   38.9370   36.5040 O.co2  85  ASP85      -0.2456
     52  OD2       18.7040   40.6660   37.1360 O.co2  85  ASP85      -0.2456
     53  N         21.1550   34.6630   38.6720 N.3    88  ILE88      -0.1231
     54  CA        20.7900   33.2510   38.7280 C.3    88  ILE88       0.1692
     55  C         19.5180   32.9150   37.9440 C.2    88  ILE88       0.2593
     56  O         19.3420   31.7860   37.4940 O.2    88  ILE88      -0.2718
     57  CB        20.6120   32.7840   40.1930 C.3    88  ILE88       0.0266
     58  CG1       20.3400   31.2780   40.2310 C.3    88  ILE88       0.0019
     59  CG2       19.4620   33.5370   40.8440 C.3    88  ILE88       0.0020
     60  CD1       20.7490   30.6220   41.5380 C.3    88  ILE88       0.0001
     61  N         18.6390   33.8950   37.7670 N.am   89  GLY89      -0.1942
     62  CA        17.4040   33.6300   37.0520 C.3    89  GLY89       0.2014
     63  C         16.3940   32.8740   37.9020 C.2    89  GLY89       0.2638
     64  O         16.6700   32.5380   39.0580 O.2    89  GLY89      -0.2714
     65  N         15.2250   32.6020   37.3260 N.am   90  MET90      -0.1976
     66  CA        14.1330   31.9420   38.0430 C.3    90  MET90       0.1605
     67  C         13.5660   30.7480   37.2840 C.2    90  MET90       0.2287
     68  O         13.4020   30.7960   36.0630 O.2    90  MET90      -0.2864
     69  CB        12.9990   32.9390   38.3160 C.3    90  MET90       0.0413
     70  CG        13.2670   33.8860   39.4720 C.3    90  MET90       0.0598
     71  SD        11.9620   35.1110   39.6700 S.3    90  MET90      -0.1393
     72  CE        12.4040   36.2990   38.3840 C.3    90  MET90       0.0692
     73  N          7.1860   33.5720   43.8310 N.3    98  ASN98      -0.1225
     74  CA         7.8240   34.7920   44.3080 C.3    98  ASN98       0.1785
     75  C          7.2740   36.0730   43.6830 C.2    98  ASN98       0.2597
     76  O          7.5060   37.1640   44.2040 O.2    98  ASN98      -0.2718
     77  CB         9.3370   34.7120   44.0770 C.3    98  ASN98       0.1169
     78  CG         9.9650   33.4980   44.7440 C.2    98  ASN98       0.2627
     79  OD1        9.3270   32.8160   45.5490 O.2    98  ASN98      -0.2716
     80  ND2       11.2190   33.2230   44.4110 N.am   98  ASN98      -0.0877
     81  N          6.5540   35.9500   42.5710 N.am   99  LEU99      -0.1980
     82  CA         5.9330   37.1210   41.9520 C.3    99  LEU99       0.1596
     83  C          4.4050   37.1200   41.9660 C.2    99  LEU99       0.2287
     84  O          3.7750   37.3810   40.9360 O.2    99  LEU99      -0.2864
     85  CB         6.4120   37.2880   40.5060 C.3    99  LEU99       0.0297
     86  CG         7.7820   37.9410   40.3070 C.3    99  LEU99       0.0022
     87  CD1        8.8750   36.9860   40.7760 C.3    99  LEU99       0.0001
     88  CD2        7.9710   38.3030   38.8340 C.3    99  LEU99       0.0001
     89  N         10.4990   43.0890   51.5960 N.3   127  GLY127     -0.1225
     90  CA        10.6170   41.9850   50.6640 C.3   127  GLY127      0.1811
     91  C          9.7200   42.1100   49.4500 C.2   127  GLY127      0.2280
     92  O          9.6040   41.1700   48.6650 O.2   127  GLY127     -0.2866
     93  N         10.1600   44.8880   44.4440 N.3   130  PHE130     -0.1227
     94  CA         9.8740   44.7500   43.0180 C.3   130  PHE130      0.1736
     95  C          8.6140   45.5160   42.6370 C.2   130  PHE130      0.2595
     96  O          8.5310   46.0920   41.5570 O.2   130  PHE130     -0.2718
     97  CB         9.6970   43.2730   42.6550 C.3   130  PHE130      0.0547
     98  CG         9.0360   43.0480   41.3200 C.ar  130  PHE130     -0.0202
     99  CD1        9.7780   43.0710   40.1500 C.ar  130  PHE130     -0.0042
    100  CD2        7.6760   42.7970   41.2380 C.ar  130  PHE130     -0.0042
    101  CE1        9.1770   42.8450   38.9240 C.ar  130  PHE130     -0.0003
    102  CE2        7.0660   42.5700   40.0150 C.ar  130  PHE130     -0.0003
    103  CZ         7.8180   42.5940   38.8570 C.ar  130  PHE130     -0.0000
    104  N          7.6310   45.5250   43.5280 N.am  131  TYR131     -0.1976
    105  CA         6.3290   46.0820   43.1860 C.3   131  TYR131      0.1639
    106  C          6.3340   47.6010   43.1050 C.2   131  TYR131      0.2290
    107  O          5.3740   48.2000   42.6220 O.2   131  TYR131     -0.2864
    108  CB         5.2750   45.6060   44.1870 C.3   131  TYR131      0.0560
    109  CG         5.0390   44.1170   44.1070 C.ar  131  TYR131     -0.0198
    110  CD1        4.3220   43.5620   43.0520 C.ar  131  TYR131     -0.0009
    111  CD2        5.5760   43.2610   45.0540 C.ar  131  TYR131     -0.0009
    112  CE1        4.1560   42.1910   42.9450 C.ar  131  TYR131      0.0417
    113  CE2        5.4170   41.8920   44.9540 C.ar  131  TYR131      0.0417
    114  CZ         4.7100   41.3630   43.9010 C.ar  131  TYR131      0.1957
    115  OH         4.5710   39.9970   43.8010 O.3   131  TYR131     -0.2866
    116  N          8.4560   40.4090   32.9020 N.3   142  VAL142     -0.1245
    117  CA         9.7160   39.8500   33.3820 C.3   142  VAL142      0.1561
    118  C         10.0850   38.6230   32.5560 C.2   142  VAL142      0.2260
    119  O          9.3400   37.6420   32.5140 O.2   142  VAL142     -0.2867
    120  CB         9.6300   39.4490   34.8840 C.3   142  VAL142      0.0252
    121  CG1       10.9520   38.8330   35.3360 C.3   142  VAL142      0.0019
    122  CG2        9.2960   40.6760   35.7440 C.3   142  VAL142      0.0019
    123  N         17.7790   37.5980   34.4090 N.3   176  THR176     -0.1218
    124  CA        16.4370   38.1520   34.4640 C.3   176  THR176      0.1862
    125  C         16.3880   39.5180   33.8010 C.2   176  THR176      0.2287
    126  O         17.3050   40.3360   33.9410 O.2   176  THR176     -0.2866
    127  CB        15.9520   38.2650   35.9280 C.3   176  THR176      0.1770
    128  OG1       15.8980   36.9550   36.5010 O.3   176  THR176     -0.2211
    129  CG2       14.5590   38.8940   35.9980 C.3   176  THR176      0.0375
    130  N         13.7360   42.7400   33.3760 N.3   178  VAL178     -0.1245
    131  CA        12.4980   43.3820   33.7890 C.3   178  VAL178      0.1561
    132  C         12.2150   44.5330   32.8340 C.2   178  VAL178      0.2260
    133  O         13.0000   45.4810   32.7440 O.2   178  VAL178     -0.2867
    134  CB        12.6160   43.9270   35.2340 C.3   178  VAL178      0.0252
    135  CG1       11.3160   44.6290   35.6370 C.3   178  VAL178      0.0019
    136  CG2       12.9440   42.7780   36.1980 C.3   178  VAL178      0.0019
@<TRIPOS>BOND
     1   119   118    2
     2   118   117    1
     3   133   132    2
     4   132   131    1
     5   116   117    1
     6   130   131    1
     7   117   120    1
     8    48    47    2
     9   131   134    1
    10   125   126    2
    11   125   124    1
    12    45    46    1
    13    47    46    1
    14   123   124    1
    15   124   127    1
    16    46    49    1
    17   120   121    1
    18   120   122    1
    19   134   135    1
    20   134   136    1
    21   127   129    1
    22   127   128    1
    23    68    67    2
    24    49    50    1
    25    51    50   ar
    26    50    52   ar
    27    62    61    1
    28    62    63    1
    29    67    66    1
    30    65    63   am
    31    65    66    1
    32    56    55    2
    33    61    55   am
    34    63    64    2
    35    55    54    1
    36    66    69    1
    37     7     6    1
    38    69    70    1
    39    22    21    1
    40    72    71    1
    41    53    54    1
    42    54    57    1
    43    88    86    1
    44   103   101   ar
    45   103   102   ar
    46   101    99   ar
    47    21    18    1
    48    70    71    1
    49     6     5    1
    50     6     8    1
    51     5     2    1
    52   102   100   ar
    53    99    98   ar
    54    57    58    1
    55    57    59    1
    56    58    60    1
    57    18    19    1
    58    18    17    1
    59    86    85    1
    60    86    87    1
    61    85    82    1
    62     4     3    2
    63    35    32    1
    64    20    19    2
    65     3     2    1
    66     2     1    1
    67    84    83    2
    68    34    33    2
    69   100    98   ar
    70    17    11   am
    71    98    97    1
    72    33    32    1
    73    96    95    2
    74    32    31    1
    75    82    83    1
    76    82    81    1
    77    11    12    2
    78    11    10    1
    79    81    75   am
    80   107   106    2
    81    13    10    1
    82    13    14    1
    83    95    94    1
    84    95   104   am
    85    97    94    1
    86    31    25   am
    87   112   110   ar
    88   112   114   ar
    89    94    93    1
    90   110   109   ar
    91   106   105    1
    92   105   104    1
    93   105   108    1
    94    38    39    2
    95    38    37    1
    96    16    14   am
    97    10     9    1
    98    14    15    2
    99    75    76    2
   100    75    74    1
   101   115   114    1
   102    73    74    1
   103   114   113   ar
   104    25    26    2
   105    25    24    1
   106    40    37    1
   107    40    41    1
   108    36    37    1
   109    77    74    1
   110    77    78    1
   111   109   108    1
   112   109   111   ar
   113    23    24    1
   114    80    78   am
   115    78    79    2
   116    24    27    1
   117   113   111   ar
   118    41    42    1
   119    42    43    1
   120    27    28    1
   121    28    29   ar
   122    28    30   ar
   123    43    44    1
   124    92    91    2
   125    91    90    1
   126    90    89    1
