@<TRIPOS>MOLECULE
tmp/3r4oA00.pdb
 166 154 0 0 0
SMALL
GASTEIGER

@<TRIPOS>ATOM
      1  N         11.0730  -32.2010   50.8000 N.3    32  LEU32      -0.1245
      2  CA        10.3140  -31.9730   49.5840 C.3    32  LEU32       0.1561
      3  C         10.5470  -33.1270   48.6010 C.2    32  LEU32       0.2260
      4  O          9.6540  -33.4760   47.8250 O.2    32  LEU32      -0.2867
      5  CB        10.7190  -30.6420   48.9460 C.3    32  LEU32       0.0270
      6  CG        10.4950  -29.3780   49.7770 C.3    32  LEU32       0.0019
      7  CD1       11.1990  -28.2110   49.1330 C.3    32  LEU32       0.0001
      8  CD2        9.0190  -29.1040   49.8940 C.3    32  LEU32       0.0001
      9  N          8.4920  -36.0440   49.7520 N.3    35  ASN35      -0.1225
     10  CA         7.1310  -35.7540   49.3250 C.3    35  ASN35       0.1785
     11  C          6.9440  -36.1460   47.8510 C.2    35  ASN35       0.2597
     12  O          5.9820  -36.8280   47.4960 O.2    35  ASN35      -0.2718
     13  CB         6.8190  -34.2600   49.4960 C.3    35  ASN35       0.1169
     14  CG         6.6140  -33.8500   50.9480 C.2    35  ASN35       0.2627
     15  OD1        6.5820  -34.6810   51.8520 O.2    35  ASN35      -0.2716
     16  ND2        6.4720  -32.5510   51.1700 N.am   35  ASN35      -0.0877
     17  N          7.8670  -35.7110   46.9960 N.am   36  SER36      -0.1952
     18  CA         7.7380  -35.9240   45.5580 C.3    36  SER36       0.1924
     19  C          7.7290  -37.4160   45.2420 C.2    36  SER36       0.2314
     20  O          6.9450  -37.8900   44.4170 O.2    36  SER36      -0.2863
     21  CB         8.8960  -35.2500   44.8140 C.3    36  SER36       0.2116
     22  OG         8.9790  -33.8730   45.1270 O.3    36  SER36      -0.2180
     23  N          6.6840  -39.7580   47.1440 N.3    38  ASP38      -0.1225
     24  CA         5.4430  -40.3570   47.6250 C.3    38  ASP38       0.1805
     25  C          4.3470  -40.0880   46.6190 C.2    38  ASP38       0.2597
     26  O          3.4520  -40.9140   46.4150 O.2    38  ASP38      -0.2718
     27  CB         5.0390  -39.7720   48.9890 C.3    38  ASP38       0.1424
     28  CG         5.8350  -40.3650   50.1480 C.2    38  ASP38       0.3668
     29  OD1        6.7240  -41.2090   49.9060 O.co2  38  ASP38      -0.2456
     30  OD2        5.5720  -39.9870   51.3100 O.co2  38  ASP38      -0.2456
     31  N          4.4210  -38.9180   45.9990 N.am   39  ALA39      -0.1979
     32  CA         3.4460  -38.5240   44.9960 C.3    39  ALA39       0.1597
     33  C          3.6440  -39.4420   43.8100 C.2    39  ALA39       0.2287
     34  O          2.6840  -39.9340   43.2180 O.2    39  ALA39      -0.2864
     35  CB         3.6730  -37.0710   44.5870 C.3    39  ALA39       0.0319
     36  N          2.3020  -42.6100   44.4200 N.3    42  LYS42      -0.1245
     37  CA         0.8470  -42.5980   44.4310 C.3    42  LYS42       0.1561
     38  C          0.2850  -42.7490   43.0310 C.2    42  LYS42       0.2260
     39  O         -0.5210  -43.6430   42.7880 O.2    42  LYS42      -0.2867
     40  CB         0.3210  -41.3090   45.0600 C.3    42  LYS42       0.0271
     41  CG        -1.1420  -41.3890   45.4430 C.3    42  LYS42       0.0035
     42  CD        -1.3430  -41.1000   46.9350 C.3    42  LYS42       0.0206
     43  CE        -0.5840  -42.0910   47.8050 C.3    42  LYS42       0.1093
     44  NZ        -0.6570  -41.7640   49.2550 N.3    42  LYS42      -0.1314
     45  N          8.0290  -32.5620   40.3270 N.3    77  ASP77      -0.1239
     46  CA         7.8220  -33.9840   40.0970 C.3    77  ASP77       0.1674
     47  C          6.6500  -34.1840   39.1600 C.2    77  ASP77       0.2266
     48  O          5.7310  -33.3710   39.1240 O.2    77  ASP77      -0.2867
     49  CB         7.5440  -34.7090   41.4110 C.3    77  ASP77       0.1410
     50  CG         6.2860  -34.2200   42.0810 C.2    77  ASP77       0.3668
     51  OD1        5.1850  -34.6520   41.6820 O.co2  77  ASP77      -0.2456
     52  OD2        6.4040  -33.3940   43.0080 O.co2  77  ASP77      -0.2456
     53  N          1.5140  -37.4440   41.3980 N.3    80  ILE80      -0.1231
     54  CA         0.0610  -37.5000   41.3520 C.3    80  ILE80       0.1692
     55  C         -0.5690  -36.1100   41.2740 C.2    80  ILE80       0.2593
     56  O         -1.6620  -35.9430   40.7320 O.2    80  ILE80      -0.2718
     57  CB        -0.4910  -38.2230   42.5950 C.3    80  ILE80       0.0266
     58  CG1       -2.0190  -38.2460   42.5580 C.3    80  ILE80       0.0019
     59  CG2        0.0030  -37.5300   43.8630 C.3    80  ILE80       0.0020
     60  CD1       -2.5960  -39.4570   41.8710 C.3    80  ILE80       0.0001
     61  N          0.1190  -35.1120   41.8200 N.am   81  GLY81      -0.1942
     62  CA        -0.4310  -33.7690   41.8300 C.3    81  GLY81       0.2014
     63  C         -1.6630  -33.6610   42.7100 C.2    81  GLY81       0.2638
     64  O         -1.9940  -34.5980   43.4290 O.2    81  GLY81      -0.2714
     65  N         -2.3400  -32.5160   42.6520 N.am   82  MET82      -0.1976
     66  CA        -3.4600  -32.2300   43.5450 C.3    82  MET82       0.1605
     67  C         -4.6240  -31.5550   42.8380 C.2    82  MET82       0.2287
     68  O         -4.4360  -30.6820   41.9970 O.2    82  MET82      -0.2864
     69  CB        -3.0100  -31.3300   44.7000 C.3    82  MET82       0.0413
     70  CG        -1.9970  -31.9650   45.6290 C.3    82  MET82       0.0598
     71  SD        -1.5980  -30.9360   47.0610 S.3    82  MET82      -0.1393
     72  CE        -0.2570  -29.9610   46.4300 C.3    82  MET82       0.0692
     73  N         -8.0160  -31.0060   47.0870 N.3    86  ASP86      -0.1239
     74  CA        -6.7810  -31.5900   47.5920 C.3    86  ASP86       0.1674
     75  C         -5.8290  -30.4710   48.0600 C.2    86  ASP86       0.2266
     76  O         -5.2700  -30.5230   49.1540 O.2    86  ASP86      -0.2867
     77  CB        -6.1160  -32.4350   46.4920 C.3    86  ASP86       0.1410
     78  CG        -6.7520  -33.8230   46.3310 C.2    86  ASP86       0.3668
     79  OD1       -7.3850  -34.3240   47.2850 O.co2  86  ASP86      -0.2456
     80  OD2       -6.6110  -34.4240   45.2440 O.co2  86  ASP86      -0.2456
     81  N         -4.8100  -29.9530   52.0030 N.3    90  ASN90      -0.1225
     82  CA        -3.5560  -30.6040   52.3700 C.3    90  ASN90       0.1785
     83  C         -2.4020  -29.6450   52.5900 C.2    90  ASN90       0.2597
     84  O         -1.3610  -30.0320   53.1060 O.2    90  ASN90      -0.2718
     85  CB        -3.1610  -31.6250   51.3000 C.3    90  ASN90       0.1169
     86  CG        -4.1850  -32.7310   51.1480 C.2    90  ASN90       0.2627
     87  OD1       -5.0920  -32.8660   51.9670 O.2    90  ASN90      -0.2716
     88  ND2       -4.0470  -33.5270   50.0990 N.am   90  ASN90      -0.0877
     89  N         -2.5740  -28.3970   52.1850 N.am   91  LEU91      -0.1980
     90  CA        -1.5330  -27.4000   52.3810 C.3    91  LEU91       0.1596
     91  C         -1.9910  -26.2760   53.2880 C.2    91  LEU91       0.2287
     92  O         -1.7990  -25.0980   52.9710 O.2    91  LEU91      -0.2864
     93  CB        -1.0900  -26.8100   51.0430 C.3    91  LEU91       0.0297
     94  CG         0.0730  -27.5510   50.4070 C.3    91  LEU91       0.0022
     95  CD1       -0.4330  -28.8840   49.9090 C.3    91  LEU91       0.0001
     96  CD2        0.6810  -26.7220   49.2840 C.3    91  LEU91       0.0001
     97  N         -3.1220  -31.5990   60.7620 N.3    96  LYS96      -0.1245
     98  CA        -2.2850  -32.7790   60.6590 C.3    96  LYS96       0.1561
     99  C         -2.0170  -33.2970   62.0660 C.2    96  LYS96       0.2260
    100  O         -1.7340  -32.5170   62.9770 O.2    96  LYS96      -0.2867
    101  CB        -0.9770  -32.4240   59.9530 C.3    96  LYS96       0.0271
    102  CG        -1.1440  -32.1820   58.4580 C.3    96  LYS96       0.0035
    103  CD         0.2030  -32.1740   57.7560 C.3    96  LYS96       0.0206
    104  CE         0.0740  -32.5950   56.3000 C.3    96  LYS96       0.1093
    105  NZ         1.4030  -32.8500   55.6650 N.3    96  LYS96      -0.1314
    106  N          4.7980  -33.4390   58.6830 N.3   120  VAL120     -0.1245
    107  CA         4.7130  -32.0160   58.3870 C.3   120  VAL120      0.1561
    108  C          5.9810  -31.4510   57.7480 C.2   120  VAL120      0.2260
    109  O          6.2160  -30.2410   57.7860 O.2   120  VAL120     -0.2867
    110  CB         4.4150  -31.2180   59.6560 C.3   120  VAL120      0.0252
    111  CG1        2.9850  -31.4600   60.0890 C.3   120  VAL120      0.0019
    112  CG2        5.3750  -31.6380   60.7580 C.3   120  VAL120      0.0019
    113  N          6.9270  -30.5840   55.0090 N.3   122  PHE122     -0.1227
    114  CA         6.8500  -29.5510   53.9760 C.3   122  PHE122      0.1736
    115  C          7.1550  -28.1830   54.5600 C.2   122  PHE122      0.2595
    116  O          7.9690  -27.4440   54.0280 O.2   122  PHE122     -0.2718
    117  CB         5.4630  -29.5370   53.3390 C.3   122  PHE122      0.0547
    118  CG         5.1840  -28.3190   52.5070 C.ar  122  PHE122     -0.0202
    119  CD1        5.4980  -28.2940   51.1570 C.ar  122  PHE122     -0.0042
    120  CD2        4.5640  -27.2070   53.0620 C.ar  122  PHE122     -0.0042
    121  CE1        5.1930  -27.1780   50.3680 C.ar  122  PHE122     -0.0003
    122  CE2        4.2620  -26.0920   52.2800 C.ar  122  PHE122     -0.0003
    123  CZ         4.5750  -26.0820   50.9310 C.ar  122  PHE122     -0.0000
    124  N          6.4980  -27.8530   55.6630 N.am  123  TYR123     -0.1976
    125  CA         6.6220  -26.5200   56.2280 C.3   123  TYR123      0.1639
    126  C          8.0480  -26.2170   56.6560 C.2   123  TYR123      0.2290
    127  O          8.3360  -25.1230   57.1260 O.2   123  TYR123     -0.2864
    128  CB         5.6630  -26.3570   57.4020 C.3   123  TYR123      0.0560
    129  CG         4.2310  -26.5620   56.9840 C.ar  123  TYR123     -0.0198
    130  CD1        3.5610  -25.5930   56.2500 C.ar  123  TYR123     -0.0009
    131  CD2        3.5750  -27.7630   57.2390 C.ar  123  TYR123     -0.0009
    132  CE1        2.2890  -25.8160   55.7740 C.ar  123  TYR123      0.0417
    133  CE2        2.3030  -27.9930   56.7690 C.ar  123  TYR123      0.0417
    134  CZ         1.6680  -27.0180   56.0350 C.ar  123  TYR123      0.1957
    135  OH         0.4060  -27.2450   55.5480 O.3   123  TYR123     -0.2866
    136  N          3.3990  -23.2220   45.3330 N.3   134  VAL134     -0.1245
    137  CA         3.1970  -24.5750   44.8370 C.3   134  VAL134      0.1561
    138  C          2.2440  -24.6140   43.6450 C.2   134  VAL134      0.2260
    139  O          1.0980  -24.1790   43.7290 O.2   134  VAL134     -0.2867
    140  CB         2.6540  -25.4970   45.9400 C.3   134  VAL134      0.0252
    141  CG1        2.0330  -26.7360   45.3170 C.3   134  VAL134      0.0019
    142  CG2        3.7810  -25.9060   46.8580 C.3   134  VAL134      0.0019
    143  N         -3.4870  -32.2260   38.6030 N.3   138  HIS138     -0.1241
    144  CA        -3.9320  -33.5910   38.8410 C.3   138  HIS138      0.1621
    145  C         -4.8700  -33.9960   37.7050 C.2   138  HIS138      0.2264
    146  O         -5.6550  -33.1840   37.2150 O.2   138  HIS138     -0.2867
    147  CB        -4.6540  -33.6550   40.1890 C.3   138  HIS138      0.0745
    148  CG        -5.1440  -35.0210   40.5620 C.ar  138  HIS138      0.0817
    149  ND1       -6.1130  -35.6900   39.8430 N.ar  138  HIS138     -0.2268
    150  CD2       -4.8360  -35.8220   41.6090 C.ar  138  HIS138      0.1154
    151  CE1       -6.3820  -36.8410   40.4320 C.ar  138  HIS138      0.1986
    152  NE2       -5.6210  -36.9450   41.5060 N.ar  138  HIS138     -0.2212
    153  N          3.4330  -31.7200   40.4570 N.3   168  THR168     -0.1218
    154  CA         3.5170  -30.6440   41.4240 C.3   168  THR168      0.1862
    155  C          4.8800  -30.0020   41.3120 C.2   168  THR168      0.2287
    156  O          5.8610  -30.6590   40.9560 O.2   168  THR168     -0.2866
    157  CB         3.3270  -31.1870   42.8420 C.3   168  THR168      0.1770
    158  OG1        2.0020  -31.7050   42.9580 O.3   168  THR168     -0.2211
    159  CG2        3.5440  -30.1020   43.8820 C.3   168  THR168      0.0375
    160  N          7.1980  -27.1790   43.5820 N.3   170  VAL170     -0.1245
    161  CA         7.3240  -26.3370   44.7570 C.3   170  VAL170      0.1561
    162  C          8.4470  -25.3550   44.4970 C.2   170  VAL170      0.2260
    163  O          9.5960  -25.7560   44.3180 O.2   170  VAL170     -0.2867
    164  CB         7.6480  -27.1620   46.0250 C.3   170  VAL170      0.0252
    165  CG1        7.9160  -26.2400   47.1850 C.3   170  VAL170      0.0019
    166  CG2        6.4860  -28.0770   46.3720 C.3   170  VAL170      0.0019
@<TRIPOS>BOND
     1   146   145    2
     2   145   144    1
     3   143   144    1
     4   144   147    1
     5    48    47    2
     6    47    46    1
     7   149   151   ar
     8   149   148   ar
     9    46    45    1
    10    46    49    1
    11   147   148    1
    12   151   152   ar
    13   153   154    1
    14   148   150   ar
    15    56    55    2
    16   156   155    2
    17    55    54    1
    18    55    61   am
    19   155   154    1
    20    54    53    1
    21    54    57    1
    22    49    50    1
    23   154   157    1
    24   152   150   ar
    25    51    50   ar
    26    61    62    1
    27    62    63    1
    28    60    58    1
    29    68    67    2
    30    50    52   ar
    31    58    57    1
    32    57    59    1
    33    65    63   am
    34    65    66    1
    35    63    64    2
    36    39    38    2
    37    67    66    1
    38   157   158    1
    39   157   159    1
    40    38    37    1
    41    34    33    2
    42    66    69    1
    43   160   161    1
    44   138   139    2
    45   138   137    1
    46    33    32    1
    47   163   162    2
    48    20    19    2
    49    36    37    1
    50    37    40    1
    51   162   161    1
    52    35    32    1
    53    69    70    1
    54   161   164    1
    55    21    22    1
    56    21    18    1
    57   137   136    1
    58   137   140    1
    59    32    31    1
    60    40    41    1
    61    19    18    1
    62    80    78   ar
    63   141   140    1
    64    41    42    1
    65    18    17    1
    66    70    71    1
    67   140   142    1
    68    31    25   am
    69   164   166    1
    70   164   165    1
    71    78    77    1
    72    78    79   ar
    73    26    25    2
    74    72    71    1
    75    77    74    1
    76    25    24    1
    77    42    43    1
    78    17    11   am
    79    73    74    1
    80    23    24    1
    81    12    11    2
    82    74    75    1
    83    24    27    1
    84    43    44    1
    85     4     3    2
    86    11    10    1
    87    75    76    2
    88     3     2    1
    89     5     2    1
    90     5     6    1
    91    27    28    1
    92     7     6    1
    93    96    94    1
    94    10    13    1
    95    10     9    1
    96    13    14    1
    97     2     1    1
    98     6     8    1
    99    29    28   ar
   100    95    94    1
   101    88    86   am
   102    28    30   ar
   103   121   123   ar
   104   121   119   ar
   105    94    93    1
   106   123   122   ar
   107    14    16   am
   108    14    15    2
   109    93    90    1
   110    86    85    1
   111    86    87    2
   112   119   118   ar
   113    85    82    1
   114    81    82    1
   115    89    90    1
   116    89    83   am
   117   122   120   ar
   118    82    83    1
   119    90    91    1
   120   118   120   ar
   121   118   117    1
   122    83    84    2
   123    92    91    2
   124   117   114    1
   125   114   115    1
   126   114   113    1
   127   116   115    2
   128   115   124   am
   129   135   134    1
   130   124   125    1
   131   105   104    1
   132   132   134   ar
   133   132   130   ar
   134   134   133   ar
   135   125   126    1
   136   125   128    1
   137   130   129   ar
   138   104   103    1
   139   126   127    2
   140   133   131   ar
   141   129   131   ar
   142   129   128    1
   143   108   109    2
   144   108   107    1
   145   103   102    1
   146   107   106    1
   147   107   110    1
   148   102   101    1
   149   110   111    1
   150   110   112    1
   151   101    98    1
   152    98    97    1
   153    98    99    1
   154    99   100    2
