@<TRIPOS>MOLECULE
tmp/3r4pB00.pdb
 163 151 0 0 0
SMALL
GASTEIGER

@<TRIPOS>ATOM
      1  N         31.0480    7.9070   17.4680 N.3    41  LEU41      -0.1245
      2  CA        30.8380    6.9110   18.5090 C.3    41  LEU41       0.1561
      3  C         29.3600    6.5580   18.6110 C.2    41  LEU41       0.2260
      4  O         28.9980    5.3910   18.7420 O.2    41  LEU41      -0.2867
      5  CB        31.3660    7.4210   19.8560 C.3    41  LEU41       0.0270
      6  CG        32.8830    7.6590   19.8700 C.3    41  LEU41       0.0019
      7  CD1       33.3340    8.1510   21.2480 C.3    41  LEU41       0.0001
      8  CD2       33.6090    6.3620   19.5110 C.3    41  LEU41       0.0001
      9  N         28.5070    4.2320   15.8700 N.3    44  ASN44      -0.1225
     10  CA        28.9320    2.8670   16.1600 C.3    44  ASN44       0.1785
     11  C         27.9630    2.1990   17.1320 C.2    44  ASN44       0.2597
     12  O         27.6380    1.0210   16.9820 O.2    44  ASN44      -0.2718
     13  CB        30.3470    2.8550   16.7490 C.3    44  ASN44       0.1169
     14  CG        31.4260    3.0770   15.6930 C.2    44  ASN44       0.2627
     15  OD1       31.1730    2.9730   14.4870 O.2    44  ASN44      -0.2716
     16  ND2       32.6370    3.3790   16.1460 N.am   44  ASN44      -0.0877
     17  N         27.5000    2.9520   18.1270 N.am   45  SER45      -0.1952
     18  CA        26.5220    2.4280   19.0770 C.3    45  SER45       0.1924
     19  C         25.2070    2.0760   18.3820 C.2    45  SER45       0.2314
     20  O         24.6060    1.0320   18.6520 O.2    45  SER45      -0.2863
     21  CB        26.2600    3.4530   20.1880 C.3    45  SER45       0.2116
     22  OG        27.3910    3.5710   21.0350 O.3    45  SER45      -0.2180
     23  N         24.7770    1.2410   15.2620 N.3    47  ASP47      -0.1225
     24  CA        25.0190    0.0390   14.4750 C.3    47  ASP47       0.1805
     25  C         25.0030   -1.2060   15.3620 C.2    47  ASP47       0.2597
     26  O         24.4650   -2.2450   14.9750 O.2    47  ASP47      -0.2718
     27  CB        26.3680    0.1340   13.7560 C.3    47  ASP47       0.1424
     28  CG        26.3700    1.1680   12.6390 C.2    47  ASP47       0.3668
     29  OD1       25.3050    1.7530   12.3570 O.co2  47  ASP47      -0.2456
     30  OD2       27.4420    1.3890   12.0400 O.co2  47  ASP47      -0.2456
     31  N         25.5930   -1.0960   16.5500 N.am   48  ALA48      -0.1979
     32  CA        25.6360   -2.2150   17.4920 C.3    48  ALA48       0.1597
     33  C         24.2420   -2.5640   18.0100 C.2    48  ALA48       0.2287
     34  O         23.9170   -3.7380   18.2080 O.2    48  ALA48      -0.2864
     35  CB        26.5610   -1.8800   18.6600 C.3    48  ALA48       0.0319
     36  N         22.3860   -4.4110   15.2990 N.3    51  LYS51      -0.1245
     37  CA        22.7880   -5.8050   15.1570 C.3    51  LYS51       0.1561
     38  C         22.1170   -6.7330   16.1660 C.2    51  LYS51       0.2260
     39  O         21.6620   -7.8170   15.7990 O.2    51  LYS51      -0.2867
     40  CB        24.3130   -5.9280   15.2460 C.3    51  LYS51       0.0271
     41  CG        25.0210   -5.2700   14.0700 C.3    51  LYS51       0.0035
     42  CD        26.4860   -5.6520   13.9900 C.3    51  LYS51       0.0206
     43  CE        27.1200   -5.0920   12.7240 C.3    51  LYS51       0.1093
     44  NZ        26.3870   -5.4990   11.4950 N.3    51  LYS51      -0.1314
     45  N         26.2710    1.9030   25.2980 N.3    86  ASP86      -0.1239
     46  CA        25.1010    1.3610   24.6240 C.3    86  ASP86       0.1674
     47  C         24.7820   -0.0440   25.1030 C.2    86  ASP86       0.2266
     48  O         25.6160   -0.7130   25.7220 O.2    86  ASP86      -0.2867
     49  CB        25.3050    1.3600   23.1050 C.3    86  ASP86       0.1410
     50  CG        26.4450    0.4580   22.6670 C.2    86  ASP86       0.3668
     51  OD1       26.3090   -0.7810   22.7750 O.co2  86  ASP86      -0.2456
     52  OD2       27.4740    0.9930   22.2160 O.co2  86  ASP86      -0.2456
     53  N         25.1330   -4.9890   20.6450 N.3    89  ILE89      -0.1231
     54  CA        25.5210   -6.3960   20.6000 C.3    89  ILE89       0.1692
     55  C         26.8090   -6.7030   21.3680 C.2    89  ILE89       0.2593
     56  O         27.0350   -7.8400   21.7810 O.2    89  ILE89      -0.2718
     57  CB        25.6810   -6.8670   19.1390 C.3    89  ILE89       0.0266
     58  CG1       25.9470   -8.3760   19.1030 C.3    89  ILE89       0.0019
     59  CG2       26.8160   -6.1030   18.4730 C.3    89  ILE89       0.0020
     60  CD1       25.5400   -9.0300   17.7990 C.3    89  ILE89       0.0001
     61  N         27.6510   -5.6950   21.5640 N.am   90  GLY90      -0.1942
     62  CA        28.9050   -5.9170   22.2640 C.3    90  GLY90       0.2014
     63  C         29.8990   -6.7210   21.4430 C.2    90  GLY90       0.2638
     64  O         29.6450   -7.0250   20.2780 O.2    90  GLY90      -0.2714
     65  N         31.0300   -7.0640   22.0570 N.am   91  MET91      -0.1976
     66  CA        32.1190   -7.7710   21.3760 C.3    91  MET91       0.1605
     67  C         32.6570   -8.9390   22.1930 C.2    91  MET91       0.2287
     68  O         32.8590   -8.8220   23.4030 O.2    91  MET91      -0.2864
     69  CB        33.2790   -6.8110   21.0960 C.3    91  MET91       0.0413
     70  CG        33.0110   -5.8160   20.0000 C.3    91  MET91       0.0598
     71  SD        34.3620   -4.6520   19.7770 S.3    91  MET91      -0.1393
     72  CE        33.9390   -3.4490   21.0220 C.3    91  MET91       0.0692
     73  N         36.4510  -10.5030   18.6990 N.3    95  ASP95      -0.1239
     74  CA        35.9290   -9.3070   18.0410 C.3    95  ASP95       0.1674
     75  C         36.7570   -8.1010   18.4620 C.2    95  ASP95       0.2266
     76  O         37.1470   -7.2730   17.6400 O.2    95  ASP95      -0.2867
     77  CB        34.4680   -9.0540   18.4410 C.3    95  ASP95       0.1410
     78  CG        33.5170  -10.1210   17.9300 C.2    95  ASP95       0.3668
     79  OD1       33.8590  -10.8310   16.9590 O.co2  95  ASP95      -0.2456
     80  OD2       32.4130  -10.2400   18.5030 O.co2  95  ASP95      -0.2456
     81  N         38.8490   -6.1940   15.7830 N.3    99  ASN99      -0.1225
     82  CA        38.1430   -5.0290   15.2660 C.3    99  ASN99       0.1785
     83  C         38.6890   -3.6980   15.7720 C.2    99  ASN99       0.2597
     84  O         38.4180   -2.6530   15.1820 O.2    99  ASN99      -0.2718
     85  CB        36.6480   -5.1410   15.5880 C.3    99  ASN99       0.1169
     86  CG        36.0010   -6.3490   14.9250 C.2    99  ASN99       0.2627
     87  OD1       36.6230   -7.0250   14.1060 O.2    99  ASN99      -0.2716
     88  ND2       34.7490   -6.6210   15.2720 N.am   99  ASN99      -0.0877
     89  N         39.4550   -3.7340   16.8580 N.am  100  LEU100     -0.1980
     90  CA        40.0240   -2.5110   17.4210 C.3   100  LEU100      0.1596
     91  C         41.5460   -2.4460   17.3480 C.2   100  LEU100      0.2287
     92  O         42.2110   -2.1410   18.3430 O.2   100  LEU100     -0.2864
     93  CB        39.5820   -2.3280   18.8780 C.3   100  LEU100      0.0297
     94  CG        38.1970   -1.7070   19.1030 C.3   100  LEU100      0.0022
     95  CD1       37.1170   -2.7100   18.7260 C.3   100  LEU100      0.0001
     96  CD2       38.0460   -1.2890   20.5670 C.3   100  LEU100      0.0001
     97  N         41.3550   -2.3300    7.1100 N.3   105  LYS105     -0.1245
     98  CA        40.5720   -2.6010    5.9090 C.3   105  LYS105      0.1561
     99  C         41.3110   -2.1510    4.6510 C.2   105  LYS105      0.2260
    100  O         42.0730   -1.1840    4.6790 O.2   105  LYS105     -0.2867
    101  CB        39.2220   -1.8850    5.9850 C.3   105  LYS105      0.0271
    102  CG        38.4090   -2.2070    7.2290 C.3   105  LYS105      0.0035
    103  CD        37.0880   -1.4510    7.2340 C.3   105  LYS105      0.0206
    104  CE        36.3090   -1.7020    8.5160 C.3   105  LYS105      0.1093
    105  NZ        34.9960   -0.9980    8.5130 N.3   105  LYS105     -0.1314
    106  N         35.6050    3.4070    7.8880 N.3   128  GLY128     -0.1225
    107  CA        35.5330    2.3570    8.8860 C.3   128  GLY128      0.1811
    108  C         36.4510    2.5630   10.0760 C.2   128  GLY128      0.2280
    109  O         36.6970    1.6280   10.8360 O.2   128  GLY128     -0.2866
    110  N         35.9090    5.4600   14.9710 N.3   131  PHE131     -0.1227
    111  CA        36.2080    5.3080   16.3890 C.3   131  PHE131      0.1736
    112  C         37.4740    6.0640   16.7800 C.2   131  PHE131      0.2595
    113  O         37.5480    6.6680   17.8480 O.2   131  PHE131     -0.2718
    114  CB        36.3690    3.8240   16.7130 C.3   131  PHE131      0.0547
    115  CG        37.0290    3.5540   18.0330 C.ar  131  PHE131     -0.0202
    116  CD1       36.2890    3.5600   19.2080 C.ar  131  PHE131     -0.0042
    117  CD2       38.3810    3.2500   18.0980 C.ar  131  PHE131     -0.0042
    118  CE1       36.8820    3.2660   20.4150 C.ar  131  PHE131     -0.0003
    119  CE2       38.9820    2.9540   19.3070 C.ar  131  PHE131     -0.0003
    120  CZ        38.2300    2.9620   20.4680 C.ar  131  PHE131     -0.0000
    121  N         38.4690    6.0330   15.9050 N.am  132  TYR132     -0.1976
    122  CA        39.7700    6.5870   16.2320 C.3   132  TYR132      0.1639
    123  C         39.7550    8.1100   16.3190 C.2   132  TYR132      0.2290
    124  O         40.7020    8.7190   16.8190 O.2   132  TYR132     -0.2864
    125  CB        40.7980    6.1000   15.2070 C.3   132  TYR132      0.0560
    126  CG        41.0320    4.6100   15.3290 C.ar  132  TYR132     -0.0198
    127  CD1       41.8300    4.0970   16.3450 C.ar  132  TYR132     -0.0009
    128  CD2       40.4040    3.7160   14.4750 C.ar  132  TYR132     -0.0009
    129  CE1       41.9880    2.7330   16.5100 C.ar  132  TYR132      0.0417
    130  CE2       40.5580    2.3450   14.6340 C.ar  132  TYR132      0.0417
    131  CZ        41.3470    1.8640   15.6500 C.ar  132  TYR132      0.1957
    132  OH        41.4900    0.5040   15.8150 O.3   132  TYR132     -0.2866
    133  N         37.6850    0.8560   26.4590 N.3   143  VAL143     -0.1245
    134  CA        36.4410    0.2950   25.9440 C.3   143  VAL143      0.1561
    135  C         36.0900   -0.9490   26.7560 C.2   143  VAL143      0.2260
    136  O         36.8450   -1.9160   26.7720 O.2   143  VAL143     -0.2867
    137  CB        36.5790   -0.1040   24.4490 C.3   143  VAL143      0.0252
    138  CG1       35.2990   -0.7720   23.9630 C.3   143  VAL143      0.0019
    139  CG2       36.8820    1.1320   23.6020 C.3   143  VAL143      0.0019
    140  N         29.4440   -9.2280   25.4320 N.3   147  HIS147     -0.1241
    141  CA        28.6890   -9.8960   24.3750 C.3   147  HIS147      0.1621
    142  C         28.0180  -11.1300   24.9760 C.2   147  HIS147      0.2264
    143  O         28.5510  -11.7350   25.9050 O.2   147  HIS147     -0.2867
    144  CB        29.6500  -10.3150   23.2590 C.3   147  HIS147      0.0745
    145  CG        28.9720  -10.8160   22.0230 C.ar  147  HIS147      0.0817
    146  ND1       28.4160  -12.0730   21.9380 N.ar  147  HIS147     -0.2268
    147  CD2       28.7850  -10.2390   20.8130 C.ar  147  HIS147      0.1154
    148  CE1       27.9160  -12.2510   20.7280 C.ar  147  HIS147      0.1986
    149  NE2       28.1280  -11.1530   20.0240 N.ar  147  HIS147     -0.2212
    150  N         28.4410   -2.0070   24.9380 N.3   177  THR177     -0.1218
    151  CA        29.7850   -1.4770   24.9010 C.3   177  THR177      0.1862
    152  C         29.8230   -0.1050   25.5440 C.2   177  THR177      0.2287
    153  O         28.9160    0.7050   25.3600 O.2   177  THR177     -0.2866
    154  CB        30.2860   -1.3960   23.4480 C.3   177  THR177      0.1770
    155  OG1       30.3700   -2.7240   22.9120 O.3   177  THR177     -0.2211
    156  CG2       31.6550   -0.7330   23.3790 C.3   177  THR177      0.0375
    157  N         32.3890    3.1600   25.9570 N.3   179  VAL179     -0.1245
    158  CA        33.6180    3.8260   25.5470 C.3   179  VAL179      0.1561
    159  C         33.9000    4.9830   26.4920 C.2   179  VAL179      0.2260
    160  O         33.1250    5.9360   26.5630 O.2   179  VAL179     -0.2867
    161  CB        33.5110    4.3710   24.1100 C.3   179  VAL179      0.0252
    162  CG1       34.8010    5.0940   23.7210 C.3   179  VAL179      0.0019
    163  CG2       33.2430    3.2280   23.1510 C.3   179  VAL179      0.0019
@<TRIPOS>BOND
     1    99   100    2
     2    99    98    1
     3    98   101    1
     4    98    97    1
     5   101   102    1
     6   102   103    1
     7   103   104    1
     8   106   107    1
     9   105   104    1
    10   107   108    1
    11   108   109    2
    12    44    43    1
    13    30    28   ar
    14    29    28   ar
    15    28    27    1
    16    43    42    1
    17    27    24    1
    18    42    41    1
    19    41    40    1
    20    87    86    2
    21   128   130   ar
    22   128   126   ar
    23    24    23    1
    24    24    25    1
    25    15    14    2
    26   130   131   ar
    27    86    88   am
    28    86    85    1
    29   110   111    1
    30    26    25    2
    31    37    40    1
    32    37    36    1
    33    37    38    1
    34    84    83    2
    35   125   126    1
    36   125   122    1
    37    82    85    1
    38    82    83    1
    39    82    81    1
    40   126   127   ar
    41    25    31   am
    42   131   132    1
    43   131   129   ar
    44    14    16   am
    45    14    13    1
    46    83    89   am
    47    39    38    2
    48     9    10    1
    49   121   122    1
    50   121   112   am
    51    10    13    1
    52    10    11    1
    53   122   123    1
    54   123   124    2
    55   127   129   ar
    56   111   114    1
    57   111   112    1
    58    31    32    1
    59   114   115    1
    60   112   113    2
    61    89    90    1
    62    79    78   ar
    63    12    11    2
    64    11    17   am
    65    91    90    1
    66    91    92    2
    67    90    93    1
    68     1     2    1
    69    32    33    1
    70    32    35    1
    71    76    75    2
    72    60    58    1
    73    78    77    1
    74    78    80   ar
    75    33    34    2
    76   115   117   ar
    77   115   116   ar
    78    74    77    1
    79    74    75    1
    80    74    73    1
    81   117   119   ar
    82    17    18    1
    83    19    20    2
    84    19    18    1
    85    59    57    1
    86     2     3    1
    87     2     5    1
    88     3     4    2
    89    95    94    1
    90    93    94    1
    91    18    21    1
    92    58    57    1
    93    94    96    1
    94    57    54    1
    95   116   118   ar
    96   119   120   ar
    97     8     6    1
    98    71    70    1
    99    71    72    1
   100     5     6    1
   101     6     7    1
   102    70    69    1
   103   149   148   ar
   104   149   147   ar
   105    21    22    1
   106    64    63    2
   107   118   120   ar
   108    54    53    1
   109    54    55    1
   110   148   146   ar
   111   147   145   ar
   112    69    66    1
   113    55    61   am
   114    55    56    2
   115    66    65    1
   116    66    67    1
   117    63    65   am
   118    63    62    1
   119    61    62    1
   120   146   145   ar
   121   145   144    1
   122    67    68    2
   123    52    50   ar
   124    50    51   ar
   125    50    49    1
   126   155   154    1
   127    49    46    1
   128   163   161    1
   129   144   141    1
   130   156   154    1
   131   154   151    1
   132   139   137    1
   133   162   161    1
   134   138   137    1
   135   161   158    1
   136   141   142    1
   137   141   140    1
   138   137   134    1
   139    46    47    1
   140    46    45    1
   141   151   150    1
   142   151   152    1
   143   142   143    2
   144    47    48    2
   145   153   152    2
   146   158   157    1
   147   158   159    1
   148   134   133    1
   149   134   135    1
   150   159   160    2
   151   135   136    2
