@<TRIPOS>MOLECULE
tmp/3r4sA00.pdb
 94 91 0 0 0
SMALL
GASTEIGER

@<TRIPOS>ATOM
      1  N         49.7510   37.8560   89.3140 N.3   258  TYR258     -0.1227
      2  CA        49.7950   37.0810   90.5410 C.3   258  TYR258      0.1736
      3  C         49.1580   37.8870   91.6690 C.2   258  TYR258      0.2595
      4  O         48.6200   38.9690   91.4360 O.2   258  TYR258     -0.2718
      5  CB        51.2320   36.6990   90.8790 C.3   258  TYR258      0.0548
      6  CG        51.3300   35.5580   91.8600 C.ar  258  TYR258     -0.0200
      7  CD1       50.6290   34.3750   91.6470 C.ar  258  TYR258     -0.0009
      8  CD2       52.1200   35.6590   92.9910 C.ar  258  TYR258     -0.0009
      9  CE1       50.7110   33.3270   92.5390 C.ar  258  TYR258      0.0417
     10  CE2       52.2060   34.6210   93.8910 C.ar  258  TYR258      0.0417
     11  CZ        51.4990   33.4530   93.6590 C.ar  258  TYR258      0.1957
     12  OH        51.5870   32.4050   94.5580 O.3   258  TYR258     -0.2866
     13  N         49.1870   37.3610   92.8880 N.am  259  ALA259     -0.1966
     14  CA        48.6200   38.1070   94.0070 C.3   259  ALA259      0.1728
     15  C         49.3030   37.7990   95.3290 C.2   259  ALA259      0.2616
     16  O         49.8130   36.7020   95.5540 O.2   259  ALA259     -0.2715
     17  CB        47.1100   37.8920   94.1110 C.3   259  ALA259      0.0334
     18  N         49.2840   38.7920   96.2040 N.am  260  ASN260     -0.1958
     19  CA        50.0240   38.7420   97.4380 C.3   260  ASN260      0.1819
     20  C         49.3700   39.6480   98.4680 C.2   260  ASN260      0.2622
     21  O         49.4180   40.8690   98.3480 O.2   260  ASN260     -0.2715
     22  CB        51.4430   39.2050   97.1670 C.3   260  ASN260      0.1195
     23  CG        52.4360   38.5420   98.0560 C.2   260  ASN260      0.2630
     24  OD1       52.4050   38.7160   99.2780 O.2   260  ASN260     -0.2716
     25  ND2       53.3310   37.7600   97.4560 N.am  260  ASN260     -0.0877
     26  N         48.7510   39.0400   99.4730 N.am  261  SER261     -0.1936
     27  CA        48.0360   39.7850  100.4920 C.3   261  SER261      0.2055
     28  C         46.9660   40.6190   99.8410 C.2   261  SER261      0.2642
     29  O         46.7530   41.7590  100.2250 O.2   261  SER261     -0.2714
     30  CB        48.9740   40.6900  101.2940 C.3   261  SER261      0.2130
     31  OG        49.9370   39.9290  101.9960 O.3   261  SER261     -0.2179
     32  N         46.3020   40.0370   98.8470 N.am  262  ARG262     -0.1977
     33  CA        45.1900   40.6830   98.1650 C.3   262  ARG262      0.1597
     34  C         45.6010   41.8790   97.3090 C.2   262  ARG262      0.2287
     35  O         44.7430   42.6120   96.8030 O.2   262  ARG262     -0.2864
     36  CB        44.1040   41.0870   99.1530 C.3   262  ARG262      0.0334
     37  CG        43.3610   39.9060   99.7420 C.3   262  ARG262      0.0492
     38  CD        42.3150   40.3890  100.7190 C.3   262  ARG262      0.2205
     39  NE        41.5390   39.2810  101.2570 N.pl3 262  ARG262     -0.0865
     40  CZ        40.3750   39.4320  101.8770 C.cat 262  ARG262      0.5346
     41  NH1       39.8570   40.6480  102.0260 N.pl3 262  ARG262      0.1354
     42  NH2       39.7260   38.3700  102.3370 N.pl3 262  ARG262      0.1354
     43  N         47.2410   33.9050   87.5600 N.3   279  TYR279     -0.1241
     44  CA        45.8020   33.8700   87.7360 C.3   279  TYR279      0.1605
     45  C         45.0680   34.4250   86.5280 C.2   279  TYR279      0.2264
     46  O         45.6220   35.1910   85.7280 O.2   279  TYR279     -0.2867
     47  CB        45.3930   34.6270   88.9970 C.3   279  TYR279      0.0534
     48  CG        46.0390   34.1080   90.2610 C.ar  279  TYR279     -0.0201
     49  CD1       46.0590   32.7480   90.5490 C.ar  279  TYR279     -0.0009
     50  CD2       46.6160   34.9810   91.1760 C.ar  279  TYR279     -0.0009
     51  CE1       46.6490   32.2710   91.7160 C.ar  279  TYR279      0.0417
     52  CE2       47.2050   34.5180   92.3390 C.ar  279  TYR279      0.0417
     53  CZ        47.2170   33.1580   92.6050 C.ar  279  TYR279      0.1957
     54  OH        47.8010   32.6930   93.7620 O.3   279  TYR279     -0.2866
     55  N         41.1340   32.6430   93.4570 N.3   307  ILE307     -0.1231
     56  CA        42.3800   32.1080   93.9950 C.3   307  ILE307      0.1692
     57  C         42.0650   31.1300   95.1270 C.2   307  ILE307      0.2592
     58  O         41.2820   31.4470   96.0280 O.2   307  ILE307     -0.2718
     59  CB        43.2700   33.2210   94.5480 C.3   307  ILE307      0.0266
     60  CG1       43.5710   34.2470   93.4570 C.3   307  ILE307      0.0019
     61  CG2       44.5520   32.6360   95.1340 C.3   307  ILE307      0.0020
     62  CD1       44.2960   35.4700   93.9640 C.3   307  ILE307      0.0001
     63  N         42.6640   29.9430   95.0720 N.am  308  ASN308     -0.1974
     64  CA        42.4320   28.9140   96.0860 C.3   308  ASN308      0.1688
     65  C         40.9460   28.7320   96.3710 C.2   308  ASN308      0.2292
     66  O         40.5230   28.6860   97.5290 O.2   308  ASN308     -0.2864
     67  CB        43.1970   29.2400   97.3750 C.3   308  ASN308      0.1181
     68  CG        44.7080   29.2530   97.1690 C.2   308  ASN308      0.2629
     69  OD1       45.4310   30.0170   97.8150 O.2   308  ASN308     -0.2716
     70  ND2       45.1910   28.4110   96.2560 N.am  308  ASN308     -0.0877
     71  N         37.2000   36.6080   94.1700 N.3   312  TYR312     -0.1241
     72  CA        37.3370   38.0240   94.4990 C.3   312  TYR312      0.1605
     73  C         36.8640   38.9440   93.3660 C.2   312  TYR312      0.2264
     74  O         36.6210   38.4970   92.2500 O.2   312  TYR312     -0.2867
     75  CB        38.8030   38.3460   94.7650 C.3   312  TYR312      0.0534
     76  CG        39.4610   37.5370   95.8610 C.ar  312  TYR312     -0.0201
     77  CD1       39.5390   38.0240   97.1620 C.ar  312  TYR312     -0.0009
     78  CD2       40.0320   36.3010   95.5880 C.ar  312  TYR312     -0.0009
     79  CE1       40.1570   37.2930   98.1660 C.ar  312  TYR312      0.0417
     80  CE2       40.6510   35.5640   96.5810 C.ar  312  TYR312      0.0417
     81  CZ        40.7110   36.0640   97.8690 C.ar  312  TYR312      0.1957
     82  OH        41.3260   35.3330   98.8570 O.3   312  TYR312     -0.2866
     83  N         42.4140   43.0570   95.3870 N.3   336  LEU336     -0.1245
     84  CA        41.3290   42.0840   95.3970 C.3   336  LEU336      0.1561
     85  C         40.5410   42.1170   96.7010 C.2   336  LEU336      0.2260
     86  O         41.1160   42.1620   97.7880 O.2   336  LEU336     -0.2867
     87  CB        41.8730   40.6750   95.1500 C.3   336  LEU336      0.0270
     88  CG        42.6980   40.4800   93.8760 C.3   336  LEU336      0.0019
     89  CD1       43.6150   39.2740   94.0090 C.3   336  LEU336      0.0001
     90  CD2       41.7890   40.3360   92.6640 C.3   336  LEU336      0.0001
     91  N         52.7480   39.9580  102.2590 N.3   388  GLY388     -0.1225
     92  CA        53.1690   38.6150  102.6260 C.3   388  GLY388      0.1811
     93  C         54.2100   38.4990  103.7290 C.2   388  GLY388      0.2280
     94  O         55.1950   37.7740  103.5900 O.2   388  GLY388     -0.2866
@<TRIPOS>BOND
     1    46    45    2
     2    45    44    1
     3    43    44    1
     4    44    47    1
     5    47    48    1
     6     1     2    1
     7    48    49   ar
     8    48    50   ar
     9     2     5    1
    10     2     3    1
    11    49    51   ar
    12     5     6    1
    13    50    52   ar
    14     4     3    2
    15     7     6   ar
    16     7     9   ar
    17     3    13   am
    18    51    53   ar
    19     6     8   ar
    20    74    73    2
    21    52    53   ar
    22     9    11   ar
    23    53    54    1
    24    90    88    1
    25    13    14    1
    26     8    10   ar
    27    73    72    1
    28    60    62    1
    29    60    59    1
    30    55    56    1
    31    11    10   ar
    32    11    12    1
    33    88    89    1
    34    88    87    1
    35    56    59    1
    36    56    57    1
    37    14    17    1
    38    14    15    1
    39    71    72    1
    40    72    75    1
    41    59    61    1
    42    75    76    1
    43    63    57   am
    44    63    64    1
    45    57    58    2
    46    87    84    1
    47    15    16    2
    48    15    18   am
    49    83    84    1
    50    84    85    1
    51    78    76   ar
    52    78    80   ar
    53    76    77   ar
    54    64    65    1
    55    64    67    1
    56    18    19    1
    57    70    68   am
    58    65    66    2
    59    80    81   ar
    60    85    86    2
    61    35    34    2
    62    77    79   ar
    63    22    19    1
    64    22    23    1
    65    68    67    1
    66    68    69    2
    67    34    33    1
    68    19    20    1
    69    25    23   am
    70    81    79   ar
    71    81    82    1
    72    23    24    2
    73    33    32    1
    74    33    36    1
    75    21    20    2
    76    20    26   am
    77    32    28   am
    78    36    37    1
    79    26    27    1
    80    37    38    1
    81    28    29    2
    82    28    27    1
    83    27    30    1
    84    38    39    1
    85    39    40    2
    86    30    31    1
    87    40    41    1
    88    40    42    1
    89    91    92    1
    90    92    93    1
    91    94    93    2
