@<TRIPOS>MOLECULE
tmp/3r4sA01.pdb
 94 89 0 0 0
SMALL
GASTEIGER

@<TRIPOS>ATOM
      1  N         32.7000   40.5240   84.0300 N.3   284  LYS284     -0.1245
      2  CA        31.2630   40.4410   84.3100 C.3   284  LYS284      0.1561
      3  C         30.5550   41.7160   83.8790 C.2   284  LYS284      0.2260
      4  O         30.9970   42.8220   84.1940 O.2   284  LYS284     -0.2867
      5  CB        30.9990   40.2020   85.8030 C.3   284  LYS284      0.0271
      6  CG        31.8000   39.0620   86.3980 C.3   284  LYS284      0.0035
      7  CD        31.4000   37.7130   85.8170 C.3   284  LYS284      0.0206
      8  CE        29.9600   37.3450   86.1780 C.3   284  LYS284      0.1093
      9  NZ        29.5800   35.9920   85.6320 N.3   284  LYS284     -0.1314
     10  N         32.7860   44.6920   85.6810 N.3   302  TYR302     -0.1241
     11  CA        33.7530   44.5000   86.7580 C.3   302  TYR302      0.1605
     12  C         34.4930   43.2010   86.4930 C.2   302  TYR302      0.2264
     13  O         34.1460   42.4720   85.5650 O.2   302  TYR302     -0.2867
     14  CB        33.0700   44.4900   88.1370 C.3   302  TYR302      0.0534
     15  CG        32.1050   43.3380   88.3470 C.ar  302  TYR302     -0.0201
     16  CD1       32.5270   42.1450   88.9250 C.ar  302  TYR302     -0.0009
     17  CD2       30.7700   43.4470   87.9720 C.ar  302  TYR302     -0.0009
     18  CE1       31.6380   41.0880   89.1330 C.ar  302  TYR302      0.0417
     19  CE2       29.8720   42.4000   88.1690 C.ar  302  TYR302      0.0417
     20  CZ        30.3110   41.2210   88.7490 C.ar  302  TYR302      0.1957
     21  OH        29.4230   40.1720   88.9340 O.3   302  TYR302     -0.2866
     22  N         36.2450   39.5020   88.0290 N.3   304  ASP304     -0.1239
     23  CA        36.4230   38.4720   89.0550 C.3   304  ASP304      0.1674
     24  C         37.7500   37.7650   88.8850 C.2   304  ASP304      0.2266
     25  O         38.2060   37.5400   87.7590 O.2   304  ASP304     -0.2867
     26  CB        35.3280   37.4160   88.9570 C.3   304  ASP304      0.1410
     27  CG        33.9830   37.9410   89.3650 C.2   304  ASP304      0.3668
     28  OD1       33.9430   38.9630   90.0880 O.co2 304  ASP304     -0.2456
     29  OD2       32.9710   37.3360   88.9580 O.co2 304  ASP304     -0.2456
     30  N         36.7450   40.2330   93.6730 N.3   313  ASN313     -0.1240
     31  CA        36.6080   41.2770   92.6660 C.3   313  ASN313      0.1653
     32  C         37.9030   42.0690   92.6540 C.2   313  ASN313      0.2266
     33  O         38.4860   42.3270   93.7090 O.2   313  ASN313     -0.2867
     34  CB        35.4920   42.2620   93.0330 C.3   313  ASN313      0.1155
     35  CG        34.1220   41.6170   93.0910 C.2   313  ASN313      0.2627
     36  OD1       33.3600   41.8490   94.0300 O.2   313  ASN313     -0.2716
     37  ND2       33.7910   40.8230   92.0790 N.am  313  ASN313     -0.0877
     38  N         33.8910   39.1000   97.2770 N.3   339  GLN339     -0.1231
     39  CA        32.6350   39.4480   96.6320 C.3   339  GLN339      0.1698
     40  C         31.5610   39.7190   97.6730 C.2   339  GLN339      0.2593
     41  O         31.6030   39.1720   98.7710 O.2   339  GLN339     -0.2718
     42  CB        32.1860   38.3240   95.7030 C.3   339  GLN339      0.0381
     43  CG        33.1300   38.0790   94.5480 C.3   339  GLN339      0.0905
     44  CD        32.5980   37.0480   93.5800 C.2   339  GLN339      0.2608
     45  OE1       31.6060   36.3760   93.8630 O.2   339  GLN339     -0.2717
     46  NE2       33.2540   36.9140   92.4290 N.am  339  GLN339     -0.0878
     47  N         30.6070   40.5740   97.3270 N.am  340  THR340     -0.1939
     48  CA        29.4750   40.8390   98.2000 C.3   340  THR340      0.2028
     49  C         28.2060   40.6450   97.3950 C.2   340  THR340      0.2642
     50  O         28.2580   40.4140   96.1850 O.2   340  THR340     -0.2714
     51  CB        29.4950   42.2760   98.7770 C.3   340  THR340      0.1808
     52  OG1       29.4870   43.2310   97.7080 O.3   340  THR340     -0.2208
     53  CG2       30.7210   42.4990   99.6400 C.3   340  THR340      0.0379
     54  N         27.0660   40.7440   98.0640 N.am  341  LYS341     -0.1963
     55  CA        25.7850   40.5200   97.4110 C.3   341  LYS341      0.1728
     56  C         25.5010   41.6310   96.4040 C.2   341  LYS341      0.2616
     57  O         24.9200   41.3970   95.3420 O.2   341  LYS341     -0.2715
     58  CB        24.6660   40.4460   98.4560 C.3   341  LYS341      0.0311
     59  CG        23.2760   40.2320   97.8700 C.3   341  LYS341      0.0038
     60  CD        22.1880   40.5940   98.8820 C.3   341  LYS341      0.0206
     61  CE        20.7970   40.5890   98.2540 C.3   341  LYS341      0.1093
     62  NZ        20.3490   39.2230   97.8530 N.3   341  LYS341     -0.1314
     63  N         25.9200   42.8430   96.7430 N.am  342  ASP342     -0.1957
     64  CA        25.6860   43.9970   95.8830 C.3   342  ASP342      0.1840
     65  C         26.9760   44.4860   95.2310 C.2   342  ASP342      0.2622
     66  O         28.0520   44.3730   95.8180 O.2   342  ASP342     -0.2715
     67  CB        25.0610   45.1300   96.6920 C.3   342  ASP342      0.1450
     68  CG        23.6820   44.7780   97.2160 C.2   342  ASP342      0.3671
     69  OD1       22.8680   44.2380   96.4340 O.co2 342  ASP342     -0.2456
     70  OD2       23.4130   45.0490   98.4060 O.co2 342  ASP342     -0.2456
     71  N         26.8590   45.0270   94.0200 N.am  343  ILE343     -0.1963
     72  CA        27.9940   45.6310   93.3240 C.3   343  ILE343      0.1727
     73  C         28.4340   46.9050   94.0350 C.2   343  ILE343      0.2616
     74  O         27.6860   47.8820   94.0790 O.2   343  ILE343     -0.2715
     75  CB        27.6280   46.0220   91.8660 C.3   343  ILE343      0.0290
     76  CG1       26.9480   44.8620   91.1340 C.3   343  ILE343      0.0022
     77  CG2       28.8560   46.5200   91.1140 C.3   343  ILE343      0.0023
     78  CD1       27.8020   43.6450   91.0010 C.3   343  ILE343      0.0001
     79  N         29.6360   46.9070   94.5990 N.am  344  ASN344     -0.1972
     80  CA        30.1720   48.1320   95.1850 C.3   344  ASN344      0.1688
     81  C         30.8550   49.0290   94.1490 C.2   344  ASN344      0.2292
     82  O         31.4770   48.5440   93.2120 O.2   344  ASN344     -0.2864
     83  CB        31.1440   47.8070   96.3180 C.3   344  ASN344      0.1181
     84  CG        30.4300   47.3300   97.5740 C.2   344  ASN344      0.2629
     85  OD1       30.4100   46.1340   97.8800 O.2   344  ASN344     -0.2716
     86  ND2       29.8210   48.2660   98.2980 N.am  344  ASN344     -0.0877
     87  N         34.4900   48.5560   92.5110 N.3   347  ILE347     -0.1245
     88  CA        34.8560   47.4990   91.5580 C.3   347  ILE347      0.1561
     89  C         34.4230   47.8160   90.1280 C.2   347  ILE347      0.2260
     90  O         34.7070   47.0440   89.2040 O.2   347  ILE347     -0.2867
     91  CB        34.2620   46.1290   91.9200 C.3   347  ILE347      0.0252
     92  CG1       32.7670   46.0990   91.5840 C.3   347  ILE347      0.0019
     93  CG2       34.5690   45.7630   93.3870 C.3   347  ILE347      0.0019
     94  CD1       32.1580   44.7230   91.6900 C.3   347  ILE347      0.0001
@<TRIPOS>BOND
     1     3     4    2
     2     3     2    1
     3     1     2    1
     4     2     5    1
     5    13    12    2
     6     9     8    1
     7    10    11    1
     8     5     6    1
     9     7     8    1
    10     7     6    1
    11    12    11    1
    12    11    14    1
    13    25    24    2
    14    17    19   ar
    15    17    15   ar
    16    22    23    1
    17    14    15    1
    18    19    20   ar
    19    15    16   ar
    20    20    21    1
    21    20    18   ar
    22    24    23    1
    23    16    18   ar
    24    26    23    1
    25    26    27    1
    26    29    27   ar
    27    90    89    2
    28    27    28   ar
    29    89    88    1
    30    78    76    1
    31    77    75    1
    32    76    75    1
    33    88    91    1
    34    88    87    1
    35    92    94    1
    36    92    91    1
    37    75    72    1
    38    91    93    1
    39    37    35   am
    40    46    44   am
    41    32    31    1
    42    32    33    2
    43    31    34    1
    44    31    30    1
    45    34    35    1
    46    35    36    2
    47    82    81    2
    48    72    71    1
    49    72    73    1
    50    44    45    2
    51    44    43    1
    52    71    65   am
    53    73    74    2
    54    73    79   am
    55    81    80    1
    56    43    42    1
    57    79    80    1
    58    80    83    1
    59    65    66    2
    60    65    64    1
    61    57    56    2
    62    42    39    1
    63    64    67    1
    64    64    63    1
    65    50    49    2
    66    83    84    1
    67    56    63   am
    68    56    55    1
    69    69    68   ar
    70    39    38    1
    71    39    40    1
    72    67    68    1
    73    68    70   ar
    74    47    40   am
    75    47    48    1
    76    49    54   am
    77    49    48    1
    78    55    54    1
    79    55    58    1
    80    84    85    2
    81    84    86   am
    82    40    41    2
    83    52    51    1
    84    62    61    1
    85    59    58    1
    86    59    60    1
    87    48    51    1
    88    61    60    1
    89    51    53    1
