@<TRIPOS>MOLECULE
tmp/3r4xA05.pdb
 107 106 0 0 0
SMALL
GASTEIGER

@<TRIPOS>ATOM
      1  N          2.9500   -5.8590   26.7710 N.3   113  PHE113     -0.1241
      2  CA         2.5720   -4.9220   27.8150 C.3   113  PHE113      0.1605
      3  C          2.3440   -5.7000   29.0960 C.2   113  PHE113      0.2264
      4  O          1.4510   -6.5380   29.1740 O.2   113  PHE113     -0.2867
      5  CB         1.2940   -4.1730   27.4500 C.3   113  PHE113      0.0534
      6  CG         0.8900   -3.1140   28.4480 C.ar  113  PHE113     -0.0203
      7  CD1        1.8510   -2.4450   29.2260 C.ar  113  PHE113     -0.0042
      8  CD2       -0.4490   -2.7440   28.5660 C.ar  113  PHE113     -0.0042
      9  CE1        1.4630   -1.3900   30.0830 C.ar  113  PHE113     -0.0003
     10  CE2       -0.8650   -1.7090   29.4400 C.ar  113  PHE113     -0.0003
     11  CZ         0.1030   -1.0260   30.1880 C.ar  113  PHE113     -0.0000
     12  N         -3.0740   12.1590   33.4590 N.3   235  PRO235     -0.2116
     13  CA        -1.6990   12.6450   33.6510 C.3   235  PRO235      0.1372
     14  C         -1.4080   13.7720   32.6700 C.2   235  PRO235      0.2244
     15  O         -0.6200   14.6730   32.9480 O.2   235  PRO235     -0.2868
     16  CB        -0.8230   11.4070   33.4310 C.3   235  PRO235      0.0268
     17  CG        -1.6460   10.4990   32.5870 C.3   235  PRO235      0.0207
     18  CD        -3.1030   10.7660   32.9710 C.3   235  PRO235      0.0892
     19  N         -5.2250   13.0900   27.7750 N.3   247  CYS247     -0.1235
     20  CA        -4.4800   12.1440   26.9610 C.3   247  CYS247      0.1677
     21  C         -5.3940   11.6400   25.8330 C.2   247  CYS247      0.2270
     22  O         -6.6160   11.8620   25.8180 O.2   247  CYS247     -0.2867
     23  CB        -4.0570   10.9550   27.8180 C.3   247  CYS247      0.0956
     24  SG        -2.9840   11.3570   29.2300 S.3   247  CYS247     -0.0801
     25  N         -2.7740    1.4720   25.7250 N.3   253  PHE253     -0.1227
     26  CA        -2.8400    2.1970   26.9580 C.3   253  PHE253      0.1736
     27  C         -1.7450    3.2440   27.1290 C.2   253  PHE253      0.2595
     28  O         -1.9950    4.2440   27.7000 O.2   253  PHE253     -0.2718
     29  CB        -2.8850    1.2030   28.1340 C.3   253  PHE253      0.0547
     30  CG        -2.5100    1.7810   29.4630 C.ar  253  PHE253     -0.0202
     31  CD1       -3.4640    2.2510   30.3290 C.ar  253  PHE253     -0.0042
     32  CD2       -1.2100    1.8270   29.8680 C.ar  253  PHE253     -0.0042
     33  CE1       -3.1140    2.7760   31.5540 C.ar  253  PHE253     -0.0003
     34  CE2       -0.8770    2.3400   31.0720 C.ar  253  PHE253     -0.0003
     35  CZ        -1.8340    2.8100   31.9140 C.ar  253  PHE253     -0.0000
     36  N         -0.5600    3.1280   26.5100 N.am  254  ARG254     -0.1980
     37  CA         0.5560    4.0370   26.6390 C.3   254  ARG254      0.1597
     38  C          0.7610    5.0950   25.5880 C.2   254  ARG254      0.2287
     39  O          1.7390    5.8420   25.6560 O.2   254  ARG254     -0.2864
     40  CB         1.8770    3.2100   26.6830 C.3   254  ARG254      0.0334
     41  CG         1.9000    2.0750   27.7150 C.3   254  ARG254      0.0492
     42  CD         2.8070    0.8940   27.3200 C.3   254  ARG254      0.2205
     43  NE         2.2320    0.0390   26.2780 N.pl3 254  ARG254     -0.0865
     44  CZ         2.7490   -1.1250   25.8910 C.cat 254  ARG254      0.5346
     45  NH1        3.8650   -1.5810   26.4330 N.pl3 254  ARG254      0.1354
     46  NH2        2.1330   -1.8360   24.9460 N.pl3 254  ARG254      0.1354
     47  N          0.0130    8.0740   24.9300 N.3   256  SER256     -0.1202
     48  CA         0.3380    9.4460   25.2850 C.3   256  SER256      0.2020
     49  C          1.6230    9.6380   26.1210 C.2   256  SER256      0.2618
     50  O          1.9110   10.7370   26.5360 O.2   256  SER256     -0.2717
     51  CB        -0.8510   10.0950   26.0040 C.3   256  SER256      0.2103
     52  OG        -2.0100   10.0740   25.2020 O.3   256  SER256     -0.2182
     53  N          2.3920    8.5790   26.3310 N.am  257  GLU257     -0.1979
     54  CA         3.5210    8.6360   27.2550 C.3   257  GLU257      0.1602
     55  C          4.5260    9.6990   26.8560 C.2   257  GLU257      0.2287
     56  O          5.0840   10.3670   27.6910 O.2   257  GLU257     -0.2864
     57  CB         4.2070    7.2750   27.4000 C.3   257  GLU257      0.0415
     58  CG         5.5880    7.3180   28.0410 C.3   257  GLU257      0.1163
     59  CD         6.7070    7.1890   27.0360 C.2   257  GLU257      0.3649
     60  OE1        7.8600    7.4780   27.3790 O.co2 257  GLU257     -0.2457
     61  OE2        6.4240    6.8030   25.9010 O.co2 257  GLU257     -0.2457
     62  N          3.5880   12.6530   28.5990 N.3   380  PHE380     -0.1241
     63  CA         2.1290   12.8270   28.7020 C.3   380  PHE380      0.1605
     64  C          1.7220   14.2170   28.2260 C.2   380  PHE380      0.2264
     65  O          0.8150   14.8580   28.7750 O.2   380  PHE380     -0.2867
     66  CB         1.7190   12.5200   30.1400 C.3   380  PHE380      0.0534
     67  CG         1.9480   11.0940   30.5180 C.ar  380  PHE380     -0.0203
     68  CD1        1.0700   10.0890   30.0980 C.ar  380  PHE380     -0.0042
     69  CD2        3.1140   10.7270   31.1800 C.ar  380  PHE380     -0.0042
     70  CE1        1.3340    8.7480   30.3670 C.ar  380  PHE380     -0.0003
     71  CE2        3.3810    9.3760   31.4690 C.ar  380  PHE380     -0.0003
     72  CZ         2.5110    8.3830   31.0250 C.ar  380  PHE380     -0.0000
     73  N         11.9360   11.3100   34.6300 N.3   420  LEU420     -0.1231
     74  CA        10.7720   10.6080   34.1090 C.3   420  LEU420      0.1693
     75  C          9.5330   10.9260   34.9340 C.2   420  LEU420      0.2592
     76  O          9.6170   11.0490   36.1540 O.2   420  LEU420     -0.2718
     77  CB        10.9950    9.0610   34.1000 C.3   420  LEU420      0.0284
     78  CG         9.8170    8.1790   33.5880 C.3   420  LEU420      0.0019
     79  CD1        9.6880    8.2800   32.0810 C.3   420  LEU420      0.0001
     80  CD2       10.0450    6.7280   34.0140 C.3   420  LEU420      0.0001
     81  N          8.4110   11.1380   34.2510 N.am  421  PHE421     -0.1962
     82  CA         7.1340   11.3950   34.9020 C.3   421  PHE421      0.1771
     83  C          6.2870   10.0930   34.8570 C.2   421  PHE421      0.2619
     84  O          6.1220    9.5010   33.7780 O.2   421  PHE421     -0.2715
     85  CB         6.3230   12.4630   34.1410 C.3   421  PHE421      0.0574
     86  CG         4.9870   12.8120   34.7740 C.ar  421  PHE421     -0.0200
     87  CD1        4.8850   13.8460   35.7080 C.ar  421  PHE421     -0.0042
     88  CD2        3.8390   12.0850   34.4360 C.ar  421  PHE421     -0.0042
     89  CE1        3.6630   14.1630   36.3040 C.ar  421  PHE421     -0.0003
     90  CE2        2.6090   12.3870   35.0150 C.ar  421  PHE421     -0.0003
     91  CZ         2.5160   13.4260   35.9560 C.ar  421  PHE421     -0.0000
     92  N          5.7610    9.6470   35.9940 N.am  422  GLN422     -0.1964
     93  CA         4.8870    8.4780   36.0990 C.3   422  GLN422      0.1718
     94  C          3.4970    8.9160   36.5700 C.2   422  GLN422      0.2458
     95  O          3.3870    9.6240   37.5730 O.2   422  GLN422     -0.2730
     96  CB         5.4710    7.4520   37.0760 C.3   422  GLN422      0.0407
     97  CG         6.8220    6.8650   36.6700 C.3   422  GLN422      0.0908
     98  CD         6.7010    5.5350   35.9470 C.2   422  GLN422      0.2608
     99  OE1        6.9740    4.4820   36.5220 O.2   422  GLN422     -0.2717
    100  NE2        6.2850    5.5770   34.6850 N.am  422  GLN422     -0.0878
    101  N          2.4780    8.4530   35.8840 N.am  423  PRO423     -0.2727
    102  CA         1.1210    8.7910   36.2450 C.3   423  PRO423      0.1402
    103  C          0.7840    8.3630   37.6320 C.2   423  PRO423      0.2269
    104  O          1.0880    7.3060   38.0210 O.2   423  PRO423     -0.2865
    105  CB         0.3220    8.0040   35.2380 C.3   423  PRO423      0.0296
    106  CG         1.1280    8.0200   34.0870 C.3   423  PRO423      0.0237
    107  CD         2.5250    7.8940   34.5350 C.3   423  PRO423      0.0939
@<TRIPOS>BOND
     1    47    48    1
     2    46    44    1
     3    52    51    1
     4    48    51    1
     5    48    49    1
     6    38    39    2
     7    38    37    1
     8    25    26    1
     9    22    21    2
    10    21    20    1
    11    44    43    2
    12    44    45    1
    13    61    59   ar
    14    49    53   am
    15    49    50    2
    16    43    42    1
    17    53    54    1
    18    36    37    1
    19    36    27   am
    20    37    40    1
    21    40    41    1
    22     1     2    1
    23    55    54    1
    24    55    56    2
    25    26    27    1
    26    26    29    1
    27    20    19    1
    28    20    23    1
    29    59    60   ar
    30    59    58    1
    31    27    28    2
    32    54    57    1
    33    42    41    1
    34    57    58    1
    35     5     2    1
    36     5     6    1
    37     2     3    1
    38    23    24    1
    39    29    30    1
    40    64    63    1
    41    64    65    2
    42     6     8   ar
    43     6     7   ar
    44     8    10   ar
    45    62    63    1
    46    63    66    1
    47     3     4    2
    48     7     9   ar
    49    10    11   ar
    50    30    32   ar
    51    30    31   ar
    52    32    34   ar
    53     9    11   ar
    54    68    70   ar
    55    68    67   ar
    56    66    67    1
    57    31    33   ar
    58    70    72   ar
    59    67    69   ar
    60    72    71   ar
    61    34    35   ar
    62    69    71   ar
    63    33    35   ar
    64    79    78    1
    65    17    18    1
    66    17    16    1
    67    14    15    2
    68    14    13    1
    69    18    12    1
    70    16    13    1
    71    12    13    1
    72    78    80    1
    73    78    77    1
    74    84    83    2
    75   106   107    1
    76   106   105    1
    77    77    74    1
    78    74    73    1
    79    74    75    1
    80    85    86    1
    81    85    82    1
    82    81    82    1
    83    81    75   am
    84    88    86   ar
    85    88    90   ar
    86   107   101    1
    87   100    98   am
    88    86    87   ar
    89    83    82    1
    90    83    92   am
    91    75    76    2
    92    90    91   ar
    93   105   102    1
    94    87    89   ar
    95   101   102    1
    96   101    94   am
    97    98    99    2
    98    98    97    1
    99    91    89   ar
   100    92    93    1
   101    93    94    1
   102    93    96    1
   103   102   103    1
   104    94    95    2
   105    97    96    1
   106   103   104    2
