@<TRIPOS>MOLECULE
tmp/3r56A01.pdb
 79 73 0 0 0
SMALL
GASTEIGER

@<TRIPOS>ATOM
      1  N         12.0320   15.4840   16.7430 N.3    62  GLN62      -0.1245
      2  CA        10.8750   15.1300   17.5740 C.3    62  GLN62       0.1566
      3  C         10.5660   13.6350   17.5130 C.2    62  GLN62       0.2260
      4  O         10.6000   13.0250   16.4430 O.2    62  GLN62      -0.2867
      5  CB         9.6470   15.9310   17.1360 C.3    62  GLN62       0.0367
      6  CG         8.3920   15.6930   17.9720 C.3    62  GLN62       0.0905
      7  CD         7.2640   16.6440   17.6160 C.2    62  GLN62       0.2608
      8  OE1        7.4990   17.7650   17.1670 O.2    62  GLN62      -0.2717
      9  NE2        6.0290   16.2040   17.8300 N.am   62  GLN62      -0.0878
     10  N          2.7890   11.3190   15.2550 N.3    71  GLY71      -0.1210
     11  CA         2.7360   12.6410   15.8670 C.3    71  GLY71       0.1956
     12  C          1.3850   13.0280   16.4430 C.2    71  GLY71       0.2613
     13  O          1.2420   14.1120   17.0020 O.2    71  GLY71      -0.2717
     14  N          0.3910   12.1500   16.3160 N.am   72  THR72      -0.1938
     15  CA        -0.9360   12.4110   16.8800 C.3    72  THR72       0.2028
     16  C         -1.1310   11.7640   18.2490 C.2    72  THR72       0.2642
     17  O         -2.0460   12.1380   18.9830 O.2    72  THR72      -0.2714
     18  CB        -2.0590   11.8990   15.9510 C.3    72  THR72       0.1808
     19  OG1       -1.9220   10.4850   15.7550 O.3    72  THR72      -0.2208
     20  CG2       -2.0170   12.6140   14.6050 C.3    72  THR72       0.0379
     21  N         -0.2740   10.8010   18.5880 N.am   73  GLY73      -0.1954
     22  CA        -0.4950    9.9440   19.7480 C.3    73  GLY73       0.1869
     23  C          0.4900   10.1210   20.8850 C.2    73  GLY73       0.2309
     24  O          1.0290   11.2100   21.1010 O.2    73  GLY73      -0.2863
     25  N         -2.9840   12.7380   28.9100 N.3    81  ARG81      -0.1245
     26  CA        -2.3300   14.0480   28.8650 C.3    81  ARG81       0.1563
     27  C         -2.1050   14.5950   30.2760 C.2    81  ARG81       0.2260
     28  O         -2.7930   14.1910   31.2120 O.2    81  ARG81      -0.2867
     29  CB        -3.1770   15.0370   28.0580 C.3    81  ARG81       0.0307
     30  CG        -3.4260   14.6350   26.5970 C.3    81  ARG81       0.0489
     31  CD        -2.1570   14.7120   25.7720 C.3    81  ARG81       0.2205
     32  NE        -2.3920   14.4950   24.3430 N.pl3  81  ARG81      -0.0865
     33  CZ        -2.2050   13.3460   23.6890 C.cat  81  ARG81       0.5346
     34  NH1       -1.7710   12.2560   24.3110 N.pl3  81  ARG81       0.1354
     35  NH2       -2.4550   13.2870   22.3850 N.pl3  81  ARG81       0.1354
     36  N          6.8450   18.1990   23.4120 N.3   100  ALA100     -0.1231
     37  CA         5.9460   18.5460   22.3210 C.3   100  ALA100      0.1694
     38  C          4.5430   18.6120   22.8980 C.2   100  ALA100      0.2592
     39  O          4.2560   17.9960   23.9250 O.2   100  ALA100     -0.2718
     40  CB         6.0190   17.5070   21.2130 C.3   100  ALA100      0.0304
     41  N          3.6690   19.3720   22.2530 N.am  101  ASN101     -0.1960
     42  CA         2.2880   19.4690   22.7000 C.3   101  ASN101      0.1819
     43  C          1.3760   19.9280   21.5740 C.2   101  ASN101      0.2621
     44  O          1.8400   20.2010   20.4610 O.2   101  ASN101     -0.2715
     45  CB         2.1780   20.3820   23.9360 C.3   101  ASN101      0.1195
     46  CG         2.5210   21.8400   23.6430 C.2   101  ASN101      0.2630
     47  OD1        2.0600   22.4130   22.6590 O.2   101  ASN101     -0.2716
     48  ND2        3.3060   22.4510   24.5210 N.am  101  ASN101     -0.0877
     49  N          0.0810   19.9770   21.8710 N.am  102  ALA102     -0.1977
     50  CA        -0.9350   20.4400   20.9320 C.3   102  ALA102      0.1597
     51  C         -1.6730   21.6340   21.5310 C.2   102  ALA102      0.2287
     52  O         -2.8910   21.7510   21.3930 O.2   102  ALA102     -0.2864
     53  CB        -1.9050   19.3100   20.6200 C.3   102  ALA102      0.0319
     54  N         -1.2420   19.8750   27.2200 N.3   106  THR106     -0.1218
     55  CA        -1.4530   18.6640   26.4200 C.3   106  THR106      0.1862
     56  C         -0.1640   17.8470   26.2900 C.2   106  THR106      0.2287
     57  O          0.1270   17.2720   25.2370 O.2   106  THR106     -0.2866
     58  CB        -2.0170   19.0000   25.0200 C.3   106  THR106      0.1770
     59  OG1       -1.1480   19.9220   24.3550 O.3   106  THR106     -0.2211
     60  CG2       -3.4150   19.6020   25.1330 C.3   106  THR106      0.0375
     61  N          2.0940   14.6400   26.7230 N.3   108  GLY108     -0.1210
     62  CA         1.8440   13.2030   26.7630 C.3   108  GLY108      0.1956
     63  C          3.1620   12.4790   26.8870 C.2   108  GLY108      0.2613
     64  O          3.7080   12.3490   27.9860 O.2   108  GLY108     -0.2717
     65  N          3.6750   12.0180   25.7510 N.am  109  SER109     -0.1938
     66  CA         5.0000   11.4110   25.6890 C.3   109  SER109      0.2055
     67  C          5.8960   12.0070   24.6080 C.2   109  SER109      0.2642
     68  O          7.0980   11.7750   24.6250 O.2   109  SER109     -0.2714
     69  CB         4.8790    9.9090   25.4630 C.3   109  SER109      0.2130
     70  OG         4.1010    9.6360   24.3160 O.3   109  SER109     -0.2179
     71  N          5.3350   12.7710   23.6720 N.am  110  GLN110     -0.1976
     72  CA         6.1440   13.3140   22.5920 C.3   110  GLN110      0.1601
     73  C          7.0660   14.4050   23.1190 C.2   110  GLN110      0.2287
     74  O          6.6810   15.2200   23.9670 O.2   110  GLN110     -0.2864
     75  CB         5.2800   13.8560   21.4590 C.3   110  GLN110      0.0394
     76  CG         4.5620   12.7770   20.6830 C.3   110  GLN110      0.0908
     77  CD         3.8760   13.3270   19.4610 C.2   110  GLN110      0.2608
     78  OE1        4.5120   13.9530   18.6130 O.2   110  GLN110     -0.2717
     79  NE2        2.5700   13.1080   19.3650 N.am  110  GLN110     -0.0878
@<TRIPOS>BOND
     1    20    18    1
     2    10    11    1
     3    19    18    1
     4    11    12    1
     5    18    15    1
     6    14    12   am
     7    14    15    1
     8     4     3    2
     9    12    13    2
    10     1     2    1
    11    15    16    1
    12     5     2    1
    13     5     6    1
    14     8     7    2
    15     3     2    1
    16     7     9   am
    17     7     6    1
    18    16    21   am
    19    16    17    2
    20    21    22    1
    21    78    77    2
    22    79    77   am
    23    77    76    1
    24    22    23    1
    25    44    43    2
    26    53    50    1
    27    76    75    1
    28    23    24    2
    29    50    51    1
    30    50    49    1
    31    40    37    1
    32    52    51    2
    33    75    72    1
    34    43    49   am
    35    43    42    1
    36    41    42    1
    37    41    38   am
    38    37    38    1
    39    37    36    1
    40    35    33    1
    41    72    73    1
    42    72    71    1
    43    47    46    2
    44    42    45    1
    45    38    39    2
    46    73    74    2
    47    46    45    1
    48    46    48   am
    49    71    67   am
    50    33    34    1
    51    33    32    2
    52    70    69    1
    53    32    31    1
    54    59    58    1
    55    67    68    2
    56    67    66    1
    57    58    60    1
    58    58    55    1
    59    57    56    2
    60    69    66    1
    61    66    65    1
    62    65    63   am
    63    31    30    1
    64    56    55    1
    65    55    54    1
    66    30    29    1
    67    61    62    1
    68    62    63    1
    69    63    64    2
    70    29    26    1
    71    26    25    1
    72    26    27    1
    73    27    28    2
