@<TRIPOS>MOLECULE
tmp/3r57A00.pdb
 73 66 0 0 0
SMALL
GASTEIGER

@<TRIPOS>ATOM
      1  N         12.0850   15.4920   17.0240 N.3    62  GLN62      -0.1245
      2  CA        10.9260   15.1270   17.8450 C.3    62  GLN62       0.1566
      3  C         10.6780   13.6180   17.8680 C.2    62  GLN62       0.2260
      4  O         10.7880   12.9460   16.8420 O.2    62  GLN62      -0.2867
      5  CB         9.6740   15.8540   17.3500 C.3    62  GLN62       0.0367
      6  CG         8.4550   15.7060   18.2530 C.3    62  GLN62       0.0905
      7  CD         7.2550   16.4840   17.7430 C.2    62  GLN62       0.2608
      8  OE1        7.4030   17.5150   17.0910 O.2    62  GLN62      -0.2717
      9  NE2        6.0600   15.9980   18.0490 N.am   62  GLN62      -0.0878
     10  N          2.9880   11.6120   15.6470 N.3    71  GLY71      -0.1210
     11  CA         2.8120   12.9210   16.2730 C.3    71  GLY71       0.1956
     12  C          1.4320   13.1920   16.8450 C.2    71  GLY71       0.2613
     13  O          1.1900   14.2640   17.4000 O.2    71  GLY71      -0.2717
     14  N          0.5230   12.2280   16.7170 N.am   72  THR72      -0.1938
     15  CA        -0.8360   12.3960   17.2390 C.3    72  THR72       0.2028
     16  C         -1.0420   11.7010   18.5850 C.2    72  THR72       0.2642
     17  O         -2.0400   11.9510   19.2690 O.2    72  THR72      -0.2714
     18  CB        -1.9070   11.8690   16.2570 C.3    72  THR72       0.1808
     19  OG1       -1.7330   10.4600   16.0670 O.3    72  THR72      -0.2208
     20  CG2       -1.8330   12.5920   14.9070 C.3    72  THR72       0.0379
     21  N         -0.1060   10.8350   18.9650 N.am   73  GLY73      -0.1954
     22  CA        -0.3120    9.9560   20.1140 C.3    73  GLY73       0.1869
     23  C          0.6300   10.1030   21.2940 C.2    73  GLY73       0.2309
     24  O          1.1690   11.1810   21.5590 O.2    73  GLY73      -0.2863
     25  N         -2.8050   12.9040   29.4570 N.3    81  ARG81      -0.1245
     26  CA        -2.1140   14.1980   29.4270 C.3    81  ARG81       0.1563
     27  C         -1.9680   14.7830   30.8300 C.2    81  ARG81       0.2260
     28  O         -2.7460   14.4540   31.7340 O.2    81  ARG81      -0.2867
     29  CB        -2.8690   15.1990   28.5370 C.3    81  ARG81       0.0307
     30  CG        -3.0870   14.7680   27.0780 C.3    81  ARG81       0.0489
     31  CD        -1.7870   14.7790   26.2710 C.3    81  ARG81       0.2205
     32  NE        -1.9920   14.3690   24.8820 N.pl3  81  ARG81      -0.0865
     33  CZ        -1.7930   13.1380   24.4180 C.cat  81  ARG81       0.5346
     34  NH1       -1.3840   12.1690   25.2280 N.pl3  81  ARG81       0.1354
     35  NH2       -2.0110   12.8700   23.1360 N.pl3  81  ARG81       0.1354
     36  N          6.9570   18.2240   23.8500 N.3   100  ALA100     -0.1231
     37  CA         6.0550   18.5340   22.7450 C.3   100  ALA100      0.1694
     38  C          4.6470   18.6460   23.3110 C.2   100  ALA100      0.2592
     39  O          4.3580   18.0970   24.3740 O.2   100  ALA100     -0.2718
     40  CB         6.1160   17.4440   21.6890 C.3   100  ALA100      0.0304
     41  N          3.7800   19.3810   22.6220 N.am  101  ASN101     -0.1960
     42  CA         2.3880   19.4970   23.0480 C.3   101  ASN101      0.1819
     43  C          1.4400   19.8910   21.9150 C.2   101  ASN101      0.2621
     44  O          1.8680   20.1080   20.7750 O.2   101  ASN101     -0.2715
     45  CB         2.2530   20.4390   24.2600 C.3   101  ASN101      0.1195
     46  CG         2.5900   21.8930   23.9320 C.2   101  ASN101      0.2630
     47  OD1        2.1160   22.4490   22.9420 O.2   101  ASN101     -0.2716
     48  ND2        3.3900   22.5210   24.7900 N.am  101  ASN101     -0.0877
     49  N          0.1530   19.9620   22.2410 N.am  102  ALA102     -0.1977
     50  CA        -0.8690   20.3990   21.2940 C.3   102  ALA102      0.1597
     51  C         -1.5910   21.6130   21.8700 C.2   102  ALA102      0.2287
     52  O         -2.8070   21.7760   21.7100 O.2   102  ALA102     -0.2864
     53  CB        -1.8440   19.2630   21.0030 C.3   102  ALA102      0.0319
     54  N         -1.0950   19.9780   27.6500 N.3   106  THR106     -0.1218
     55  CA        -1.3160   18.7550   26.8730 C.3   106  THR106      0.1862
     56  C         -0.0370   17.9250   26.7590 C.2   106  THR106      0.2287
     57  O          0.2220   17.3000   25.7300 O.2   106  THR106     -0.2866
     58  CB        -1.9010   19.0390   25.4610 C.3   106  THR106      0.1770
     59  OG1       -1.0500   19.9460   24.7510 O.3   106  THR106     -0.2211
     60  CG2       -3.3050   19.6290   25.5570 C.3   106  THR106      0.0375
     61  N          2.2200   14.7730   27.1330 N.3   108  GLY108     -0.1225
     62  CA         1.9680   13.3330   27.1320 C.3   108  GLY108      0.1811
     63  C          3.2770   12.5990   27.2860 C.2   108  GLY108      0.2280
     64  O          3.8430   12.5460   28.3810 O.2   108  GLY108     -0.2866
     65  N          5.4090   12.6980   24.0890 N.3   110  GLN110     -0.1245
     66  CA         6.1990   13.2840   23.0090 C.3   110  GLN110      0.1566
     67  C          7.1260   14.3790   23.5150 C.2   110  GLN110      0.2260
     68  O          6.7540   15.1760   24.3830 O.2   110  GLN110     -0.2867
     69  CB         5.3000   13.8180   21.9010 C.3   110  GLN110      0.0367
     70  CG         4.5650   12.7300   21.1430 C.3   110  GLN110      0.0905
     71  CD         3.8750   13.2760   19.9240 C.2   110  GLN110      0.2608
     72  OE1        4.5070   13.8810   19.0590 O.2   110  GLN110     -0.2717
     73  NE2        2.5660   13.0740   19.8470 N.am  110  GLN110     -0.0878
@<TRIPOS>BOND
     1    20    18    1
     2    10    11    1
     3    19    18    1
     4    18    15    1
     5    11    12    1
     6    14    12   am
     7    14    15    1
     8     4     3    2
     9    12    13    2
    10     1     2    1
    11     8     7    2
    12    15    16    1
    13     5     2    1
    14     5     6    1
    15     7     9   am
    16     7     6    1
    17     2     3    1
    18    16    21   am
    19    16    17    2
    20    21    22    1
    21    72    71    2
    22    73    71   am
    23    71    70    1
    24    22    23    1
    25    44    43    2
    26    53    50    1
    27    70    69    1
    28    23    24    2
    29    50    51    1
    30    50    49    1
    31    40    37    1
    32    52    51    2
    33    69    66    1
    34    43    49   am
    35    43    42    1
    36    41    42    1
    37    41    38   am
    38    37    38    1
    39    37    36    1
    40    47    46    2
    41    66    67    1
    42    66    65    1
    43    42    45    1
    44    35    33    1
    45    38    39    2
    46    67    68    2
    47    46    45    1
    48    46    48   am
    49    33    32    2
    50    33    34    1
    51    59    58    1
    52    32    31    1
    53    58    60    1
    54    58    55    1
    55    57    56    2
    56    31    30    1
    57    56    55    1
    58    55    54    1
    59    30    29    1
    60    62    61    1
    61    62    63    1
    62    63    64    2
    63    29    26    1
    64    26    25    1
    65    26    27    1
    66    27    28    2
