@<TRIPOS>MOLECULE
tmp/3r57A01.pdb
 96 94 0 0 0
SMALL
GASTEIGER

@<TRIPOS>ATOM
      1  N          9.5410   13.1290   13.4820 N.3    54  ARG54      -0.1245
      2  CA         9.5680   14.4700   12.9070 C.3    54  ARG54       0.1563
      3  C         10.8850   15.1550   13.2580 C.2    54  ARG54       0.2260
      4  O         11.1790   15.4000   14.4300 O.2    54  ARG54      -0.2867
      5  CB         8.3720   15.2870   13.4030 C.3    54  ARG54       0.0307
      6  CG         8.3120   16.7210   12.9070 C.3    54  ARG54       0.0489
      7  CD         7.3420   17.5090   13.7670 C.3    54  ARG54       0.2205
      8  NE         7.0700   18.8370   13.2310 N.pl3  54  ARG54      -0.0865
      9  CZ         6.4780   19.8140   13.9110 C.cat  54  ARG54       0.5346
     10  NH1        6.1040   19.6310   15.1750 N.pl3  54  ARG54       0.1354
     11  NH2        6.2710   20.9820   13.3250 N.pl3  54  ARG54       0.1354
     12  N         16.5530   23.1360   13.6440 N.3    59  PHE59      -0.1227
     13  CA        15.4590   23.3760   14.5810 C.3    59  PHE59       0.1736
     14  C         15.4530   22.3460   15.7100 C.2    59  PHE59       0.2595
     15  O         15.9390   22.6260   16.8080 O.2    59  PHE59      -0.2718
     16  CB        14.1150   23.4340   13.8330 C.3    59  PHE59       0.0547
     17  CG        12.9080   23.7080   14.7110 C.ar   59  PHE59      -0.0202
     18  CD1       13.0320   24.2890   15.9750 C.ar   59  PHE59      -0.0042
     19  CD2       11.6300   23.4160   14.2360 C.ar   59  PHE59      -0.0042
     20  CE1       11.9030   24.5370   16.7680 C.ar   59  PHE59      -0.0003
     21  CE2       10.4960   23.6680   15.0150 C.ar   59  PHE59      -0.0003
     22  CZ        10.6340   24.2310   16.2830 C.ar   59  PHE59      -0.0000
     23  N         14.9250   21.1550   15.4400 N.am   60  MET60      -0.1979
     24  CA        14.7230   20.1660   16.5030 C.3    60  MET60       0.1605
     25  C         14.4420   18.7600   15.9790 C.2    60  MET60       0.2287
     26  O         14.0550   18.5780   14.8190 O.2    60  MET60      -0.2864
     27  CB        13.6010   20.6240   17.4560 C.3    60  MET60       0.0413
     28  CG        12.2290   20.7860   16.7990 C.3    60  MET60       0.0598
     29  SD        11.2740   19.2580   16.8480 S.3    60  MET60      -0.1393
     30  CE        10.4820   19.2960   15.2410 C.3    60  MET60       0.0692
     31  N         12.0850   15.4920   17.0240 N.3    62  GLN62      -0.1245
     32  CA        10.9260   15.1270   17.8450 C.3    62  GLN62       0.1566
     33  C         10.6780   13.6180   17.8680 C.2    62  GLN62       0.2260
     34  O         10.7880   12.9460   16.8420 O.2    62  GLN62      -0.2867
     35  CB         9.6740   15.8540   17.3500 C.3    62  GLN62       0.0367
     36  CG         8.4550   15.7060   18.2530 C.3    62  GLN62       0.0905
     37  CD         7.2550   16.4840   17.7430 C.2    62  GLN62       0.2608
     38  OE1        7.4030   17.5150   17.0910 O.2    62  GLN62      -0.2717
     39  NE2        6.0600   15.9980   18.0490 N.am   62  GLN62      -0.0878
     40  N          6.9570   18.2240   23.8500 N.3   100  ALA100     -0.1245
     41  CA         6.0550   18.5340   22.7450 C.3   100  ALA100      0.1562
     42  C          4.6470   18.6460   23.3110 C.2   100  ALA100      0.2260
     43  O          4.3580   18.0970   24.3740 O.2   100  ALA100     -0.2867
     44  CB         6.1160   17.4440   21.6890 C.3   100  ALA100      0.0290
     45  N         11.0350   16.7790   22.3840 N.3   112  PHE112     -0.1241
     46  CA        11.9950   17.1650   21.3530 C.3   112  PHE112      0.1605
     47  C         13.3370   17.5850   21.9290 C.2   112  PHE112      0.2264
     48  O         13.4220   18.0300   23.0790 O.2   112  PHE112     -0.2867
     49  CB        11.4280   18.2200   20.3860 C.3   112  PHE112      0.0534
     50  CG        11.0170   19.5170   21.0390 C.ar  112  PHE112     -0.0203
     51  CD1        9.7890   19.6300   21.6900 C.ar  112  PHE112     -0.0042
     52  CD2       11.8370   20.6410   20.9550 C.ar  112  PHE112     -0.0042
     53  CE1        9.4000   20.8360   22.2780 C.ar  112  PHE112     -0.0003
     54  CE2       11.4570   21.8530   21.5360 C.ar  112  PHE112     -0.0003
     55  CZ        10.2370   21.9510   22.1980 C.ar  112  PHE112     -0.0000
     56  N         11.4030   31.3210   20.9670 N.3   120  TRP120     -0.1227
     57  CA         9.9730   31.5550   20.7580 C.3   120  TRP120      0.1737
     58  C          9.0960   30.4680   21.3920 C.2   120  TRP120      0.2595
     59  O          7.8690   30.6020   21.4520 O.2   120  TRP120     -0.2718
     60  CB         9.6600   31.7210   19.2640 C.3   120  TRP120      0.0564
     61  CG         9.7860   30.4620   18.4490 C.ar  120  TRP120      0.0003
     62  CD1        8.7780   29.6040   18.1140 C.ar  120  TRP120      0.0946
     63  CD2       10.9780   29.9310   17.8540 C.ar  120  TRP120      0.0152
     64  NE1        9.2680   28.5680   17.3550 N.ar  120  TRP120     -0.2442
     65  CE2       10.6140   28.7410   17.1820 C.ar  120  TRP120      0.0810
     66  CE3       12.3190   30.3400   17.8290 C.ar  120  TRP120      0.0012
     67  CZ2       11.5410   27.9560   16.4870 C.ar  120  TRP120      0.0191
     68  CZ3       13.2430   29.5590   17.1350 C.ar  120  TRP120      0.0001
     69  CH2       12.8470   28.3780   16.4750 C.ar  120  TRP120      0.0015
     70  N          9.7360   29.3980   21.8580 N.am  121  LEU121     -0.1980
     71  CA         9.0400   28.3050   22.5330 C.3   121  LEU121      0.1596
     72  C          8.9910   28.5040   24.0500 C.2   121  LEU121      0.2287
     73  O          8.2680   27.7920   24.7530 O.2   121  LEU121     -0.2864
     74  CB         9.6750   26.9530   22.1750 C.3   121  LEU121      0.0297
     75  CG         9.6980   26.5870   20.6850 C.3   121  LEU121      0.0022
     76  CD1       10.2690   25.1920   20.4720 C.3   121  LEU121      0.0001
     77  CD2        8.3110   26.6830   20.0860 C.3   121  LEU121      0.0001
     78  N          5.7820   28.3010   26.3510 N.3   124  LYS124     -0.1231
     79  CA         4.8070   27.4930   25.6130 C.3   124  LYS124      0.1693
     80  C          5.0900   25.9940   25.7300 C.2   124  LYS124      0.2592
     81  O          4.1630   25.1800   25.7080 O.2   124  LYS124     -0.2718
     82  CB         4.7520   27.9140   24.1400 C.3   124  LYS124      0.0285
     83  CG         4.1240   29.2870   23.9210 C.3   124  LYS124      0.0035
     84  CD         3.9530   29.5950   22.4390 C.3   124  LYS124      0.0206
     85  CE         3.2350   30.9190   22.2210 C.3   124  LYS124      0.1093
     86  NZ         4.0870   32.0750   22.6000 N.3   124  LYS124     -0.1314
     87  N          6.3720   25.6430   25.8470 N.am  125  HIS125     -0.1976
     88  CA         6.7940   24.2550   26.0320 C.3   125  HIS125      0.1656
     89  C          7.6210   24.1340   27.3030 C.2   125  HIS125      0.2291
     90  O          8.4460   25.0030   27.6010 O.2   125  HIS125     -0.2864
     91  CB         7.5810   23.7570   24.8160 C.3   125  HIS125      0.0771
     92  CG         6.7580   23.6860   23.5680 C.ar  125  HIS125      0.0820
     93  ND1        6.1790   22.5180   23.1230 N.ar  125  HIS125     -0.2267
     94  CD2        6.3780   24.6510   22.6960 C.ar  125  HIS125      0.1154
     95  CE1        5.4910   22.7610   22.0200 C.ar  125  HIS125      0.1986
     96  NE2        5.5950   24.0480   21.7400 N.ar  125  HIS125     -0.2212
@<TRIPOS>BOND
     1     2     3    1
     2     2     5    1
     3     2     1    1
     4     6     5    1
     5     6     7    1
     6     8     7    1
     7     8     9    2
     8     3     4    2
     9    11     9    1
    10    12    13    1
    11    16    13    1
    12    16    17    1
    13     9    10    1
    14    19    17   ar
    15    19    21   ar
    16    13    14    1
    17    17    18   ar
    18    26    25    2
    19    21    22   ar
    20    30    29    1
    21    23    14   am
    22    23    24    1
    23    14    15    2
    24    18    20   ar
    25    25    24    1
    26    22    20   ar
    27    69    67   ar
    28    69    68   ar
    29    67    65   ar
    30    24    27    1
    31    28    29    1
    32    28    27    1
    33    34    33    2
    34    31    32    1
    35    38    37    2
    36    68    66   ar
    37    65    64   ar
    38    65    63   ar
    39    35    32    1
    40    35    36    1
    41    64    62   ar
    42    37    39   am
    43    37    36    1
    44    66    63   ar
    45    32    33    1
    46    63    61   ar
    47    62    61   ar
    48    61    60    1
    49    60    57    1
    50    77    75    1
    51    49    50    1
    52    49    46    1
    53    76    75    1
    54    75    74    1
    55    57    56    1
    56    57    58    1
    57    52    50   ar
    58    52    54   ar
    59    50    51   ar
    60    46    47    1
    61    46    45    1
    62    58    59    2
    63    58    70   am
    64    54    55   ar
    65    44    41    1
    66    51    53   ar
    67    96    95   ar
    68    96    94   ar
    69    70    71    1
    70    47    48    2
    71    95    93   ar
    72    74    71    1
    73    55    53   ar
    74    85    84    1
    75    85    86    1
    76    84    83    1
    77    71    72    1
    78    94    92   ar
    79    41    42    1
    80    41    40    1
    81    93    92   ar
    82    42    43    2
    83    92    91    1
    84    83    82    1
    85    72    73    2
    86    82    79    1
    87    91    88    1
    88    79    80    1
    89    79    78    1
    90    81    80    2
    91    80    87   am
    92    87    88    1
    93    88    89    1
    94    89    90    2
