@<TRIPOS>MOLECULE
tmp/3r58A01.pdb
 157 159 0 0 0
SMALL
GASTEIGER

@<TRIPOS>ATOM
      1  N          2.3130    2.3360   -9.0250 N.3    19  TYR19      -0.1241
      2  CA         0.9030    2.3100   -9.4380 C.3    19  TYR19       0.1605
      3  C         -0.0520    2.9240   -8.3870 C.2    19  TYR19       0.2264
      4  O          0.0750    2.6520   -7.1880 O.2    19  TYR19      -0.2867
      5  CB         0.4060    0.9160   -9.8490 C.3    19  TYR19       0.0534
      6  CG        -1.0160    0.9880  -10.3560 C.ar   19  TYR19      -0.0201
      7  CD1       -1.2880    1.4990  -11.6130 C.ar   19  TYR19      -0.0009
      8  CD2       -2.0990    0.6400   -9.5440 C.ar   19  TYR19      -0.0009
      9  CE1       -2.5930    1.6010  -12.0920 C.ar   19  TYR19       0.0417
     10  CE2       -3.4100    0.7460   -9.9930 C.ar   19  TYR19       0.0417
     11  CZ        -3.6630    1.2240  -11.2850 C.ar   19  TYR19       0.1957
     12  OH        -4.9800    1.3690  -11.7770 O.3    19  TYR19      -0.2866
     13  N          0.9570    1.7860  -18.8970 N.3    49  LEU49      -0.1231
     14  CA        -0.3870    1.6330  -18.3290 C.3    49  LEU49       0.1693
     15  C         -0.7620    2.5230  -17.1220 C.2    49  LEU49       0.2592
     16  O         -1.9520    2.8910  -16.9720 O.2    49  LEU49      -0.2718
     17  CB        -0.6740    0.1630  -17.9840 C.3    49  LEU49       0.0284
     18  CG        -2.1780   -0.1300  -17.7420 C.3    49  LEU49       0.0019
     19  CD1       -3.1170    0.1000  -18.9700 C.3    49  LEU49       0.0001
     20  CD2       -2.3280   -1.5410  -17.1980 C.3    49  LEU49       0.0001
     21  N          0.2110    2.8460  -16.2680 N.am   50  TYR50      -0.1976
     22  CA        -0.0450    3.5430  -14.9760 C.3    50  TYR50       0.1639
     23  C         -0.3790    5.0260  -15.1350 C.2    50  TYR50       0.2290
     24  O         -0.8360    5.6630  -14.1870 O.2    50  TYR50      -0.2864
     25  CB         1.1560    3.3970  -14.0000 C.3    50  TYR50       0.0560
     26  CG         1.5880    1.9710  -13.7670 C.ar   50  TYR50      -0.0198
     27  CD1        0.7370    0.9060  -14.0930 C.ar   50  TYR50      -0.0009
     28  CD2        2.8340    1.6840  -13.1890 C.ar   50  TYR50      -0.0009
     29  CE1        1.1240   -0.3810  -13.8980 C.ar   50  TYR50       0.0417
     30  CE2        3.2270    0.4080  -12.9640 C.ar   50  TYR50       0.0417
     31  CZ         2.3640   -0.6370  -13.3220 C.ar   50  TYR50       0.1957
     32  OH         2.7350   -1.9460  -13.1300 O.3    50  TYR50      -0.2866
     33  N          2.8590   -1.9380  -23.0370 N.3    81  TRP81      -0.1241
     34  CA         1.4670   -2.4300  -22.9320 C.3    81  TRP81       0.1605
     35  C          1.0030   -3.4400  -24.0020 C.2    81  TRP81       0.2264
     36  O          1.5570   -3.4920  -25.1100 O.2    81  TRP81      -0.2867
     37  CB         0.4440   -1.2960  -22.6890 C.3    81  TRP81       0.0550
     38  CG        -0.9570   -1.8780  -22.3550 C.ar   81  TRP81       0.0003
     39  CD1       -2.1000   -1.6430  -23.0380 C.ar   81  TRP81       0.0946
     40  CD2       -1.3040   -2.8180  -21.3110 C.ar   81  TRP81       0.0152
     41  NE1       -3.1430   -2.3420  -22.4890 N.ar   81  TRP81      -0.2442
     42  CE2       -2.6840   -3.0870  -21.4380 C.ar   81  TRP81       0.0810
     43  CE3       -0.5890   -3.4530  -20.3000 C.ar   81  TRP81       0.0012
     44  CZ2       -3.3720   -3.9590  -20.5860 C.ar   81  TRP81       0.0191
     45  CZ3       -1.2740   -4.3300  -19.4290 C.ar   81  TRP81       0.0001
     46  CH2       -2.6510   -4.5830  -19.6040 C.ar   81  TRP81       0.0015
     47  N          4.7030   -6.2730  -20.6360 N.3   112  HIS112     -0.1226
     48  CA         3.9160   -6.1250  -19.4510 C.3   112  HIS112      0.1752
     49  C          3.1310   -7.3880  -19.1800 C.2   112  HIS112      0.2596
     50  O          2.9260   -7.7670  -18.0050 O.2   112  HIS112     -0.2718
     51  CB         2.9700   -4.9280  -19.5960 C.3   112  HIS112      0.0759
     52  CG         2.4540   -4.4140  -18.3000 C.ar  112  HIS112      0.0818
     53  ND1        2.2180   -3.0730  -18.0800 N.ar  112  HIS112     -0.2268
     54  CD2        2.1300   -5.0470  -17.1460 C.ar  112  HIS112      0.1154
     55  CE1        1.7720   -2.8970  -16.8460 C.ar  112  HIS112      0.1986
     56  NE2        1.6800   -4.0830  -16.2640 N.ar  112  HIS112     -0.2212
     57  N          2.7050   -8.0410  -20.2570 N.am  113  SER113     -0.1952
     58  CA         1.7940   -9.1600  -20.1610 C.3   113  SER113      0.1924
     59  C          1.9230   -9.9720  -21.4170 C.2   113  SER113      0.2314
     60  O          2.1790   -9.4220  -22.4640 O.2   113  SER113     -0.2863
     61  CB         0.3830   -8.6380  -20.0450 C.3   113  SER113      0.2116
     62  OG        -0.5470   -9.6680  -20.0840 O.3   113  SER113     -0.2180
     63  N         -0.7050  -11.4180  -22.6280 N.3   115  MET115     -0.1245
     64  CA        -2.0690  -11.5310  -23.1420 C.3   115  MET115      0.1570
     65  C         -2.3210  -10.4070  -24.1070 C.2   115  MET115      0.2261
     66  O         -2.8340   -9.3330  -23.7210 O.2   115  MET115     -0.2867
     67  CB        -3.1150  -11.5140  -22.0350 C.3   115  MET115      0.0387
     68  CG        -3.0190  -12.7160  -21.0750 C.3   115  MET115      0.0595
     69  SD        -4.1650  -12.4980  -19.6850 S.3   115  MET115     -0.1393
     70  CE        -3.2340  -11.2510  -18.7610 C.3   115  MET115      0.0692
     71  N          4.5670  -11.2520  -16.0040 N.3   149  ASN149     -0.1240
     72  CA         3.3620  -12.1150  -16.0200 C.3   149  ASN149      0.1653
     73  C          3.4250  -13.3740  -16.9350 C.2   149  ASN149      0.2266
     74  O          2.3710  -13.9060  -17.3670 O.2   149  ASN149     -0.2867
     75  CB         2.1430  -11.2780  -16.3860 C.3   149  ASN149      0.1155
     76  CG         1.7670  -10.3280  -15.3040 C.2   149  ASN149      0.2627
     77  OD1        1.5190  -10.7520  -14.1510 O.2   149  ASN149     -0.2716
     78  ND2        1.7270   -9.0040  -15.6380 N.am  149  ASN149     -0.0877
     79  N          5.7330   -8.5880   -7.6600 N.3   198  TYR198     -0.1241
     80  CA         4.7880   -7.4750   -7.4600 C.3   198  TYR198      0.1605
     81  C          3.6240   -7.9370   -6.5950 C.2   198  TYR198      0.2264
     82  O          3.4180   -9.1340   -6.3970 O.2   198  TYR198     -0.2867
     83  CB         4.2920   -6.8220   -8.7640 C.3   198  TYR198      0.0534
     84  CG         3.3200   -7.6190   -9.5790 C.ar  198  TYR198     -0.0201
     85  CD1        2.0360   -7.8600   -9.1240 C.ar  198  TYR198     -0.0009
     86  CD2        3.6930   -8.1620  -10.8210 C.ar  198  TYR198     -0.0009
     87  CE1        1.1150   -8.6140   -9.9000 C.ar  198  TYR198      0.0417
     88  CE2        2.7800   -8.9190  -11.6020 C.ar  198  TYR198      0.0417
     89  CZ         1.5080   -9.1310  -11.1250 C.ar  198  TYR198      0.1957
     90  OH         0.5960   -9.8500  -11.8750 O.3   198  TYR198     -0.2866
     91  N        -10.3070   -5.9580  -10.0360 N.3   209  TRP209     -0.1241
     92  CA        -9.6350   -7.2540  -10.2530 C.3   209  TRP209      0.1605
     93  C         -9.5840   -8.1920   -9.0490 C.2   209  TRP209      0.2264
     94  O         -9.2870   -9.3620   -9.1990 O.2   209  TRP209     -0.2867
     95  CB        -8.1790   -7.0420  -10.7350 C.3   209  TRP209      0.0550
     96  CG        -8.0520   -6.1070  -11.8530 C.ar  209  TRP209      0.0003
     97  CD1       -8.5030   -6.3030  -13.1360 C.ar  209  TRP209      0.0946
     98  CD2       -7.4330   -4.8180  -11.8320 C.ar  209  TRP209      0.0152
     99  NE1       -8.2120   -5.2020  -13.9040 N.ar  209  TRP209     -0.2442
    100  CE2       -7.5500   -4.2790  -13.1360 C.ar  209  TRP209      0.0810
    101  CE3       -6.8030   -4.0730  -10.8520 C.ar  209  TRP209      0.0012
    102  CZ2       -7.0560   -3.0090  -13.4830 C.ar  209  TRP209      0.0191
    103  CZ3       -6.2940   -2.8100  -11.1920 C.ar  209  TRP209      0.0001
    104  CH2       -6.4270   -2.2920  -12.4910 C.ar  209  TRP209      0.0015
    105  N         -5.1890  -11.1090   -8.3950 N.3   288  PHE288     -0.1241
    106  CA        -5.7870  -10.6420   -9.6700 C.3   288  PHE288      0.1605
    107  C         -6.5280  -11.8040  -10.2520 C.2   288  PHE288      0.2264
    108  O         -5.9180  -12.7740  -10.6780 O.2   288  PHE288     -0.2867
    109  CB        -4.7270  -10.0620  -10.6070 C.3   288  PHE288      0.0534
    110  CG        -4.0240   -8.8800   -9.9810 C.ar  288  PHE288     -0.0203
    111  CD1       -4.5060   -7.5840  -10.1780 C.ar  288  PHE288     -0.0042
    112  CD2       -2.9540   -9.0750   -9.0920 C.ar  288  PHE288     -0.0042
    113  CE1       -3.9210   -6.5180   -9.5840 C.ar  288  PHE288     -0.0003
    114  CE2       -2.3460   -7.9620   -8.4690 C.ar  288  PHE288     -0.0003
    115  CZ        -2.8260   -6.6990   -8.7380 C.ar  288  PHE288     -0.0000
    116  N         -8.9470  -11.2540  -17.5400 N.3   293  PHE293     -0.1241
    117  CA        -7.7230  -11.9930  -17.8750 C.3   293  PHE293      0.1605
    118  C         -8.0350  -13.4580  -18.1300 C.2   293  PHE293      0.2264
    119  O         -7.4390  -14.0570  -18.9950 O.2   293  PHE293     -0.2867
    120  CB        -6.7220  -11.9900  -16.6900 C.3   293  PHE293      0.0534
    121  CG        -6.4260  -10.6440  -16.1370 C.ar  293  PHE293     -0.0203
    122  CD1       -5.9690   -9.6000  -16.9810 C.ar  293  PHE293     -0.0042
    123  CD2       -6.5490  -10.4050  -14.7560 C.ar  293  PHE293     -0.0042
    124  CE1       -5.6880   -8.3270  -16.4520 C.ar  293  PHE293     -0.0003
    125  CE2       -6.2570   -9.1160  -14.2100 C.ar  293  PHE293     -0.0003
    126  CZ        -5.8290   -8.0850  -15.0640 C.ar  293  PHE293     -0.0000
    127  N         -3.6990  -16.4310  -21.0750 N.3   299  TYR299     -0.1228
    128  CA        -3.7330  -16.3500  -19.6280 C.3   299  TYR299      0.1721
    129  C         -2.6250  -17.1860  -18.9510 C.2   299  TYR299      0.2437
    130  O         -2.6190  -18.3780  -19.0780 O.2   299  TYR299     -0.2733
    131  CB        -5.0980  -16.8320  -19.1970 C.3   299  TYR299      0.0547
    132  CG        -5.4290  -16.7030  -17.7510 C.ar  299  TYR299     -0.0200
    133  CD1       -5.3150  -15.4890  -17.0990 C.ar  299  TYR299     -0.0009
    134  CD2       -5.9360  -17.7980  -17.0480 C.ar  299  TYR299     -0.0009
    135  CE1       -5.6680  -15.3420  -15.7400 C.ar  299  TYR299      0.0417
    136  CE2       -6.2900  -17.6890  -15.7150 C.ar  299  TYR299      0.0417
    137  CZ        -6.1390  -16.4460  -15.0660 C.ar  299  TYR299      0.1957
    138  OH        -6.4840  -16.3240  -13.7720 O.3   299  TYR299     -0.2866
    139  N         -1.7080  -16.5480  -18.2100 N.am  300  PRO300     -0.2718
    140  CA        -0.5970  -17.2130  -17.5360 C.3   300  PRO300      0.1535
    141  C         -0.9950  -18.2970  -16.5390 C.2   300  PRO300      0.2598
    142  O         -0.2500  -19.2710  -16.3770 O.2   300  PRO300     -0.2715
    143  CB         0.0970  -16.0850  -16.7520 C.3   300  PRO300      0.0310
    144  CG        -0.4250  -14.8720  -17.2680 C.3   300  PRO300      0.0237
    145  CD        -1.7660  -15.1190  -17.8790 C.3   300  PRO300      0.0939
    146  N         -2.1440  -18.1490  -15.8800 N.am  301  TYR301     -0.1974
    147  CA        -2.4550  -19.0360  -14.7810 C.3   301  TYR301      0.1639
    148  C         -3.2640  -20.2790  -15.2290 C.2   301  TYR301      0.2290
    149  O         -3.8320  -20.9790  -14.3990 O.2   301  TYR301     -0.2864
    150  CB        -3.1520  -18.2870  -13.6520 C.3   301  TYR301      0.0560
    151  CG        -2.4010  -17.0940  -13.1320 C.ar  301  TYR301     -0.0198
    152  CD1       -1.0030  -17.1260  -12.9110 C.ar  301  TYR301     -0.0009
    153  CD2       -3.0630  -15.9160  -12.8530 C.ar  301  TYR301     -0.0009
    154  CE1       -0.3170  -15.9880  -12.4050 C.ar  301  TYR301      0.0417
    155  CE2       -2.3860  -14.8270  -12.3450 C.ar  301  TYR301      0.0417
    156  CZ        -1.0150  -14.8690  -12.1130 C.ar  301  TYR301      0.1957
    157  OH        -0.3720  -13.7210  -11.6530 O.3   301  TYR301     -0.2866
@<TRIPOS>BOND
     1    36    35    2
     2    65    66    2
     3    65    64    1
     4    35    34    1
     5    64    63    1
     6    64    67    1
     7    39    41   ar
     8    39    38   ar
     9    33    34    1
    10    34    37    1
    11    37    38    1
    12    41    42   ar
    13    60    59    2
    14    38    40   ar
    15    67    68    1
    16    42    40   ar
    17    42    44   ar
    18    59    58    1
    19    40    43   ar
    20   127   128    1
    21    68    69    1
    22    47    48    1
    23    44    46   ar
    24    43    45   ar
    25    57    58    1
    26    57    49   am
    27    58    61    1
    28    62    61    1
    29    69    70    1
    30   128   131    1
    31   128   129    1
    32    46    45   ar
    33    51    48    1
    34    51    52    1
    35    48    49    1
    36   131   132    1
    37    49    50    2
    38   130   129    2
    39   119   118    2
    40    19    18    1
    41   129   139   am
    42    13    14    1
    43    14    17    1
    44    14    15    1
    45    52    53   ar
    46    52    54   ar
    47   139   145    1
    48   139   140    1
    49   118   117    1
    50    53    55   ar
    51    17    18    1
    52   145   144    1
    53   117   116    1
    54   117   120    1
    55   132   133   ar
    56   132   134   ar
    57    18    20    1
    58   140   143    1
    59   140   141    1
    60    74    73    2
    61   144   143    1
    62    54    56   ar
    63    15    16    2
    64    15    21   am
    65   133   135   ar
    66   134   136   ar
    67   122   124   ar
    68   122   121   ar
    69    73    72    1
    70    55    56   ar
    71   120   121    1
    72   141   142    2
    73   141   146   am
    74   124   126   ar
    75    75    72    1
    76    75    76    1
    77    21    22    1
    78   121   123   ar
    79    72    71    1
    80   146   147    1
    81   135   137   ar
    82   136   137   ar
    83    78    76   am
    84    76    77    2
    85   148   147    1
    86   148   149    2
    87    23    22    1
    88    23    24    2
    89   137   138    1
    90   126   125   ar
    91    22    25    1
    92   147   150    1
    93   123   125   ar
    94    27    29   ar
    95    27    26   ar
    96    25    26    1
    97    99   100   ar
    98    99    97   ar
    99    29    31   ar
   100    26    28   ar
   101   150   151    1
   102   102   100   ar
   103   102   104   ar
   104    31    32    1
   105    31    30   ar
   106    28    30   ar
   107   100    98   ar
   108    97    96   ar
   109   151   152   ar
   110   151   153   ar
   111   152   154   ar
   112   153   155   ar
   113   104   103   ar
   114   154   156   ar
   115   155   156   ar
   116   156   157    1
   117     9     7   ar
   118     9    11   ar
   119    90    89    1
   120    96    98   ar
   121    96    95    1
   122    98   101   ar
   123    12    11    1
   124     7     6   ar
   125    88    89   ar
   126    88    86   ar
   127    11    10   ar
   128   103   101   ar
   129    89    87   ar
   130    86    84   ar
   131    95    92    1
   132   108   107    2
   133   109   110    1
   134   109   106    1
   135     6     5    1
   136     6     8   ar
   137    92    91    1
   138    92    93    1
   139   107   106    1
   140   111   110   ar
   141   111   113   ar
   142    10     8   ar
   143   110   112   ar
   144    87    85   ar
   145     5     2    1
   146   106   105    1
   147   113   115   ar
   148    84    85   ar
   149    84    83    1
   150     2     1    1
   151     2     3    1
   152    94    93    2
   153   112   114   ar
   154    83    80    1
   155   115   114   ar
   156     3     4    2
   157    79    80    1
   158    80    81    1
   159    81    82    2
