@<TRIPOS>MOLECULE
tmp/3r59A00.pdb
 79 73 0 0 0
SMALL
GASTEIGER

@<TRIPOS>ATOM
      1  N         12.0830   15.5390   16.9920 N.3    62  GLN62      -0.1245
      2  CA        10.9200   15.1770   17.8100 C.3    62  GLN62       0.1566
      3  C         10.6240   13.6800   17.7620 C.2    62  GLN62       0.2260
      4  O         10.6950   13.0460   16.7040 O.2    62  GLN62      -0.2867
      5  CB         9.6910   15.9580   17.3390 C.3    62  GLN62       0.0367
      6  CG         8.4330   15.7440   18.1690 C.3    62  GLN62       0.0905
      7  CD         7.3080   16.6990   17.7910 C.2    62  GLN62       0.2608
      8  OE1        7.5510   17.7970   17.2930 O.2    62  GLN62      -0.2717
      9  NE2        6.0700   16.2870   18.0460 N.am   62  GLN62      -0.0878
     10  N          2.9380   11.5500   15.5320 N.3    71  GLY71      -0.1210
     11  CA         2.7870   12.8670   16.0990 C.3    71  GLY71       0.1956
     12  C          1.4110   13.1780   16.6420 C.2    71  GLY71       0.2613
     13  O          1.2110   14.2670   17.1610 O.2    71  GLY71      -0.2717
     14  N          0.4650   12.2370   16.5410 N.am   72  THR72      -0.1938
     15  CA        -0.8780   12.4390   17.0980 C.3    72  THR72       0.2028
     16  C         -1.0690   11.8080   18.4780 C.2    72  THR72       0.2642
     17  O         -2.0140   12.1640   19.1800 O.2    72  THR72      -0.2714
     18  CB        -1.9830   11.8800   16.1710 C.3    72  THR72       0.1808
     19  OG1       -1.8430   10.4560   16.0420 O.3    72  THR72      -0.2208
     20  CG2       -1.9330   12.5450   14.7930 C.3    72  THR72       0.0379
     21  N         -0.1820   10.8910   18.8660 N.am   73  GLY73      -0.1954
     22  CA        -0.4010   10.0510   20.0450 C.3    73  GLY73       0.1869
     23  C          0.5790   10.2290   21.1910 C.2    73  GLY73       0.2309
     24  O          1.1380   11.3160   21.4040 O.2    73  GLY73      -0.2863
     25  N         -2.9260   12.9140   29.2540 N.3    81  ARG81      -0.1245
     26  CA        -2.2840   14.2310   29.1910 C.3    81  ARG81       0.1563
     27  C         -2.0790   14.7750   30.6040 C.2    81  ARG81       0.2260
     28  O         -2.7970   14.3850   31.5290 O.2    81  ARG81      -0.2867
     29  CB        -3.1410   15.2120   28.3760 C.3    81  ARG81       0.0307
     30  CG        -3.4120   14.7960   26.9220 C.3    81  ARG81       0.0489
     31  CD        -2.1560   14.8470   26.0720 C.3    81  ARG81       0.2205
     32  NE        -2.4000   14.5000   24.6700 N.pl3  81  ARG81      -0.0865
     33  CZ        -2.1780   13.3080   24.1150 C.cat  81  ARG81       0.5346
     34  NH1       -1.7020   12.2920   24.8260 N.pl3  81  ARG81       0.1354
     35  NH2       -2.4340   13.1270   22.8230 N.pl3  81  ARG81       0.1354
     36  N          6.8810   18.2850   23.6840 N.3   100  ALA100     -0.1231
     37  CA         5.9860   18.6250   22.5810 C.3   100  ALA100      0.1694
     38  C          4.5790   18.7370   23.1450 C.2   100  ALA100      0.2592
     39  O          4.2840   18.1660   24.1970 O.2   100  ALA100     -0.2718
     40  CB         6.0400   17.5560   21.4990 C.3   100  ALA100      0.0304
     41  N          3.7130   19.4840   22.4690 N.am  101  ASN101     -0.1960
     42  CA         2.3280   19.5890   22.9120 C.3   101  ASN101      0.1819
     43  C          1.4050   20.0450   21.7850 C.2   101  ASN101      0.2621
     44  O          1.8550   20.3160   20.6650 O.2   101  ASN101     -0.2715
     45  CB         2.2110   20.4830   24.1680 C.3   101  ASN101      0.1195
     46  CG         2.5190   21.9480   23.8960 C.2   101  ASN101      0.2630
     47  OD1        1.9960   22.5460   22.9550 O.2   101  ASN101     -0.2716
     48  ND2        3.3440   22.5470   24.7520 N.am  101  ASN101     -0.0877
     49  N          0.1110   20.0770   22.0980 N.am  102  ALA102     -0.1977
     50  CA        -0.9340   20.5250   21.1820 C.3   102  ALA102      0.1597
     51  C         -1.6880   21.7040   21.7910 C.2   102  ALA102      0.2287
     52  O         -2.8990   21.8400   21.6010 O.2   102  ALA102     -0.2864
     53  CB        -1.8930   19.3780   20.8870 C.3   102  ALA102      0.0319
     54  N         -1.2210   19.9720   27.5140 N.3   106  THR106     -0.1218
     55  CA        -1.4230   18.7660   26.7120 C.3   106  THR106      0.1862
     56  C         -0.1360   17.9390   26.5840 C.2   106  THR106      0.2287
     57  O          0.1090   17.3050   25.5590 O.2   106  THR106     -0.2866
     58  CB        -1.9940   19.0990   25.3050 C.3   106  THR106      0.1770
     59  OG1       -1.1020   19.9770   24.6050 O.3   106  THR106     -0.2211
     60  CG2       -3.3690   19.7420   25.4150 C.3   106  THR106      0.0375
     61  N          2.1140   14.7560   27.0200 N.3   108  GLY108     -0.1210
     62  CA         1.8660   13.3200   27.0780 C.3   108  GLY108      0.1956
     63  C          3.1870   12.6000   27.1960 C.2   108  GLY108      0.2613
     64  O          3.7560   12.4960   28.2850 O.2   108  GLY108     -0.2717
     65  N          3.6820   12.1210   26.0570 N.am  109  SER109     -0.1938
     66  CA         5.0070   11.5170   25.9700 C.3   109  SER109      0.2055
     67  C          5.9040   12.1260   24.8930 C.2   109  SER109      0.2642
     68  O          7.1120   11.9400   24.9420 O.2   109  SER109     -0.2714
     69  CB         4.8880   10.0160   25.7290 C.3   109  SER109      0.2130
     70  OG         4.0870    9.7340   24.5990 O.3   109  SER109     -0.2179
     71  N          5.3470   12.8370   23.9150 N.am  110  GLN110     -0.1976
     72  CA         6.1790   13.3670   22.8380 C.3   110  GLN110      0.1601
     73  C          7.1050   14.4630   23.3670 C.2   110  GLN110      0.2287
     74  O          6.7210   15.2670   24.2240 O.2   110  GLN110     -0.2864
     75  CB         5.3280   13.8950   21.6950 C.3   110  GLN110      0.0394
     76  CG         4.6110   12.8070   20.9080 C.3   110  GLN110      0.0908
     77  CD         3.9120   13.3870   19.7070 C.2   110  GLN110      0.2608
     78  OE1        4.5490   14.0050   18.8590 O.2   110  GLN110     -0.2717
     79  NE2        2.6000   13.2170   19.6370 N.am  110  GLN110     -0.0878
@<TRIPOS>BOND
     1    20    18    1
     2    10    11    1
     3    19    18    1
     4    11    12    1
     5    18    15    1
     6    14    12   am
     7    14    15    1
     8    12    13    2
     9     4     3    2
    10     1     2    1
    11    15    16    1
    12     8     7    2
    13     5     2    1
    14     5     6    1
    15     3     2    1
    16     7     9   am
    17     7     6    1
    18    16    21   am
    19    16    17    2
    20    78    77    2
    21    21    22    1
    22    79    77   am
    23    77    76    1
    24    22    23    1
    25    44    43    2
    26    53    50    1
    27    76    75    1
    28    50    51    1
    29    50    49    1
    30    23    24    2
    31    40    37    1
    32    52    51    2
    33    75    72    1
    34    43    49   am
    35    43    42    1
    36    41    42    1
    37    41    38   am
    38    37    38    1
    39    37    36    1
    40    35    33    1
    41    72    73    1
    42    72    71    1
    43    42    45    1
    44    47    46    2
    45    38    39    2
    46    73    74    2
    47    46    45    1
    48    46    48   am
    49    71    67   am
    50    33    32    2
    51    33    34    1
    52    70    69    1
    53    59    58    1
    54    32    31    1
    55    67    68    2
    56    67    66    1
    57    58    60    1
    58    58    55    1
    59    57    56    2
    60    69    66    1
    61    66    65    1
    62    65    63   am
    63    31    30    1
    64    56    55    1
    65    55    54    1
    66    30    29    1
    67    61    62    1
    68    62    63    1
    69    63    64    2
    70    29    26    1
    71    26    25    1
    72    26    27    1
    73    27    28    2
