@<TRIPOS>MOLECULE
tmp/3r5bE00.pdb
 89 86 0 0 0
SMALL
GASTEIGER

@<TRIPOS>ATOM
      1  N         42.2890   11.6480   58.8890 N.3   127  PHE127     -0.1241
      2  CA        41.7700   10.7790   59.9630 C.3   127  PHE127      0.1605
      3  C         40.3630   11.2130   60.4650 C.2   127  PHE127      0.2264
      4  O         39.4370   10.3970   60.4920 O.2   127  PHE127     -0.2867
      5  CB        42.7760   10.6760   61.1380 C.3   127  PHE127      0.0534
      6  CG        43.8250    9.6100   60.9450 C.ar  127  PHE127     -0.0203
      7  CD1       44.7400    9.6930   59.9020 C.ar  127  PHE127     -0.0042
      8  CD2       43.8870    8.5110   61.7840 C.ar  127  PHE127     -0.0042
      9  CE1       45.7030    8.6990   59.7070 C.ar  127  PHE127     -0.0003
     10  CE2       44.8660    7.5120   61.5890 C.ar  127  PHE127     -0.0003
     11  CZ        45.7650    7.6170   60.5440 C.ar  127  PHE127     -0.0000
     12  N         39.8750    2.9670   57.5510 N.3   168  PHE168     -0.1241
     13  CA        40.2000    2.7180   56.1440 C.3   168  PHE168      0.1605
     14  C         39.7050    1.3360   55.7580 C.2   168  PHE168      0.2264
     15  O         39.8580    0.3740   56.5290 O.2   168  PHE168     -0.2867
     16  CB        41.7120    2.7360   55.9000 C.3   168  PHE168      0.0534
     17  CG        42.4010    4.0320   56.2710 C.ar  168  PHE168     -0.0203
     18  CD1       42.6150    4.3650   57.6030 C.ar  168  PHE168     -0.0042
     19  CD2       42.8860    4.8840   55.2930 C.ar  168  PHE168     -0.0042
     20  CE1       43.2530    5.5210   57.9540 C.ar  168  PHE168     -0.0003
     21  CE2       43.5270    6.0600   55.6470 C.ar  168  PHE168     -0.0003
     22  CZ        43.7120    6.3700   56.9920 C.ar  168  PHE168     -0.0000
     23  N         45.8480   -1.0920   52.3180 N.3   189  ARG189     -0.1245
     24  CA        44.7680   -0.1400   52.5740 C.3   189  ARG189      0.1563
     25  C         44.5240    0.7120   51.3600 C.2   189  ARG189      0.2260
     26  O         45.4780    1.1330   50.7050 O.2   189  ARG189     -0.2867
     27  CB        45.1190    0.7880   53.7310 C.3   189  ARG189      0.0307
     28  CG        44.8050    0.2510   55.1180 C.3   189  ARG189      0.0489
     29  CD        45.3840    1.1850   56.1840 C.3   189  ARG189      0.2205
     30  NE        44.8270    0.9280   57.5040 N.pl3 189  ARG189     -0.0865
     31  CZ        45.0870    1.6330   58.6150 C.cat 189  ARG189      0.5346
     32  NH1       45.9040    2.6830   58.6190 N.pl3 189  ARG189      0.1354
     33  NH2       44.4910    1.2800   59.7440 N.pl3 189  ARG189      0.1354
     34  N         52.7960   -5.7240   53.9530 N.3   205  PHE205     -0.1241
     35  CA        51.7490   -4.7570   54.3030 C.3   205  PHE205      0.1605
     36  C         52.0130   -3.4070   53.6310 C.2   205  PHE205      0.2264
     37  O         53.1600   -3.0640   53.3870 O.2   205  PHE205     -0.2867
     38  CB        51.6870   -4.5970   55.8180 C.3   205  PHE205      0.0534
     39  CG        50.9530   -3.3660   56.2720 C.ar  205  PHE205     -0.0203
     40  CD1       51.6350   -2.3120   56.8530 C.ar  205  PHE205     -0.0042
     41  CD2       49.5760   -3.2620   56.1110 C.ar  205  PHE205     -0.0042
     42  CE1       50.9600   -1.1760   57.2740 C.ar  205  PHE205     -0.0003
     43  CE2       48.8900   -2.1230   56.5180 C.ar  205  PHE205     -0.0003
     44  CZ        49.5820   -1.0860   57.1090 C.ar  205  PHE205     -0.0000
     45  N         50.4210    0.6790   53.8780 N.3   207  ASN207     -0.1225
     46  CA        49.4920    1.7130   54.3430 C.3   207  ASN207      0.1785
     47  C         49.1920    2.7610   53.2710 C.2   207  ASN207      0.2597
     48  O         49.7220    2.7140   52.1590 O.2   207  ASN207     -0.2718
     49  CB        50.0290    2.3970   55.6110 C.3   207  ASN207      0.1169
     50  CG        48.9220    3.0430   56.4580 C.2   207  ASN207      0.2627
     51  OD1       47.7400    2.9870   56.1070 O.2   207  ASN207     -0.2716
     52  ND2       49.3060    3.6710   57.5650 N.am  207  ASN207     -0.0877
     53  N         48.3130    3.6990   53.6000 N.am  208  PHE208     -0.1976
     54  CA        47.9270    4.7380   52.6530 C.3   208  PHE208      0.1639
     55  C         49.0730    5.7360   52.4180 C.2   208  PHE208      0.2290
     56  O         50.0510    5.8010   53.1860 O.2   208  PHE208     -0.2864
     57  CB        46.6410    5.4450   53.1140 C.3   208  PHE208      0.0560
     58  CG        46.8540    6.5110   54.1810 C.ar  208  PHE208     -0.0200
     59  CD1       46.9160    6.1740   55.5260 C.ar  208  PHE208     -0.0042
     60  CD2       46.9380    7.8480   53.8300 C.ar  208  PHE208     -0.0042
     61  CE1       47.0990    7.1460   56.5050 C.ar  208  PHE208     -0.0003
     62  CE2       47.1250    8.8190   54.7940 C.ar  208  PHE208     -0.0003
     63  CZ        47.2090    8.4620   56.1450 C.ar  208  PHE208     -0.0000
     64  N         55.3520    1.5460   55.6340 N.3   223  SER223     -0.1202
     65  CA        54.5230    2.3880   56.4690 C.3   223  SER223      0.2020
     66  C         54.0840    3.6600   55.7630 C.2   223  SER223      0.2618
     67  O         54.7200    4.1100   54.8050 O.2   223  SER223     -0.2717
     68  CB        55.2660    2.7340   57.7390 C.3   223  SER223      0.2103
     69  OG        55.6580    1.5410   58.4070 O.3   223  SER223     -0.2182
     70  N         52.9850    4.2340   56.2500 N.am  224  ALA224     -0.1979
     71  CA        52.4080    5.4390   55.6650 C.3   224  ALA224      0.1597
     72  C         53.5150    6.4040   55.2860 C.2   224  ALA224      0.2287
     73  O         54.4830    6.5220   56.0170 O.2   224  ALA224     -0.2864
     74  CB        51.4530    6.0940   56.6360 C.3   224  ALA224      0.0319
     75  N         59.7710   -0.6880   57.9470 N.3   240  THR240     -0.1203
     76  CA        60.1260    0.6990   57.6670 C.3   240  THR240      0.1994
     77  C         59.3170    1.5570   58.6580 C.2   240  THR240      0.2617
     78  O         58.1450    1.2770   58.8700 O.2   240  THR240     -0.2717
     79  CB        59.8120    1.0500   56.2060 C.3   240  THR240      0.1784
     80  OG1       58.4840    0.6310   55.8700 O.3   240  THR240     -0.2211
     81  CG2       60.7830    0.3530   55.2710 C.3   240  THR240      0.0376
     82  N         59.9240    2.5720   59.2770 N.am  241  MET241     -0.1979
     83  CA        59.2520    3.3190   60.3600 C.3   241  MET241      0.1605
     84  C         58.2080    4.3380   59.8780 C.2   241  MET241      0.2287
     85  O         57.7820    4.3310   58.7220 O.2   241  MET241     -0.2864
     86  CB        60.2700    4.0000   61.2910 C.3   241  MET241      0.0413
     87  CG        60.8480    5.3410   60.8170 C.3   241  MET241      0.0598
     88  SD        61.1900    6.4560   62.2000 S.3   241  MET241     -0.1393
     89  CE        62.1280    5.3640   63.2850 C.3   241  MET241      0.0692
@<TRIPOS>BOND
     1    26    25    2
     2    25    24    1
     3    48    47    2
     4    23    24    1
     5    55    54    1
     6    55    56    2
     7    24    27    1
     8    54    57    1
     9    54    53    1
    10    57    58    1
    11    47    53   am
    12    47    46    1
    13    37    36    2
    14    36    35    1
    15    27    28    1
    16    60    58   ar
    17    60    62   ar
    18    45    46    1
    19    34    35    1
    20    58    59   ar
    21    35    38    1
    22    46    49    1
    23    62    63   ar
    24    67    66    2
    25    28    29    1
    26    81    79    1
    27    72    71    1
    28    72    73    2
    29    19    21   ar
    30    19    17   ar
    31    59    61   ar
    32    49    50    1
    33    64    65    1
    34    21    22   ar
    35    71    70    1
    36    71    74    1
    37    14    13    1
    38    14    15    2
    39    66    70   am
    40    66    65    1
    41    38    39    1
    42    80    79    1
    43    16    13    1
    44    16    17    1
    45    51    50    2
    46    41    39   ar
    47    41    43   ar
    48    13    12    1
    49    63    61   ar
    50    29    30    1
    51    79    76    1
    52    17    18   ar
    53    39    40   ar
    54    50    52   am
    55    65    68    1
    56    43    44   ar
    57    40    42   ar
    58    22    20   ar
    59    44    42   ar
    60    30    31    2
    61    18    20   ar
    62    76    75    1
    63    76    77    1
    64    68    69    1
    65    31    32    1
    66    31    33    1
    67    77    78    2
    68    77    82   am
    69    85    84    2
    70     1     2    1
    71    82    83    1
    72     9     7   ar
    73     9    11   ar
    74    84    83    1
    75     7     6   ar
    76     2     3    1
    77     2     5    1
    78    83    86    1
    79     3     4    2
    80    11    10   ar
    81    87    86    1
    82    87    88    1
    83     6     5    1
    84     6     8   ar
    85    10     8   ar
    86    88    89    1
