@<TRIPOS>MOLECULE
tmp/3r5cA03.pdb
 133 124 0 0 0
SMALL
GASTEIGER

@<TRIPOS>ATOM
      1  N        -29.3530   48.6700   16.4820 N.3   222  GLU222     -0.1245
      2  CA       -29.9400   47.3280   16.5780 C.3   222  GLU222      0.1567
      3  C        -31.4010   47.3150   16.0980 C.2   222  GLU222      0.2260
      4  O        -32.1160   46.3120   16.2290 O.2   222  GLU222     -0.2867
      5  CB       -29.8360   46.8180   18.0260 C.3   222  GLU222      0.0388
      6  CG       -28.4940   47.1390   18.6930 C.3   222  GLU222      0.1160
      7  CD       -28.3400   46.4880   20.0390 C.2   222  GLU222      0.3649
      8  OE1      -28.1860   45.2660   20.0980 O.co2 222  GLU222     -0.2457
      9  OE2      -28.3630   47.1930   21.0480 O.co2 222  GLU222     -0.2457
     10  N        -28.5670   55.5880   20.5630 N.3   236  ASP236     -0.1239
     11  CA       -28.6830   54.1450   20.5910 C.3   236  ASP236      0.1674
     12  C        -30.0630   53.7130   20.1280 C.2   236  ASP236      0.2266
     13  O        -31.0740   54.2210   20.6190 O.2   236  ASP236     -0.2867
     14  CB       -28.4120   53.6310   22.0030 C.3   236  ASP236      0.1410
     15  CG       -26.9590   53.7910   22.4150 C.2   236  ASP236      0.3668
     16  OD1      -26.0630   53.7420   21.5270 O.co2 236  ASP236     -0.2456
     17  OD2      -26.7120   53.9610   23.6370 O.co2 236  ASP236     -0.2456
     18  N        -32.3410   50.4880   20.0550 N.3   238  GLY238     -0.1210
     19  CA       -32.4860   49.1600   20.6520 C.3   238  GLY238      0.1956
     20  C        -32.8830   48.0930   19.6460 C.2   238  GLY238      0.2612
     21  O        -33.3550   48.3950   18.5350 O.2   238  GLY238     -0.2717
     22  N        -32.6740   46.8400   20.0540 N.am  239  GLY239     -0.1956
     23  CA       -32.9650   45.6620   19.2380 C.3   239  GLY239      0.1869
     24  C        -34.3820   45.6490   18.6970 C.2   239  GLY239      0.2309
     25  O        -35.3320   45.6690   19.4630 O.2   239  GLY239     -0.2863
     26  N        -32.1730   57.3480   23.1200 N.3   256  LEU256     -0.1245
     27  CA       -32.2790   55.9070   23.3800 C.3   256  LEU256      0.1561
     28  C        -33.6550   55.4730   22.8840 C.2   256  LEU256      0.2260
     29  O        -34.6860   55.8490   23.4520 O.2   256  LEU256     -0.2867
     30  CB       -32.1450   55.6120   24.8780 C.3   256  LEU256      0.0270
     31  CG       -31.8320   54.1760   25.3720 C.3   256  LEU256      0.0019
     32  CD1      -32.3650   53.9770   26.7950 C.3   256  LEU256      0.0001
     33  CD2      -32.3640   53.0700   24.4790 C.3   256  LEU256      0.0001
     34  N        -35.9790   52.4700   22.6280 N.3   258  GLY258     -0.1210
     35  CA       -36.0450   51.1700   23.2860 C.3   258  GLY258      0.1956
     36  C        -36.1460   50.0010   22.3260 C.2   258  GLY258      0.2611
     37  O        -36.5600   50.1620   21.1540 O.2   258  GLY258     -0.2717
     38  N        -35.7690   48.8190   22.8130 N.am  259  ALA259     -0.1979
     39  CA       -35.9720   47.5850   22.0450 C.3   259  ALA259      0.1597
     40  C        -37.4460   47.4820   21.6260 C.2   259  ALA259      0.2287
     41  O        -38.3320   47.8680   22.3690 O.2   259  ALA259     -0.2864
     42  CB       -35.5620   46.3810   22.8510 C.3   259  ALA259      0.0319
     43  N        -36.0080   59.7310   24.8380 N.3   272  ILE272     -0.1231
     44  CA       -36.0320   58.3470   25.2090 C.3   272  ILE272      0.1692
     45  C        -37.4000   57.8090   24.8600 C.2   272  ILE272      0.2592
     46  O        -38.4150   58.4250   25.1850 O.2   272  ILE272     -0.2718
     47  CB       -35.7570   58.1440   26.7240 C.3   272  ILE272      0.0266
     48  CG1      -34.3730   58.7000   27.1080 C.3   272  ILE272      0.0019
     49  CG2      -35.8120   56.6750   27.0890 C.3   272  ILE272      0.0020
     50  CD1      -34.0650   58.5860   28.6150 C.3   272  ILE272      0.0001
     51  N        -37.4190   56.6600   24.1950 N.am  273  VAL273     -0.1966
     52  CA       -38.6510   55.9700   23.8620 C.3   273  VAL273      0.1727
     53  C        -38.5980   54.5990   24.5360 C.2   273  VAL273      0.2616
     54  O        -37.6410   53.8580   24.3770 O.2   273  VAL273     -0.2715
     55  CB       -38.8250   55.8250   22.3290 C.3   273  VAL273      0.0290
     56  CG1      -40.1860   55.2580   22.0020 C.3   273  VAL273      0.0023
     57  CG2      -38.6290   57.1660   21.6320 C.3   273  VAL273      0.0023
     58  N        -39.6400   54.2940   25.2990 N.am  274  GLU274     -0.1963
     59  CA       -39.7240   53.0900   26.1160 C.3   274  GLU274      0.1733
     60  C        -39.7510   51.8460   25.2530 C.2   274  GLU274      0.2616
     61  O        -40.3370   51.8500   24.1950 O.2   274  GLU274     -0.2715
     62  CB       -41.0120   53.1330   26.9600 C.3   274  GLU274      0.0429
     63  CG       -41.2100   51.9410   27.9090 C.3   274  GLU274      0.1163
     64  CD       -42.5600   51.9920   28.6340 C.2   274  GLU274      0.3649
     65  OE1      -43.6070   52.1950   27.9660 O.co2 274  GLU274     -0.2457
     66  OE2      -42.5540   51.8410   29.8850 O.co2 274  GLU274     -0.2457
     67  N        -39.1160   50.7820   25.7280 N.am  275  ALA275     -0.1977
     68  CA       -39.1400   49.4810   25.0590 C.3   275  ALA275      0.1597
     69  C        -40.5710   49.1300   24.7380 C.2   275  ALA275      0.2287
     70  O        -41.4230   49.2080   25.6150 O.2   275  ALA275     -0.2864
     71  CB       -38.5280   48.4010   25.9540 C.3   275  ALA275      0.0319
     72  N        -39.1540   62.0490   27.4990 N.3   310  LEU310     -0.1245
     73  CA       -39.2300   60.6410   27.8230 C.3   310  LEU310      0.1561
     74  C        -40.6110   60.2090   27.3760 C.2   310  LEU310      0.2260
     75  O        -41.5970   60.7940   27.7960 O.2   310  LEU310     -0.2867
     76  CB       -38.9890   60.4110   29.3200 C.3   310  LEU310      0.0270
     77  CG       -39.2600   59.0490   29.9870 C.3   310  LEU310      0.0019
     78  CD1      -39.2750   57.9050   29.0320 C.3   310  LEU310      0.0001
     79  CD2      -38.1930   58.8100   31.0620 C.3   310  LEU310      0.0001
     80  N        -43.3420   57.0830   27.0370 N.3   312  ARG312     -0.1231
     81  CA       -43.6770   55.9130   27.7970 C.3   312  ARG312      0.1694
     82  C        -45.1580   55.6380   27.6360 C.2   312  ARG312      0.2592
     83  O        -45.9230   56.5270   27.2990 O.2   312  ARG312     -0.2718
     84  CB       -43.3180   56.1970   29.2420 C.3   312  ARG312      0.0321
     85  CG       -44.1920   55.5500   30.2680 C.3   312  ARG312      0.0489
     86  CD       -44.5700   56.5040   31.3960 C.3   312  ARG312      0.2205
     87  NE       -43.7680   56.2780   32.5890 N.pl3 312  ARG312     -0.0865
     88  CZ       -44.0840   56.7210   33.8040 C.cat 312  ARG312      0.5346
     89  NH1      -45.1900   57.4400   34.0170 N.pl3 312  ARG312      0.1354
     90  NH2      -43.2780   56.4360   34.8160 N.pl3 312  ARG312      0.1354
     91  N        -45.5540   54.3930   27.8420 N.am  313  ARG313     -0.1966
     92  CA       -46.9540   54.0510   27.9200 C.3   313  ARG313      0.1729
     93  C        -47.2580   53.6610   29.3570 C.2   313  ARG313      0.2616
     94  O        -46.7060   52.6970   29.8830 O.2   313  ARG313     -0.2715
     95  CB       -47.2630   52.9010   26.9840 C.3   313  ARG313      0.0348
     96  CG       -48.6800   52.3780   27.1010 C.3   313  ARG313      0.0492
     97  CD       -48.9950   51.4660   25.9340 C.3   313  ARG313      0.2205
     98  NE       -49.7290   52.2000   24.9070 N.pl3 313  ARG313     -0.0865
     99  CZ       -49.5480   52.1050   23.5970 C.cat 313  ARG313      0.5346
    100  NH1      -48.6320   51.3070   23.0690 N.pl3 313  ARG313      0.1354
    101  NH2      -50.3050   52.8400   22.8080 N.pl3 313  ARG313      0.1354
    102  N        -48.1180   54.4370   30.0010 N.am  314  ASN314     -0.1958
    103  CA       -48.5780   54.1170   31.3500 C.3   314  ASN314      0.1819
    104  C        -49.0590   52.6780   31.3990 C.2   314  ASN314      0.2622
    105  O        -49.9780   52.2970   30.6780 O.2   314  ASN314     -0.2715
    106  CB       -49.7200   55.0400   31.7770 C.3   314  ASN314      0.1195
    107  CG       -49.9430   55.0430   33.2850 C.2   314  ASN314      0.2630
    108  OD1      -49.6630   56.0380   33.9450 O.2   314  ASN314     -0.2716
    109  ND2      -50.4380   53.9420   33.8300 N.am  314  ASN314     -0.0877
    110  N        -48.4270   51.8930   32.2570 N.am  315  SER315     -0.1936
    111  CA       -48.7330   50.4790   32.3640 C.3   315  SER315      0.2055
    112  C        -50.0370   50.1750   33.0920 C.2   315  SER315      0.2642
    113  O        -50.5230   49.0540   32.9870 O.2   315  SER315     -0.2714
    114  CB       -47.5740   49.7490   33.0580 C.3   315  SER315      0.2130
    115  OG       -47.4250   50.1880   34.3990 O.3   315  SER315     -0.2179
    116  N        -50.5960   51.1440   33.8270 N.am  316  GLN316     -0.1976
    117  CA       -51.8730   50.9550   34.5410 C.3   316  GLN316      0.1601
    118  C        -53.1150   51.5350   33.8420 C.2   316  GLN316      0.2287
    119  O        -54.2170   51.0310   34.0620 O.2   316  GLN316     -0.2864
    120  CB       -51.8260   51.5420   35.9590 C.3   316  GLN316      0.0394
    121  CG       -50.6890   51.0990   36.8750 C.3   316  GLN316      0.0908
    122  CD       -50.7690   51.7590   38.2860 C.2   316  GLN316      0.2608
    123  OE1      -49.8260   52.4340   38.7310 O.2   316  GLN316     -0.2717
    124  NE2      -51.9020   51.5740   38.9710 N.am  316  GLN316     -0.0878
    125  N        -42.9700   62.4800   29.4200 N.3   323  LYS323     -0.1245
    126  CA       -42.5080   63.1100   30.6470 C.3   323  LYS323      0.1561
    127  C        -41.4030   64.0940   30.3200 C.2   323  LYS323      0.2260
    128  O        -40.5530   63.8000   29.4800 O.2   323  LYS323     -0.2867
    129  CB       -41.9970   62.0650   31.6520 C.3   323  LYS323      0.0271
    130  CG       -43.1080   61.2020   32.2640 C.3   323  LYS323      0.0035
    131  CD       -42.5860   59.8880   32.8880 C.3   323  LYS323      0.0206
    132  CE       -41.3860   60.1100   33.8300 C.3   323  LYS323      0.1093
    133  NZ       -41.6970   61.0090   34.9930 N.3   323  LYS323     -0.1314
@<TRIPOS>BOND
     1     3     4    2
     2     3     2    1
     3     1     2    1
     4     2     5    1
     5     5     6    1
     6    21    20    2
     7     6     7    1
     8    24    23    1
     9    24    25    2
    10    23    22    1
    11    20    22   am
    12    20    19    1
    13     7     8   ar
    14     7     9   ar
    15    18    19    1
    16    12    11    1
    17    12    13    2
    18    10    11    1
    19    11    14    1
    20    37    36    2
    21    16    15   ar
    22    40    39    1
    23    40    41    2
    24    57    55    1
    25    56    55    1
    26    14    15    1
    27    39    38    1
    28    39    42    1
    29    36    38   am
    30    36    35    1
    31    55    52    1
    32    15    17   ar
    33    34    35    1
    34   101    99    1
    35    28    27    1
    36    28    29    2
    37   100    99    1
    38    26    27    1
    39    27    30    1
    40    99    98    2
    41    52    51    1
    42    52    53    1
    43    61    60    2
    44    51    45   am
    45    54    53    2
    46    33    31    1
    47    53    58   am
    48    69    68    1
    49    69    70    2
    50    43    44    1
    51    45    46    2
    52    45    44    1
    53    30    31    1
    54    98    97    1
    55    68    67    1
    56    68    71    1
    57    44    47    1
    58    60    67   am
    59    60    59    1
    60    58    59    1
    61    31    32    1
    62    97    96    1
    63    59    62    1
    64    47    49    1
    65    47    48    1
    66    62    63    1
    67    95    96    1
    68    95    92    1
    69    80    81    1
    70    48    50    1
    71    83    82    2
    72    74    75    2
    73    74    73    1
    74    72    73    1
    75    82    81    1
    76    82    91   am
    77    81    84    1
    78    73    76    1
    79    91    92    1
    80    63    64    1
    81    92    93    1
    82    65    64   ar
    83    64    66   ar
    84    78    77    1
    85    84    85    1
    86    76    77    1
    87    93    94    2
    88    93   102   am
    89   125   126    1
    90   128   127    2
    91    77    79    1
    92   102   103    1
    93    85    86    1
    94   127   126    1
    95   126   129    1
    96   105   104    2
    97   103   104    1
    98   103   106    1
    99    86    87    1
   100   104   110   am
   101   129   130    1
   102   106   107    1
   103   110   111    1
   104   130   131    1
   105   111   114    1
   106   111   112    1
   107    87    88    2
   108   131   132    1
   109   113   112    2
   110   114   115    1
   111   112   116   am
   112   107   109   am
   113   107   108    2
   114    88    89    1
   115    88    90    1
   116   116   117    1
   117   132   133    1
   118   118   119    2
   119   118   117    1
   120   117   120    1
   121   120   121    1
   122   121   122    1
   123   122   123    2
   124   122   124   am
