@<TRIPOS>MOLECULE
tmp/3r5cA00.pdb
 82 76 0 0 0
SMALL
GASTEIGER

@<TRIPOS>ATOM
      1  N        -39.6750   55.1050   10.8390 N.3   244  MET244     -0.1230
      2  CA       -40.6980   55.0760    9.8090 C.3   244  MET244      0.1702
      3  C        -40.1460   55.5360    8.4640 C.2   244  MET244      0.2592
      4  O        -39.3170   56.4420    8.3880 O.2   244  MET244     -0.2718
      5  CB       -41.8640   55.9820   10.2270 C.3   244  MET244      0.0401
      6  CG       -43.1740   55.7240    9.5290 C.3   244  MET244      0.0596
      7  SD       -43.9880   54.2290   10.1300 S.3   244  MET244     -0.1393
      8  CE       -45.5840   54.9260   10.5800 C.3   244  MET244      0.0692
      9  N        -40.6190   54.8840    7.4010 N.am  245  GLY245     -0.1957
     10  CA       -40.2330   55.2400    6.0430 C.3   245  GLY245      0.1869
     11  C        -41.0340   56.4370    5.5670 C.2   245  GLY245      0.2309
     12  O        -41.8830   56.9610    6.3000 O.2   245  GLY245     -0.2863
     13  N        -44.6310   52.2610   20.1890 N.3   278  TYR278     -0.1241
     14  CA       -44.5340   52.8700   18.8780 C.3   278  TYR278      0.1605
     15  C        -45.1310   54.2640   18.9350 C.2   278  TYR278      0.2264
     16  O        -46.3210   54.4150   19.2010 O.2   278  TYR278     -0.2867
     17  CB       -45.1980   52.0420   17.7760 C.3   278  TYR278      0.0534
     18  CG       -44.4870   52.2360   16.4490 C.ar  278  TYR278     -0.0201
     19  CD1      -43.7750   51.1980   15.8690 C.ar  278  TYR278     -0.0009
     20  CD2      -44.4680   53.4720   15.8130 C.ar  278  TYR278     -0.0009
     21  CE1      -43.1080   51.3620   14.6900 C.ar  278  TYR278      0.0417
     22  CE2      -43.7910   53.6460   14.6270 C.ar  278  TYR278      0.0417
     23  CZ       -43.1010   52.5810   14.0690 C.ar  278  TYR278      0.1957
     24  OH       -42.4070   52.7150   12.8890 O.3   278  TYR278     -0.2866
     25  N        -46.3310   57.0520   16.9350 N.3   280  THR280     -0.1218
     26  CA       -46.8580   57.3470   15.6320 C.3   280  THR280      0.1862
     27  C        -47.0940   58.8540   15.5590 C.2   280  THR280      0.2287
     28  O        -47.2890   59.5030   16.5980 O.2   280  THR280     -0.2866
     29  CB       -48.1640   56.5310   15.4430 C.3   280  THR280      0.1770
     30  OG1      -47.9240   55.4730   14.5070 O.3   280  THR280     -0.2211
     31  CG2      -49.3050   57.3830   15.0120 C.3   280  THR280      0.0375
     32  N        -49.5810   60.6340   14.5980 N.3   282  GLY282     -0.1210
     33  CA       -50.9010   61.0190   15.1040 C.3   282  GLY282      0.1956
     34  C        -51.2410   60.5070   16.4940 C.2   282  GLY282      0.2613
     35  O        -52.3560   60.7280   16.9900 O.2   282  GLY282     -0.2717
     36  N        -50.2940   59.8220   17.1340 N.am  283  THR283     -0.1938
     37  CA       -50.5150   59.3190   18.4790 C.3   283  THR283      0.2028
     38  C        -50.7680   60.4950   19.3950 C.2   283  THR283      0.2642
     39  O        -50.0500   61.4890   19.3520 O.2   283  THR283     -0.2714
     40  CB       -49.3180   58.5080   19.0100 C.3   283  THR283      0.1808
     41  OG1      -49.0960   57.3700   18.1660 O.3   283  THR283     -0.2208
     42  CG2      -49.5900   58.0270   20.4300 C.3   283  THR283      0.0379
     43  N        -51.8070   60.3840   20.2070 N.am  284  LYS284     -0.1977
     44  CA       -52.1230   61.4240   21.1610 C.3   284  LYS284      0.1596
     45  C        -51.3890   61.1530   22.4620 C.2   284  LYS284      0.2287
     46  O        -51.5170   60.0900   23.0380 O.2   284  LYS284     -0.2864
     47  CB       -53.6450   61.5360   21.3550 C.3   284  LYS284      0.0298
     48  CG       -54.2950   62.2800   20.2040 C.3   284  LYS284      0.0038
     49  CD       -55.7980   62.1880   20.2220 C.3   284  LYS284      0.0206
     50  CE       -56.3810   63.0580   19.1020 C.3   284  LYS284      0.1093
     51  NZ       -57.7010   62.5540   18.6520 N.3   284  LYS284     -0.1314
     52  N        -50.5010   65.8660   19.7490 N.3   299  LYS299     -0.1245
     53  CA       -50.1720   64.8340   18.7800 C.3   299  LYS299      0.1561
     54  C        -48.6550   64.7040   18.7950 C.2   299  LYS299      0.2260
     55  O        -47.9300   65.7140   18.7990 O.2   299  LYS299     -0.2867
     56  CB       -50.6710   65.2010   17.3810 C.3   299  LYS299      0.0271
     57  CG       -52.1900   65.0180   17.1440 C.3   299  LYS299      0.0035
     58  CD       -52.6150   65.7940   15.8870 C.3   299  LYS299      0.0206
     59  CE       -53.8590   65.2460   15.1990 C.3   299  LYS299      0.1093
     60  NZ       -55.0710   65.3590   16.0500 N.3   299  LYS299     -0.1314
     61  N        -46.6430   64.3450   16.7310 N.3   301  ARG301     -0.1245
     62  CA       -46.1660   65.2290   15.6660 C.3   301  ARG301      0.1563
     63  C        -45.7610   66.6470   16.1460 C.2   301  ARG301      0.2260
     64  O        -44.7840   67.2190   15.6690 O.2   301  ARG301     -0.2867
     65  CB       -47.2800   65.3120   14.6190 C.3   301  ARG301      0.0307
     66  CG       -47.0850   66.2760   13.4790 C.3   301  ARG301      0.0489
     67  CD       -48.4230   66.5590   12.7780 C.3   301  ARG301      0.2205
     68  NE       -49.1840   65.3270   12.5520 N.pl3 301  ARG301     -0.0865
     69  CZ       -50.5160   65.2490   12.4410 C.cat 301  ARG301      0.5346
     70  NH1      -51.2870   66.3480   12.5120 N.pl3 301  ARG301      0.1354
     71  NH2      -51.0870   64.0520   12.2610 N.pl3 301  ARG301      0.1354
     72  N        -45.5540   54.3930   27.8420 N.3   313  ARG313     -0.1245
     73  CA       -46.9540   54.0510   27.9200 C.3   313  ARG313      0.1563
     74  C        -47.2580   53.6610   29.3570 C.2   313  ARG313      0.2260
     75  O        -46.7060   52.6970   29.8830 O.2   313  ARG313     -0.2867
     76  CB       -47.2630   52.9010   26.9840 C.3   313  ARG313      0.0307
     77  CG       -48.6800   52.3780   27.1010 C.3   313  ARG313      0.0489
     78  CD       -48.9950   51.4660   25.9340 C.3   313  ARG313      0.2205
     79  NE       -49.7290   52.2000   24.9070 N.pl3 313  ARG313     -0.0865
     80  CZ       -49.5480   52.1050   23.5970 C.cat 313  ARG313      0.5346
     81  NH1      -48.6320   51.3070   23.0690 N.pl3 313  ARG313      0.1354
     82  NH2      -50.3050   52.8400   22.8080 N.pl3 313  ARG313      0.1354
@<TRIPOS>BOND
     1    11    10    1
     2    11    12    2
     3    10     9    1
     4     9     3   am
     5     4     3    2
     6     3     2    1
     7     6     7    1
     8     6     5    1
     9     2     5    1
    10     2     1    1
    11     7     8    1
    12    71    69    1
    13    69    70    1
    14    69    68    2
    15    68    67    1
    16    67    66    1
    17    24    23    1
    18    66    65    1
    19    23    22   ar
    20    23    21   ar
    21    30    29    1
    22    32    33    1
    23    65    62    1
    24    22    20   ar
    25    21    19   ar
    26    31    29    1
    27    33    34    1
    28    59    58    1
    29    59    60    1
    30    29    26    1
    31    27    26    1
    32    27    28    2
    33    26    25    1
    34    62    63    1
    35    62    61    1
    36    64    63    2
    37    20    18   ar
    38    19    18   ar
    39    58    57    1
    40    18    17    1
    41    34    35    2
    42    34    36   am
    43    36    37    1
    44    57    56    1
    45    56    53    1
    46    17    14    1
    47    41    40    1
    48    37    40    1
    49    37    38    1
    50    51    50    1
    51    53    54    1
    52    53    52    1
    53    54    55    2
    54    14    15    1
    55    14    13    1
    56    15    16    2
    57    40    42    1
    58    50    49    1
    59    39    38    2
    60    38    43   am
    61    48    49    1
    62    48    47    1
    63    43    44    1
    64    44    47    1
    65    44    45    1
    66    45    46    2
    67    82    80    1
    68    81    80    1
    69    80    79    2
    70    79    78    1
    71    78    77    1
    72    76    77    1
    73    76    73    1
    74    72    73    1
    75    73    74    1
    76    74    75    2
