@<TRIPOS>MOLECULE
tmp/3r5fA00.pdb
 144 133 0 0 0
SMALL
GASTEIGER

@<TRIPOS>ATOM
      1  N          0.4680    9.3500   17.4330 N.3   136  LYS136     -0.1245
      2  CA         0.0690   10.7060   17.6250 C.3   136  LYS136      0.1561
      3  C         -1.4300   10.9040   17.4660 C.2   136  LYS136      0.2260
      4  O         -1.9590   11.8000   18.0510 O.2   136  LYS136     -0.2867
      5  CB         0.7910   11.6140   16.6270 C.3   136  LYS136      0.0271
      6  CG         2.2760   11.7510   16.8310 C.3   136  LYS136      0.0035
      7  CD         2.9250   12.3860   15.5040 C.3   136  LYS136      0.0206
      8  CE         3.9610   13.4720   15.8250 C.3   136  LYS136      0.1093
      9  NZ         3.2060   14.7540   16.1200 N.3   136  LYS136     -0.1314
     10  N         -3.6310   20.5040   18.2750 N.3   151  ALA151     -0.1245
     11  CA        -4.0320   21.0710   16.9300 C.3   151  ALA151      0.1562
     12  C         -5.2440   20.3570   16.3760 C.2   151  ALA151      0.2260
     13  O         -5.2770   19.1180   16.2950 O.2   151  ALA151     -0.2867
     14  CB        -2.9160   20.9060   15.9760 C.3   151  ALA151      0.0290
     15  N         -0.3870   20.6820    8.1130 N.3   178  PHE178     -0.1241
     16  CA         0.7550   19.8570    8.4540 C.3   178  PHE178      0.1605
     17  C          0.3420   18.4070    8.3000 C.2   178  PHE178      0.2264
     18  O         -0.6380   17.9430    8.8910 O.2   178  PHE178     -0.2867
     19  CB         1.3250   20.2190    9.8360 C.3   178  PHE178      0.0534
     20  CG         2.0400   21.5670    9.8460 C.ar  178  PHE178     -0.0203
     21  CD1        1.3020   22.7750   10.0040 C.ar  178  PHE178     -0.0042
     22  CD2        3.4180   21.6270    9.6210 C.ar  178  PHE178     -0.0042
     23  CE1        1.9300   24.0170    9.9930 C.ar  178  PHE178     -0.0003
     24  CE2        4.1110   22.8870    9.5730 C.ar  178  PHE178     -0.0003
     25  CZ         3.3730   24.0780    9.7760 C.ar  178  PHE178     -0.0000
     26  N          1.3480   14.4270    8.5270 N.3   180  LYS180     -0.1245
     27  CA         2.3270   13.5720    9.2260 C.3   180  LYS180      0.1561
     28  C          1.8890   12.1420    9.5120 C.2   180  LYS180      0.2260
     29  O          0.6900   11.8730    9.7640 O.2   180  LYS180     -0.2867
     30  CB         2.9650   14.3200   10.4230 C.3   180  LYS180      0.0271
     31  CG         2.0560   14.9080   11.5090 C.3   180  LYS180      0.0035
     32  CD         2.4830   16.4220   11.8330 C.3   180  LYS180      0.0206
     33  CE         2.1610   16.7630   13.2900 C.3   180  LYS180      0.1093
     34  NZ         2.7100   18.0070   13.9970 N.3   180  LYS180     -0.1314
     35  N          5.2040    8.3520   15.6490 N.3   184  GLN184     -0.1245
     36  CA         6.1560    9.4000   15.9170 C.3   184  GLN184      0.1566
     37  C          7.5790    8.8800   16.0390 C.2   184  GLN184      0.2260
     38  O          8.4740    9.5740   16.4220 O.2   184  GLN184     -0.2867
     39  CB         5.7270   10.2550   17.1020 C.3   184  GLN184      0.0367
     40  CG         6.2280    9.8470   18.4090 C.3   184  GLN184      0.0905
     41  CD         5.8710   10.8370   19.4770 C.2   184  GLN184      0.2608
     42  OE1        6.6620   11.1160   20.3250 O.2   184  GLN184     -0.2717
     43  NE2        4.6850   11.3800   19.4200 N.am  184  GLN184     -0.0878
     44  N          9.6380    8.2280   13.7060 N.3   186  SER186     -0.1202
     45  CA        10.5280    8.9900   12.8460 C.3   186  SER186      0.2020
     46  C          9.9830   10.4240   12.7260 C.2   186  SER186      0.2619
     47  O          8.7760   10.6400   12.8870 O.2   186  SER186     -0.2717
     48  CB        10.5260    8.3340   11.4620 C.3   186  SER186      0.2103
     49  OG         9.2430    7.7600   11.1610 O.3   186  SER186     -0.2182
     50  N         10.8510   11.3910   12.4070 N.am  187  SER187     -0.1951
     51  CA        10.4220   12.7450   12.0380 C.3   187  SER187      0.1924
     52  C         10.2510   12.8130   10.5060 C.2   187  SER187      0.2314
     53  O          9.9200   13.8210    9.9140 O.2   187  SER187     -0.2863
     54  CB        11.4010   13.7890   12.5330 C.3   187  SER187      0.2116
     55  OG        11.7540   13.5140   13.8820 O.3   187  SER187     -0.2180
     56  N          7.0550   14.3680    7.3850 N.3   190  VAL190     -0.1245
     57  CA         6.3240   15.5780    7.7540 C.3   190  VAL190      0.1561
     58  C          6.4010   16.7260    6.7780 C.2   190  VAL190      0.2260
     59  O          7.3800   17.4210    6.7400 O.2   190  VAL190     -0.2867
     60  CB         6.8300   16.1570    9.0650 C.3   190  VAL190      0.0252
     61  CG1        5.8880   17.1660    9.5600 C.3   190  VAL190      0.0019
     62  CG2        6.9920   15.1020   10.0210 C.3   190  VAL190      0.0019
     63  N         -3.0400   18.1940   10.0490 N.3   216  GLU216     -0.1231
     64  CA        -3.3730   19.1460   11.1100 C.3   216  GLU216      0.1699
     65  C         -3.4600   20.5710   10.6270 C.2   216  GLU216      0.2592
     66  O         -2.6980   20.9640    9.7280 O.2   216  GLU216     -0.2718
     67  CB        -2.2430   19.2010   12.1140 C.3   216  GLU216      0.0402
     68  CG        -1.9480   17.9340   12.7470 C.3   216  GLU216      0.1161
     69  CD        -0.9530   18.0670   13.9150 C.2   216  GLU216      0.3649
     70  OE1       -0.1330   19.0050   14.0040 O.co2 216  GLU216     -0.2457
     71  OE2       -0.9970   17.1680   14.8000 O.co2 216  GLU216     -0.2457
     72  N         -4.2820   21.3680   11.3010 N.am  217  ALA217     -0.1966
     73  CA        -4.2900   22.8480   11.1240 C.3   217  ALA217      0.1728
     74  C         -2.9530   23.4200   11.6490 C.2   217  ALA217      0.2616
     75  O         -2.3300   22.8430   12.5380 O.2   217  ALA217     -0.2715
     76  CB        -5.4740   23.4410   11.9040 C.3   217  ALA217      0.0334
     77  N         -2.4910   24.5350   11.1040 N.am  218  ALA218     -0.1963
     78  CA        -1.2800   25.1770   11.6010 C.3   218  ALA218      0.1728
     79  C         -1.6330   25.7820   12.9560 C.2   218  ALA218      0.2616
     80  O         -2.7560   26.3170   13.1710 O.2   218  ALA218     -0.2715
     81  CB        -0.7660   26.2260   10.6330 C.3   218  ALA218      0.0334
     82  N         -0.7060   25.6410   13.9030 N.am  219  VAL219     -0.1977
     83  CA        -0.8480   26.4050   15.1260 C.3   219  VAL219      0.1596
     84  C          0.1720   27.5420   15.0930 C.2   219  VAL219      0.2287
     85  O          1.3960   27.2940   15.1210 O.2   219  VAL219     -0.2864
     86  CB        -0.6690   25.5220   16.3980 C.3   219  VAL219      0.0276
     87  CG1       -1.0200   26.3140   17.6390 C.3   219  VAL219      0.0022
     88  CG2       -1.5830   24.2590   16.2780 C.3   219  VAL219      0.0022
     89  N          7.2550   27.9700   20.1920 N.3   223  GLU223     -0.1245
     90  CA         7.4640   26.5890   20.5150 C.3   223  GLU223      0.1567
     91  C          8.1450   26.4350   21.8310 C.2   223  GLU223      0.2260
     92  O          9.2520   26.8310   21.9860 O.2   223  GLU223     -0.2867
     93  CB         8.3000   25.9310   19.4360 C.3   223  GLU223      0.0388
     94  CG         7.5880   25.7930   18.1770 C.3   223  GLU223      0.1160
     95  CD         8.2320   24.8470   17.2450 C.2   223  GLU223      0.3649
     96  OE1        7.8580   24.8510   16.0870 O.co2 223  GLU223     -0.2457
     97  OE2        9.1160   24.0990   17.6500 O.co2 223  GLU223     -0.2457
     98  N          9.4560   14.3610   27.3120 N.3   278  ARG278     -0.1245
     99  CA         9.5420   15.7860   26.9290 C.3   278  ARG278      0.1563
    100  C          8.1720   16.1570   26.3290 C.2   278  ARG278      0.2260
    101  O          7.6870   15.4140   25.4430 O.2   278  ARG278     -0.2867
    102  CB        10.7210   16.0200   25.9570 C.3   278  ARG278      0.0307
    103  CG        10.8790   17.4960   25.5150 C.3   278  ARG278      0.0489
    104  CD        11.8610   17.6690   24.3070 C.3   278  ARG278      0.2205
    105  NE        11.1540   17.3320   23.0960 N.pl3 278  ARG278     -0.0865
    106  CZ        11.3880   16.2300   22.3520 C.cat 278  ARG278      0.5346
    107  NH1       12.4180   15.3920   22.6000 N.pl3 278  ARG278      0.1354
    108  NH2       10.6100   15.9900   21.3160 N.pl3 278  ARG278      0.1354
    109  N          6.1480   18.9920   24.1520 N.3   280  ASP280     -0.1239
    110  CA         6.4250   20.1660   23.2220 C.3   280  ASP280      0.1674
    111  C          5.0700   20.7870   23.0070 C.2   280  ASP280      0.2266
    112  O          4.1070   20.0640   22.6470 O.2   280  ASP280     -0.2867
    113  CB         6.9510   19.6720   21.8880 C.3   280  ASP280      0.1410
    114  CG         8.2220   18.8660   22.0140 C.2   280  ASP280      0.3668
    115  OD1        8.9040   18.9560   23.0470 O.co2 280  ASP280     -0.2456
    116  OD2        8.5890   18.1680   21.0480 O.co2 280  ASP280     -0.2456
    117  N          2.8450   24.5510   21.8070 N.3   282  PHE282     -0.1241
    118  CA         2.7760   25.8820   21.1380 C.3   282  PHE282      0.1605
    119  C          2.1840   26.8220   22.1220 C.2   282  PHE282      0.2264
    120  O          1.2080   26.4680   22.8020 O.2   282  PHE282     -0.2867
    121  CB         1.8610   25.8680   19.9060 C.3   282  PHE282      0.0534
    122  CG         2.3370   24.9770   18.8000 C.ar  282  PHE282     -0.0203
    123  CD1        3.4220   25.3160   18.0260 C.ar  282  PHE282     -0.0042
    124  CD2        1.6450   23.8090   18.4980 C.ar  282  PHE282     -0.0042
    125  CE1        3.8530   24.4650   16.9660 C.ar  282  PHE282     -0.0003
    126  CE2        2.0420   22.9790   17.4440 C.ar  282  PHE282     -0.0003
    127  CZ         3.1770   23.2860   16.6860 C.ar  282  PHE282     -0.0000
    128  N          1.6700   19.9280   21.0780 N.3   292  ASN292     -0.1225
    129  CA         2.1170   19.3500   19.7960 C.3   292  ASN292      0.1785
    130  C          2.4600   17.8790   19.9540 C.2   292  ASN292      0.2597
    131  O          1.9360   17.0120   19.2210 O.2   292  ASN292     -0.2718
    132  CB         3.3480   20.1110   19.3430 C.3   292  ASN292      0.1169
    133  CG         3.8470   19.6310   18.0310 C.2   292  ASN292      0.2627
    134  OD1        3.0630   19.2640   17.1440 O.2   292  ASN292     -0.2716
    135  ND2        5.1620   19.5760   17.8900 N.am  292  ASN292     -0.0877
    136  N          3.3400   17.5820   20.9080 N.am  293  GLU293     -0.1979
    137  CA         3.8700   16.2450   21.1300 C.3   293  GLU293      0.1602
    138  C          4.1970   15.9020   22.5730 C.2   293  GLU293      0.2287
    139  O          4.6980   16.7410   23.2500 O.2   293  GLU293     -0.2864
    140  CB         5.1720   16.1580   20.3540 C.3   293  GLU293      0.0415
    141  CG         5.7600   14.8030   20.2160 C.3   293  GLU293      0.1163
    142  CD         6.9330   14.7420   19.2500 C.2   293  GLU293      0.3649
    143  OE1        7.9830   14.2480   19.6210 O.co2 293  GLU293     -0.2457
    144  OE2        6.8010   15.1600   18.1280 O.co2 293  GLU293     -0.2457
@<TRIPOS>BOND
     1    59    58    2
     2    58    57    1
     3    56    57    1
     4    57    60    1
     5    15    16    1
     6    17    16    1
     7    17    18    2
     8    16    19    1
     9    26    27    1
    10    60    61    1
    11    60    62    1
    12    27    28    1
    13    27    30    1
    14    28    29    2
    15    24    22   ar
    16    24    25   ar
    17    22    20   ar
    18    66    65    2
    19    25    23   ar
    20    19    20    1
    21    20    21   ar
    22    53    52    2
    23    23    21   ar
    24    63    64    1
    25    30    31    1
    26    52    51    1
    27    65    64    1
    28    65    72   am
    29    81    78    1
    30    77    78    1
    31    77    74   am
    32    64    67    1
    33    73    72    1
    34    73    74    1
    35    73    76    1
    36    49    48    1
    37    48    45    1
    38    31    32    1
    39    78    79    1
    40    74    75    2
    41    32    33    1
    42    51    50    1
    43    51    54    1
    44    67    68    1
    45    50    46   am
    46    54    55    1
    47    46    45    1
    48    46    47    2
    49    68    69    1
    50    45    44    1
    51    79    80    2
    52    79    82   am
    53    33    34    1
    54    82    83    1
    55    69    70   ar
    56    69    71   ar
    57    84    85    2
    58    84    83    1
    59    83    86    1
    60     7     8    1
    61     7     6    1
    62    35    36    1
    63     8     9    1
    64    36    37    1
    65    36    39    1
    66    14    11    1
    67    37    38    2
    68    96    95   ar
    69    88    86    1
    70    13    12    2
    71    12    11    1
    72    86    87    1
    73     5     6    1
    74     5     2    1
    75   127   125   ar
    76   127   126   ar
    77    11    10    1
    78   125   123   ar
    79    39    40    1
    80   134   133    2
    81    95    97   ar
    82    95    94    1
    83     1     2    1
    84   126   124   ar
    85     3     2    1
    86     3     4    2
    87   135   133   am
    88   123   122   ar
    89   133   132    1
    90   144   142   ar
    91    94    93    1
    92    40    41    1
    93   124   122   ar
    94   122   121    1
    95   131   130    2
    96   142   143   ar
    97   142   141    1
    98   132   129    1
    99    43    41   am
   100    93    90    1
   101    41    42    2
   102   129   130    1
   103   129   128    1
   104   121   118    1
   105   130   136   am
   106    89    90    1
   107   141   140    1
   108   140   137    1
   109    90    91    1
   110   136   137    1
   111   116   114   ar
   112   137   138    1
   113   118   117    1
   114   118   119    1
   115   108   106    1
   116    91    92    2
   117   113   114    1
   118   113   110    1
   119   114   115   ar
   120   119   120    2
   121   106   107    1
   122   106   105    2
   123   138   139    2
   124   112   111    2
   125   111   110    1
   126   105   104    1
   127   110   109    1
   128   104   103    1
   129   101   100    2
   130   103   102    1
   131   102    99    1
   132   100    99    1
   133    99    98    1
