@<TRIPOS>MOLECULE
tmp/3r5hA01.pdb
 134 128 0 0 0
SMALL
GASTEIGER

@<TRIPOS>ATOM
      1  N        -16.3250   -0.1210    9.5150 N.3    16  GLY16      -0.1210
      2  CA       -15.7310   -1.3500   10.0570 C.3    16  GLY16       0.1956
      3  C        -15.1000   -2.2770    9.0210 C.2    16  GLY16       0.2612
      4  O        -15.0420   -3.4840    9.2320 O.2    16  GLY16      -0.2717
      5  N        -14.6250   -1.7170    7.9100 N.am   17  GLY17      -0.1942
      6  CA       -13.8640   -2.4930    6.9330 C.3    17  GLY17       0.2014
      7  C        -12.4570   -2.8220    7.4520 C.2    17  GLY17       0.2639
      8  O        -12.1780   -2.6900    8.6450 O.2    17  GLY17      -0.2714
      9  N        -11.5860   -3.2260    6.5380 N.am   18  GLN18      -0.1963
     10  CA       -10.2390   -3.6820    6.8740 C.3    18  GLN18       0.1733
     11  C         -9.3390   -2.5740    7.4040 C.2    18  GLN18       0.2616
     12  O         -8.5160   -2.8270    8.2620 O.2    18  GLN18      -0.2715
     13  CB        -9.5870   -4.3980    5.6820 C.3    18  GLN18       0.0408
     14  CG        -9.2660   -3.5430    4.4710 C.3    18  GLN18       0.0908
     15  CD       -10.4160   -3.4430    3.4510 C.2    18  GLN18       0.2608
     16  OE1      -11.5790   -3.7570    3.7470 O.2    18  GLN18      -0.2717
     17  NE2      -10.0810   -3.0060    2.2420 N.am   18  GLN18      -0.0878
     18  N         -9.5170   -1.3480    6.9140 N.am   19  LEU19      -0.1977
     19  CA        -8.7600   -0.2040    7.4480 C.3    19  LEU19       0.1596
     20  C         -9.0470    0.0110    8.9340 C.2    19  LEU19       0.2287
     21  O         -8.1120    0.0910    9.7530 O.2    19  LEU19      -0.2864
     22  CB        -9.0020    1.0680    6.6220 C.3    19  LEU19       0.0297
     23  CG        -8.8380    0.8850    5.1040 C.3    19  LEU19       0.0022
     24  CD1       -9.0600    2.1920    4.3760 C.3    19  LEU19       0.0001
     25  CD2       -7.4650    0.3200    4.7510 C.3    19  LEU19       0.0001
     26  N        -20.7080    0.4450   11.9080 N.3    38  ASP38      -0.1239
     27  CA       -20.7210   -0.1020   10.5490 C.3    38  ASP38       0.1674
     28  C        -22.1440   -0.5600   10.2150 C.2    38  ASP38       0.2266
     29  O        -22.8450   -1.0210   11.1060 O.2    38  ASP38      -0.2867
     30  CB       -19.7720   -1.2990   10.4790 C.3    38  ASP38       0.1410
     31  CG       -19.5790   -1.8150    9.0630 C.2    38  ASP38       0.3668
     32  OD1      -20.4220   -2.6110    8.6040 O.co2  38  ASP38      -0.2456
     33  OD2      -18.5750   -1.4410    8.4100 O.co2  38  ASP38      -0.2456
     34  N        -24.4260    5.0090    7.9820 N.3    57  TYR57      -0.1241
     35  CA       -23.4740    6.0950    8.2130 C.3    57  TYR57       0.1605
     36  C        -24.1470    7.4540    8.3800 C.2    57  TYR57       0.2264
     37  O        -23.6220    8.3210    9.0840 O.2    57  TYR57      -0.2867
     38  CB       -22.4200    6.1680    7.1030 C.3    57  TYR57       0.0534
     39  CG       -21.4780    4.9880    7.0620 C.ar   57  TYR57      -0.0201
     40  CD1      -21.3590    4.2030    5.9090 C.ar   57  TYR57      -0.0009
     41  CD2      -20.7120    4.6430    8.1740 C.ar   57  TYR57      -0.0009
     42  CE1      -20.4790    3.1080    5.8650 C.ar   57  TYR57       0.0417
     43  CE2      -19.8480    3.5470    8.1440 C.ar   57  TYR57       0.0417
     44  CZ       -19.7270    2.7950    6.9870 C.ar   57  TYR57       0.1957
     45  OH       -18.8710    1.7250    6.9600 O.3    57  TYR57      -0.2866
     46  N        -12.7730    5.5120    8.9040 N.3    76  GLU76      -0.1231
     47  CA       -12.2270    4.9580    7.6640 C.3    76  GLU76       0.1699
     48  C        -13.1690    5.2440    6.4730 C.2    76  GLU76       0.2592
     49  O        -12.7500    5.3180    5.3130 O.2    76  GLU76      -0.2718
     50  CB       -11.9660    3.4490    7.8120 C.3    76  GLU76       0.0402
     51  CG       -13.1880    2.6500    8.2080 C.3    76  GLU76       0.1161
     52  CD       -13.3510    1.3640    7.4040 C.2    76  GLU76       0.3649
     53  OE1      -12.3840    0.5850    7.3020 O.co2  76  GLU76      -0.2457
     54  OE2      -14.4680    1.1200    6.9060 O.co2  76  GLU76      -0.2457
     55  N        -14.4530    5.4030    6.7620 N.am   77  PHE77      -0.1962
     56  CA       -15.4160    5.7490    5.7280 C.3    77  PHE77       0.1771
     57  C        -15.3320    7.2560    5.5040 C.2    77  PHE77       0.2619
     58  O        -15.4350    8.0400    6.4480 O.2    77  PHE77      -0.2715
     59  CB       -16.8220    5.3220    6.1540 C.3    77  PHE77       0.0574
     60  CG       -17.8940    5.6920    5.1720 C.ar   77  PHE77      -0.0200
     61  CD1      -18.8180    6.6840    5.4810 C.ar   77  PHE77      -0.0042
     62  CD2      -17.9790    5.0520    3.9360 C.ar   77  PHE77      -0.0042
     63  CE1      -19.8330    7.0410    4.5700 C.ar   77  PHE77      -0.0003
     64  CE2      -18.9930    5.4020    3.0040 C.ar   77  PHE77      -0.0003
     65  CZ       -19.9180    6.3900    3.3260 C.ar   77  PHE77      -0.0000
     66  N        -15.1100    7.6450    4.2530 N.am   78  GLU78      -0.1977
     67  CA       -14.9320    9.0450    3.8740 C.3    78  GLU78       0.1602
     68  C        -16.2250    9.8150    3.6440 C.2    78  GLU78       0.2287
     69  O        -16.2950   11.0040    3.9290 O.2    78  GLU78      -0.2864
     70  CB       -14.0990    9.1310    2.6030 C.3    78  GLU78       0.0415
     71  CG       -12.6300    9.0290    2.8500 C.3    78  GLU78       0.1163
     72  CD       -11.9100    8.4450    1.6720 C.2    78  GLU78       0.3649
     73  OE1      -11.0750    9.1570    1.0920 O.co2  78  GLU78      -0.2457
     74  OE2      -12.1940    7.2760    1.3210 O.co2  78  GLU78      -0.2457
     75  N        -16.7620    3.9620   -6.1710 N.3   153  TYR153     -0.1241
     76  CA       -15.8760    3.2710   -5.2370 C.3   153  TYR153      0.1605
     77  C        -14.8260    2.4100   -5.9570 C.2   153  TYR153      0.2264
     78  O        -14.0020    1.7590   -5.3060 O.2   153  TYR153     -0.2867
     79  CB       -16.7060    2.4280   -4.2570 C.3   153  TYR153      0.0534
     80  CG       -16.3340    2.6240   -2.7950 C.ar  153  TYR153     -0.0201
     81  CD1      -16.0620    1.5280   -1.9690 C.ar  153  TYR153     -0.0009
     82  CD2      -16.2530    3.9100   -2.2370 C.ar  153  TYR153     -0.0009
     83  CE1      -15.7220    1.7030   -0.6210 C.ar  153  TYR153      0.0417
     84  CE2      -15.9080    4.0990   -0.8950 C.ar  153  TYR153      0.0417
     85  CZ       -15.6480    2.9920   -0.0890 C.ar  153  TYR153      0.1957
     86  OH       -15.3120    3.1690    1.2420 O.3   153  TYR153     -0.2866
     87  N         -6.7530    9.2130    5.0760 N.3   272  ARG272     -0.1245
     88  CA        -6.9330    7.9900    5.8320 C.3   272  ARG272      0.1563
     89  C         -5.8110    7.0450    5.4760 C.2   272  ARG272      0.2260
     90  O         -5.1740    7.2250    4.4410 O.2   272  ARG272     -0.2867
     91  CB        -8.2860    7.3230    5.4580 C.3   272  ARG272      0.0307
     92  CG        -8.5220    7.1670    3.9650 C.3   272  ARG272      0.0489
     93  CD        -9.5800    6.1250    3.6360 C.3   272  ARG272      0.2205
     94  NE        -9.8030    6.0590    2.1870 N.pl3 272  ARG272     -0.0865
     95  CZ        -9.1270    5.2810    1.3390 C.cat 272  ARG272      0.5346
     96  NH1       -8.1530    4.4660    1.7610 N.pl3 272  ARG272      0.1354
     97  NH2       -9.4270    5.3130    0.0510 N.pl3 272  ARG272      0.1354
     98  N         -4.5340    1.6180    0.9240 N.3   275  ASN275     -0.1240
     99  CA        -4.1260    0.3020    0.4570 C.3   275  ASN275      0.1653
    100  C         -2.6490    0.2720    0.0540 C.2   275  ASN275      0.2266
    101  O         -1.9790   -0.7420    0.2450 O.2   275  ASN275     -0.2867
    102  CB        -5.0360   -0.1210   -0.7000 C.3   275  ASN275      0.1155
    103  CG        -4.9890   -1.6270   -1.0140 C.2   275  ASN275      0.2627
    104  OD1       -5.8330   -2.1080   -1.7680 O.2   275  ASN275     -0.2716
    105  ND2       -3.9980   -2.3620   -0.4740 N.am  275  ASN275     -0.0877
    106  N        -13.4370  -11.1900    6.1700 N.3   340  LYS340     -0.1245
    107  CA       -14.7020  -10.8810    5.4970 C.3   340  LYS340      0.1561
    108  C        -15.5220  -12.1580    5.2740 C.2   340  LYS340      0.2260
    109  O        -14.9830  -13.1890    4.8710 O.2   340  LYS340     -0.2867
    110  CB       -14.4840  -10.1120    4.1910 C.3   340  LYS340      0.0271
    111  CG       -14.2550   -8.6190    4.4070 C.3   340  LYS340      0.0035
    112  CD       -13.6980   -7.9230    3.1780 C.3   340  LYS340      0.0206
    113  CE       -13.4890   -6.4280    3.4320 C.3   340  LYS340      0.1093
    114  NZ       -13.0710   -5.6470    2.2240 N.3   340  LYS340     -0.1314
    115  N        -13.5760   -8.0960   -4.5530 N.3   347  ARG347     -0.1231
    116  CA       -13.5710   -7.6200   -3.1690 C.3   347  ARG347      0.1694
    117  C        -12.1790   -7.8310   -2.5600 C.2   347  ARG347      0.2591
    118  O        -11.5550   -8.8710   -2.7750 O.2   347  ARG347     -0.2718
    119  CB       -14.6350   -8.3480   -2.3500 C.3   347  ARG347      0.0321
    120  CG       -14.9390   -7.7120   -1.0030 C.3   347  ARG347      0.0489
    121  CD       -16.1240   -8.3690   -0.3130 C.3   347  ARG347      0.2205
    122  NE       -16.6290   -7.5110    0.7560 N.pl3 347  ARG347     -0.0865
    123  CZ       -17.2850   -7.9210    1.8460 C.cat 347  ARG347      0.5346
    124  NH1      -17.5300   -9.2100    2.0500 N.pl3 347  ARG347      0.1354
    125  NH2      -17.6940   -7.0290    2.7490 N.pl3 347  ARG347      0.1354
    126  N        -11.6860   -6.8350   -1.8230 N.am  348  LYS348     -0.1980
    127  CA       -10.4050   -6.9690   -1.1310 C.3   348  LYS348      0.1596
    128  C        -10.5550   -7.8260    0.1280 C.2   348  LYS348      0.2287
    129  O        -11.2120   -7.4180    1.0900 O.2   348  LYS348     -0.2864
    130  CB        -9.7990   -5.5930   -0.8160 C.3   348  LYS348      0.0298
    131  CG        -9.4960   -4.7700   -2.0600 C.3   348  LYS348      0.0038
    132  CD        -9.0080   -3.3460   -1.7360 C.3   348  LYS348      0.0206
    133  CE        -8.8690   -2.5550   -3.0450 C.3   348  LYS348      0.1093
    134  NZ        -8.0800   -1.3050   -2.9250 N.3   348  LYS348     -0.1314
@<TRIPOS>BOND
     1    75    76    1
     2    77    78    2
     3    77    76    1
     4    76    79    1
     5   115   116    1
     6    79    80    1
     7   116   117    1
     8   116   119    1
     9   133   134    1
    10   133   132    1
    11    80    82   ar
    12    80    81   ar
    13   118   117    2
    14   117   126   am
    15   119   120    1
    16    82    84   ar
    17   131   132    1
    18   131   130    1
    19    81    83   ar
    20   126   127    1
    21   104   103    2
    22   127   130    1
    23   127   128    1
    24   103   102    1
    25   103   105   am
    26   120   121    1
    27    84    85   ar
    28   102    99    1
    29    83    85   ar
    30   121   122    1
    31    85    86    1
    32    97    95    1
    33   100   101    2
    34   100    99    1
    35   128   129    2
    36    99    98    1
    37   122   123    2
    38    73    72   ar
    39    74    72   ar
    40    95    96    1
    41    95    94    2
    42    72    71    1
    43   123   124    1
    44   123   125    1
    45    94    93    1
    46   114   113    1
    47    17    15   am
    48    70    71    1
    49    70    67    1
    50    64    65   ar
    51    64    62   ar
    52   112   113    1
    53   112   111    1
    54    65    63   ar
    55    15    16    2
    56    15    14    1
    57    93    92    1
    58    68    67    1
    59    68    69    2
    60    67    66    1
    61    62    60   ar
    62    92    91    1
    63   110   111    1
    64   110   107    1
    65    66    57   am
    66    24    23    1
    67    90    89    2
    68    14    13    1
    69    63    61   ar
    70    25    23    1
    71   109   108    2
    72    87    88    1
    73    23    22    1
    74    60    61   ar
    75    60    59    1
    76   108   107    1
    77    49    48    2
    78    91    88    1
    79    89    88    1
    80   107   106    1
    81    57    56    1
    82    57    58    2
    83    13    10    1
    84    56    59    1
    85    56    55    1
    86    42    40   ar
    87    42    44   ar
    88    40    39   ar
    89    48    55   am
    90    48    47    1
    91     9    10    1
    92     9     7   am
    93    22    19    1
    94    10    11    1
    95    54    52   ar
    96    18    11   am
    97    18    19    1
    98     6     7    1
    99     6     5    1
   100    45    44    1
   101    44    43   ar
   102    39    38    1
   103    39    41   ar
   104    38    35    1
   105    53    52   ar
   106    11    12    2
   107    52    51    1
   108    19    20    1
   109     7     8    2
   110    47    50    1
   111    47    46    1
   112    50    51    1
   113     5     3   am
   114    34    35    1
   115    43    41   ar
   116    35    36    1
   117    36    37    2
   118    33    31   ar
   119    32    31   ar
   120    20    21    2
   121     3     4    2
   122     3     2    1
   123    31    30    1
   124     1     2    1
   125    28    27    1
   126    28    29    2
   127    30    27    1
   128    27    26    1
