@<TRIPOS>MOLECULE
tmp/3r5hA00.pdb
 171 161 0 0 0
SMALL
GASTEIGER

@<TRIPOS>ATOM
      1  N        -13.2370   15.8900   -6.9510 N.3   107  ARG107     -0.1245
      2  CA       -11.9860   15.8940   -7.6980 C.3   107  ARG107      0.1563
      3  C        -11.5520   17.3050   -8.0800 C.2   107  ARG107      0.2260
      4  O        -10.3720   17.6430   -7.9950 O.2   107  ARG107     -0.2867
      5  CB       -12.1040   15.0290   -8.9580 C.3   107  ARG107      0.0307
      6  CG       -12.1690   13.5200   -8.7030 C.3   107  ARG107      0.0489
      7  CD       -11.9170   12.7820  -10.0210 C.3   107  ARG107      0.2205
      8  NE       -12.1210   11.3300   -9.9510 N.pl3 107  ARG107     -0.0865
      9  CZ       -11.1400   10.4460   -9.7710 C.cat 107  ARG107      0.5346
     10  NH1      -11.4190    9.1470   -9.7360 N.pl3 107  ARG107      0.1354
     11  NH2       -9.8820   10.8480   -9.6250 N.pl3 107  ARG107      0.1354
     12  N         -2.1330   17.5960  -13.3600 N.3   122  ALA122     -0.1245
     13  CA        -2.5100   17.6220  -14.7650 C.3   122  ALA122      0.1562
     14  C         -3.4820   18.7790  -15.0010 C.2   122  ALA122      0.2260
     15  O         -4.3380   19.0730  -14.1470 O.2   122  ALA122     -0.2867
     16  CB        -3.1470   16.2960  -15.1660 C.3   122  ALA122      0.0290
     17  N         -8.6210   12.8670  -20.2900 N.3   145  VAL145     -0.1245
     18  CA        -9.4340   11.9440  -19.4950 C.3   145  VAL145      0.1561
     19  C        -10.5560   12.6790  -18.7670 C.2   145  VAL145      0.2260
     20  O        -10.3130   13.6100  -17.9870 O.2   145  VAL145     -0.2867
     21  CB        -8.6150   11.2620  -18.3840 C.3   145  VAL145      0.0252
     22  CG1       -9.3380   10.0300  -17.8860 C.3   145  VAL145      0.0019
     23  CG2       -7.2330   10.9290  -18.8610 C.3   145  VAL145      0.0019
     24  N        -13.4250   12.2960  -15.9950 N.3   147  LYS147     -0.1245
     25  CA       -13.7900   11.5070  -14.8260 C.3   147  LYS147      0.1561
     26  C        -14.9110   12.2210  -14.0840 C.2   147  LYS147      0.2260
     27  O        -15.0250   13.4390  -14.1750 O.2   147  LYS147     -0.2867
     28  CB       -12.6110   11.3900  -13.8450 C.3   147  LYS147      0.0271
     29  CG       -11.2610   11.0740  -14.4160 C.3   147  LYS147      0.0035
     30  CD       -10.2400   11.1900  -13.2930 C.3   147  LYS147      0.0206
     31  CE        -8.8500   10.9110  -13.7890 C.3   147  LYS147      0.1093
     32  NZ        -7.8230   11.3080  -12.7900 N.3   147  LYS147     -0.1314
     33  N        -18.1880    6.7250   -6.9520 N.3   152  GLY152     -0.1225
     34  CA       -17.4680    5.6940   -7.6930 C.3   152  GLY152      0.1811
     35  C        -16.4050    5.0800   -6.8020 C.2   152  GLY152      0.2280
     36  O        -15.2900    5.6050   -6.6850 O.2   152  GLY152     -0.2866
     37  N        -14.8590    2.4290   -7.2940 N.3   154  ASP154     -0.1225
     38  CA       -13.9350    1.6500   -8.1420 C.3   154  ASP154      0.1805
     39  C        -13.1970    2.4790   -9.2020 C.2   154  ASP154      0.2598
     40  O        -12.0170    2.2270   -9.4910 O.2   154  ASP154     -0.2718
     41  CB       -14.6630    0.4670   -8.8170 C.3   154  ASP154      0.1424
     42  CG       -15.8330    0.9070   -9.7090 C.2   154  ASP154      0.3668
     43  OD1      -16.9000    1.3010   -9.1750 O.co2 154  ASP154     -0.2456
     44  OD2      -15.6880    0.8310  -10.9510 O.co2 154  ASP154     -0.2456
     45  N        -13.9010    3.4540   -9.7760 N.am  155  GLY155     -0.1957
     46  CA       -13.4080    4.2200  -10.9200 C.3   155  GLY155      0.1869
     47  C        -14.2530    3.9530  -12.1500 C.2   155  GLY155      0.2309
     48  O        -13.7350    3.8830  -13.2680 O.2   155  GLY155     -0.2863
     49  N        -15.1030    6.8370  -15.8650 N.3   158  GLN158     -0.1245
     50  CA       -13.9260    7.3640  -16.5420 C.3   158  GLN158      0.1566
     51  C        -13.9300    7.0250  -18.0300 C.2   158  GLN158      0.2260
     52  O        -14.1270    5.8770  -18.4080 O.2   158  GLN158     -0.2867
     53  CB       -12.6440    6.8710  -15.8720 C.3   158  GLN158      0.0367
     54  CG       -11.3790    7.4470  -16.4870 C.3   158  GLN158      0.0905
     55  CD       -10.1500    7.3080  -15.5980 C.2   158  GLN158      0.2608
     56  OE1      -10.1930    7.6050  -14.4010 O.2   158  GLN158     -0.2717
     57  NE2       -9.0430    6.8690  -16.1890 N.am  158  GLN158     -0.0878
     58  N         -9.2310   16.0980  -17.5810 N.3   182  GLU182     -0.1231
     59  CA        -7.7860   16.2420  -17.3140 C.3   182  GLU182      0.1699
     60  C         -6.9580   15.9640  -18.5660 C.2   182  GLU182      0.2592
     61  O         -7.2460   15.0040  -19.2770 O.2   182  GLU182     -0.2718
     62  CB        -7.3250   15.2140  -16.2790 C.3   182  GLU182      0.0402
     63  CG        -7.8950   15.3430  -14.8880 C.3   182  GLU182      0.1161
     64  CD        -7.2740   14.3380  -13.9230 C.2   182  GLU182      0.3649
     65  OE1       -7.8430   14.1260  -12.8220 O.co2 182  GLU182     -0.2457
     66  OE2       -6.2210   13.7490  -14.2710 O.co2 182  GLU182     -0.2457
     67  N         -5.9140   16.7620  -18.8140 N.am  183  LYS183     -0.1966
     68  CA        -4.8670   16.3530  -19.7590 C.3   183  LYS183      0.1728
     69  C         -4.3460   14.9530  -19.3940 C.2   183  LYS183      0.2616
     70  O         -4.1710   14.6450  -18.2110 O.2   183  LYS183     -0.2715
     71  CB        -3.6920   17.3250  -19.7480 C.3   183  LYS183      0.0311
     72  CG        -3.7380   18.4540  -20.7860 C.3   183  LYS183      0.0038
     73  CD        -2.3210   18.8180  -21.2490 C.3   183  LYS183      0.0206
     74  CE        -2.0130   20.3070  -21.1360 C.3   183  LYS183      0.1093
     75  NZ        -2.7010   21.1650  -22.1440 N.3   183  LYS183     -0.1314
     76  N         -4.1440   14.1080  -20.4030 N.am  184  TRP184     -0.1960
     77  CA        -3.4680   12.8260  -20.2290 C.3   184  TRP184      0.1771
     78  C         -1.9860   13.0710  -19.9250 C.2   184  TRP184      0.2619
     79  O         -1.3100   13.8110  -20.6350 O.2   184  TRP184     -0.2715
     80  CB        -3.6320   11.9660  -21.4840 C.3   184  TRP184      0.0590
     81  CG        -3.0290   10.5690  -21.4360 C.ar  184  TRP184      0.0006
     82  CD1       -1.8140   10.1820  -21.9440 C.ar  184  TRP184      0.0946
     83  CD2       -3.6330    9.3760  -20.9000 C.ar  184  TRP184      0.0152
     84  NE1       -1.6200    8.8300  -21.7340 N.ar  184  TRP184     -0.2442
     85  CE2       -2.7190    8.3150  -21.0990 C.ar  184  TRP184      0.0810
     86  CE3       -4.8420    9.1060  -20.2560 C.ar  184  TRP184      0.0012
     87  CZ2       -2.9870    7.0050  -20.6800 C.ar  184  TRP184      0.0191
     88  CZ3       -5.1030    7.8020  -19.8370 C.ar  184  TRP184      0.0001
     89  CH2       -4.1820    6.7720  -20.0550 C.ar  184  TRP184      0.0015
     90  N         -1.5040   12.4850  -18.8340 N.am  185  VAL185     -0.1977
     91  CA        -0.1080   12.6170  -18.4600 C.3   185  VAL185      0.1596
     92  C          0.6370   11.3780  -18.9560 C.2   185  VAL185      0.2287
     93  O          0.3170   10.2710  -18.5260 O.2   185  VAL185     -0.2864
     94  CB         0.0640   12.7320  -16.9140 C.3   185  VAL185      0.0276
     95  CG1        1.5030   13.0660  -16.5560 C.3   185  VAL185      0.0022
     96  CG2       -0.8810   13.7750  -16.3300 C.3   185  VAL185      0.0022
     97  N          3.4660    9.2120  -18.2700 N.3   187  PHE187     -0.1241
     98  CA         4.2920    8.9960  -17.0910 C.3   187  PHE187      0.1605
     99  C          4.8320    7.5660  -17.1340 C.2   187  PHE187      0.2264
    100  O          4.3110    6.7190  -17.8530 O.2   187  PHE187     -0.2867
    101  CB         3.5170    9.2810  -15.7820 C.3   187  PHE187      0.0534
    102  CG         2.3840    8.3220  -15.5200 C.ar  187  PHE187     -0.0203
    103  CD1        1.0690    8.6630  -15.8570 C.ar  187  PHE187     -0.0042
    104  CD2        2.6240    7.0830  -14.9330 C.ar  187  PHE187     -0.0042
    105  CE1        0.0180    7.7770  -15.6270 C.ar  187  PHE187     -0.0003
    106  CE2        1.5950    6.1820  -14.7150 C.ar  187  PHE187     -0.0003
    107  CZ         0.2840    6.5290  -15.0600 C.ar  187  PHE187     -0.0000
    108  N          3.3380    5.1010  -11.3930 N.3   190  GLU190     -0.1245
    109  CA         2.4420    5.6090  -10.3550 C.3   190  GLU190      0.1567
    110  C          3.0770    5.2910   -9.0140 C.2   190  GLU190      0.2260
    111  O          3.4560    4.1530   -8.7620 O.2   190  GLU190     -0.2867
    112  CB         1.0690    4.9410  -10.4270 C.3   190  GLU190      0.0388
    113  CG         0.3140    5.2310  -11.6910 C.3   190  GLU190      0.1160
    114  CD        -1.1840    5.0600  -11.5310 C.2   190  GLU190      0.3649
    115  OE1       -1.7640    4.3260  -12.3570 O.co2 190  GLU190     -0.2457
    116  OE2       -1.7830    5.6500  -10.5860 O.co2 190  GLU190     -0.2457
    117  N         -1.4770   -0.9820  -10.7780 N.3   213  HIS213     -0.1241
    118  CA        -2.9280   -1.2050  -10.8460 C.3   213  HIS213      0.1621
    119  C         -3.2850   -2.1320  -12.0280 C.2   213  HIS213      0.2264
    120  O         -2.6950   -2.0260  -13.0930 O.2   213  HIS213     -0.2867
    121  CB        -3.6820    0.1280  -10.9950 C.3   213  HIS213      0.0745
    122  CG        -3.5160    1.0530   -9.8270 C.ar  213  HIS213      0.0817
    123  ND1       -2.4640    1.9370   -9.7230 N.ar  213  HIS213     -0.2268
    124  CD2       -4.2620    1.2210   -8.7070 C.ar  213  HIS213      0.1154
    125  CE1       -2.5670    2.6060   -8.5890 C.ar  213  HIS213      0.1986
    126  NE2       -3.6460    2.1850   -7.9540 N.ar  213  HIS213     -0.2212
    127  N         -7.9730   -1.0860  -12.7490 N.3   216  ASN216     -0.1240
    128  CA        -8.2220    0.0190  -11.8190 C.3   216  ASN216      0.1653
    129  C         -8.3540   -0.4290  -10.3580 C.2   216  ASN216      0.2266
    130  O         -8.9660    0.2610   -9.5250 O.2   216  ASN216     -0.2867
    131  CB        -9.4580    0.8330  -12.2320 C.3   216  ASN216      0.1155
    132  CG        -9.3660    2.2920  -11.8000 C.2   216  ASN216      0.2627
    133  OD1       -8.2660    2.8240  -11.5820 O.2   216  ASN216     -0.2716
    134  ND2      -10.5200    2.9500  -11.6730 N.am  216  ASN216     -0.0877
    135  N         -1.2730   10.2340   -3.8610 N.3   255  GLU255     -0.1245
    136  CA        -1.0180    9.4460   -5.0510 C.3   255  GLU255      0.1567
    137  C         -0.5510   10.3360   -6.1830 C.2   255  GLU255      0.2260
    138  O         -1.1300   11.4000   -6.4270 O.2   255  GLU255     -0.2867
    139  CB        -2.2640    8.6720   -5.4550 C.3   255  GLU255      0.0388
    140  CG        -2.5340    7.4880   -4.5530 C.3   255  GLU255      0.1160
    141  CD        -3.6080    6.5980   -5.1320 C.2   255  GLU255      0.3649
    142  OE1       -4.8050    6.9120   -4.9290 O.co2 255  GLU255     -0.2457
    143  OE2       -3.2450    5.5990   -5.8060 O.co2 255  GLU255     -0.2457
    144  N          1.7730   10.7210  -10.2100 N.3   257  PHE257     -0.1241
    145  CA         2.3220   10.1920  -11.4650 C.3   257  PHE257      0.1605
    146  C          3.7660   10.6830  -11.5840 C.2   257  PHE257      0.2264
    147  O          4.0420   11.8580  -11.3830 O.2   257  PHE257     -0.2867
    148  CB         1.5350   10.6760  -12.6900 C.3   257  PHE257      0.0534
    149  CG         0.0550   10.3430  -12.6720 C.ar  257  PHE257     -0.0203
    150  CD1       -0.8730   11.2800  -13.1000 C.ar  257  PHE257     -0.0042
    151  CD2       -0.4090    9.1050  -12.2380 C.ar  257  PHE257     -0.0042
    152  CE1       -2.2620   10.9900  -13.1090 C.ar  257  PHE257     -0.0003
    153  CE2       -1.7830    8.8020  -12.2410 C.ar  257  PHE257     -0.0003
    154  CZ        -2.7080    9.7520  -12.6810 C.ar  257  PHE257     -0.0000
    155  N         -2.0580   13.0780   -8.3430 N.3   267  ASN267     -0.1225
    156  CA        -3.2740   12.5110   -8.9020 C.3   267  ASN267      0.1785
    157  C         -4.4430   12.6460   -7.9260 C.2   267  ASN267      0.2597
    158  O         -5.4680   13.2300   -8.2620 O.2   267  ASN267     -0.2718
    159  CB        -3.0360   11.0380   -9.2570 C.3   267  ASN267      0.1169
    160  CG        -4.2850   10.3300   -9.7200 C.2   267  ASN267      0.2627
    161  OD1       -5.1210   10.9010  -10.4180 O.2   267  ASN267     -0.2716
    162  ND2       -4.3950    9.0540   -9.3690 N.am  267  ASN267     -0.0877
    163  N         -4.2950   12.0950   -6.7270 N.am  268  GLU268     -0.1979
    164  CA        -5.3790   12.1340   -5.7490 C.3   268  GLU268      0.1602
    165  C         -4.9130   11.9410   -4.3130 C.2   268  GLU268      0.2287
    166  O         -3.7940   11.4770   -4.0490 O.2   268  GLU268     -0.2864
    167  CB        -6.5400   11.1680   -6.1180 C.3   268  GLU268      0.0415
    168  CG        -6.1470    9.7220   -6.1970 C.3   268  GLU268      0.1163
    169  CD        -7.3140    8.7750   -6.4470 C.2   268  GLU268      0.3649
    170  OE1       -7.0160    7.5790   -6.7590 O.co2 268  GLU268     -0.2457
    171  OE2       -8.5010    9.2060   -6.3260 O.co2 268  GLU268     -0.2457
@<TRIPOS>BOND
     1    75    74    1
     2    82    84   ar
     3    82    81   ar
     4    84    85   ar
     5    80    81    1
     6    80    77    1
     7    81    83   ar
     8    73    74    1
     9    73    72    1
    10    85    83   ar
    11    85    87   ar
    12    83    86   ar
    13    72    71    1
    14    87    89   ar
    15    79    78    2
    16    76    77    1
    17    76    69   am
    18    17    18    1
    19    86    88   ar
    20    77    78    1
    21    89    88   ar
    22    78    90   am
    23    68    71    1
    24    68    69    1
    25    68    67    1
    26    18    19    1
    27    18    21    1
    28    69    70    2
    29    61    60    2
    30    92    93    2
    31    92    91    1
    32    23    21    1
    33    90    91    1
    34    67    60   am
    35    19    20    2
    36    60    59    1
    37    91    94    1
    38    52    51    2
    39    21    22    1
    40    97    98    1
    41    51    50    1
    42   100    99    2
    43    58    59    1
    44    59    62    1
    45    99    98    1
    46    98   101    1
    47    94    95    1
    48    94    96    1
    49    50    53    1
    50    50    49    1
    51    54    53    1
    52    54    55    1
    53    62    63    1
    54    57    55   am
    55    24    25    1
    56   103   105   ar
    57   103   102   ar
    58   101   102    1
    59   105   107   ar
    60    55    56    2
    61   102   104   ar
    62    16    13    1
    63   107   106   ar
    64    14    13    1
    65    14    15    2
    66   104   106   ar
    67    63    64    1
    68    25    26    1
    69    25    28    1
    70    13    12    1
    71    29    28    1
    72    29    30    1
    73    66    64   ar
    74    27    26    2
    75    64    65   ar
    76    31    30    1
    77    31    32    1
    78    48    47    2
    79   152   150   ar
    80   152   154   ar
    81   150   149   ar
    82   120   119    2
    83   127   128    1
    84   148   149    1
    85   148   145    1
    86   154   153   ar
    87   149   151   ar
    88   115   114   ar
    89   153   151   ar
    90   131   128    1
    91   131   132    1
    92    47    46    1
    93   119   118    1
    94   128   129    1
    95   132   134   am
    96   132   133    2
    97   113   114    1
    98   113   112    1
    99   146   145    1
   100   146   147    2
   101   114   116   ar
   102   145   144    1
   103   108   109    1
   104   121   118    1
   105   121   122    1
   106    44    42   ar
   107    46    45    1
   108   118   117    1
   109   112   109    1
   110   161   160    2
   111   129   130    2
   112   109   110    1
   113     7     8    1
   114     7     6    1
   115     8     9    2
   116   122   123   ar
   117   122   124   ar
   118    45    39   am
   119     9    10    1
   120     9    11    1
   121   123   125   ar
   122   160   162   am
   123   160   159    1
   124    42    43   ar
   125    42    41    1
   126    40    39    2
   127   159   156    1
   128    39    38    1
   129   110   111    2
   130     5     6    1
   131     5     2    1
   132   156   155    1
   133   156   157    1
   134    41    38    1
   135   124   126   ar
   136   125   126   ar
   137   158   157    2
   138    38    37    1
   139     3     4    2
   140     3     2    1
   141   157   163   am
   142     2     1    1
   143    34    33    1
   144    34    35    1
   145    35    36    2
   146   170   169   ar
   147   163   164    1
   148   169   171   ar
   149   169   168    1
   150   138   137    2
   151   168   167    1
   152   137   136    1
   153   167   164    1
   154   143   141   ar
   155   164   165    1
   156   139   136    1
   157   139   140    1
   158   141   142   ar
   159   141   140    1
   160   136   135    1
   161   165   166    2
