@<TRIPOS>MOLECULE
tmp/3r5iA01.pdb
 95 91 0 0 0
SMALL
GASTEIGER

@<TRIPOS>ATOM
      1  N         30.5030   27.0140   34.9700 N.3     1  VAL1       -0.1231
      2  CA        29.1140   26.9180   35.3560 C.3     1  VAL1        0.1692
      3  C         28.6300   28.2820   35.8720 C.2     1  VAL1        0.2591
      4  O         29.0430   28.7480   36.9270 O.2     1  VAL1       -0.2718
      5  CB        28.9270   25.8340   36.4560 C.3     1  VAL1        0.0266
      6  CG1       27.4210   25.5190   36.6420 C.3     1  VAL1        0.0020
      7  CG2       29.7060   24.5640   36.0740 C.3     1  VAL1        0.0020
      8  N         27.7520   28.9190   35.1090 N.am    2  LEU2       -0.1980
      9  CA        27.2280   30.2300   35.4650 C.3     2  LEU2        0.1596
     10  C         26.0800   30.1830   36.4780 C.2     2  LEU2        0.2287
     11  O         25.1300   29.4080   36.3430 O.2     2  LEU2       -0.2864
     12  CB        26.7660   30.9580   34.2070 C.3     2  LEU2        0.0297
     13  CG        27.8260   31.0460   33.1150 C.3     2  LEU2        0.0022
     14  CD1       27.2660   31.7530   31.8990 C.3     2  LEU2        0.0001
     15  CD2       29.0180   31.7740   33.6580 C.3     2  LEU2        0.0001
     16  N         22.7290   31.0820   26.7310 N.3    73  VAL73      -0.1231
     17  CA        23.6760   30.7770   27.8000 C.3    73  VAL73       0.1692
     18  C         23.3250   29.4580   28.4830 C.2    73  VAL73       0.2592
     19  O         24.1890   28.7820   29.0420 O.2    73  VAL73      -0.2718
     20  CB        23.7360   31.9260   28.8470 C.3    73  VAL73       0.0266
     21  CG1       22.3750   32.1570   29.4710 C.3    73  VAL73       0.0020
     22  CG2       24.7410   31.5920   29.9060 C.3    73  VAL73       0.0020
     23  N         22.0550   29.0730   28.4140 N.am   74  ASP74      -0.1960
     24  CA        21.6360   27.8230   29.0280 C.3    74  ASP74       0.1840
     25  C         21.7930   26.6050   28.1270 C.2    74  ASP74       0.2622
     26  O         21.3490   25.5170   28.4680 O.2    74  ASP74      -0.2715
     27  CB        20.1930   27.9280   29.5330 C.3    74  ASP74       0.1450
     28  CG        20.0980   28.6750   30.8550 C.2    74  ASP74       0.3671
     29  OD1       20.9650   28.4370   31.7260 O.co2  74  ASP74      -0.2456
     30  OD2       19.1640   29.4900   31.0320 O.co2  74  ASP74      -0.2456
     31  N         22.4190   26.7840   26.9730 N.am   75  ASP75      -0.1957
     32  CA        22.6630   25.6660   26.0550 C.3    75  ASP75       0.1840
     33  C         23.6810   26.1040   25.0290 C.2    75  ASP75       0.2622
     34  O         23.4180   26.0070   23.8350 O.2    75  ASP75      -0.2715
     35  CB        21.3840   25.2720   25.3110 C.3    75  ASP75       0.1450
     36  CG        21.5940   24.0780   24.3540 C.2    75  ASP75       0.3671
     37  OD1       22.7440   23.5010   24.2500 O.co2  75  ASP75      -0.2456
     38  OD2       20.6070   23.6730   23.6620 O.co2  75  ASP75      -0.2456
     39  N         24.8420   26.5720   25.4940 N.am   76  MET76      -0.1964
     40  CA        25.9070   27.0620   24.6180 C.3    76  MET76       0.1722
     41  C         26.5350   26.0500   23.6650 C.2    76  MET76       0.2458
     42  O         26.8140   26.3750   22.5180 O.2    76  MET76      -0.2730
     43  CB        27.0140   27.7230   25.4550 C.3    76  MET76       0.0427
     44  CG        26.6400   29.0950   26.0020 C.3    76  MET76       0.0599
     45  SD        28.0590   29.9090   26.7610 S.3    76  MET76      -0.1393
     46  CE        27.9380   29.2690   28.4420 C.3    76  MET76       0.0692
     47  N         26.7750   24.8130   24.1280 N.am   77  PRO77      -0.2727
     48  CA        27.3760   23.7990   23.2520 C.3    77  PRO77       0.1402
     49  C         26.6000   23.6450   21.9490 C.2    77  PRO77       0.2269
     50  O         27.1720   23.7030   20.8630 O.2    77  PRO77      -0.2865
     51  CB        27.3190   22.5340   24.1020 C.3    77  PRO77       0.0296
     52  CG        27.4670   23.0760   25.4800 C.3    77  PRO77       0.0237
     53  CD        26.5560   24.2700   25.4780 C.3    77  PRO77       0.0939
     54  N         33.8500   37.5900   33.1460 N.3   126  ASP126     -0.1225
     55  CA        35.0650   36.7650   33.0310 C.3   126  ASP126      0.1805
     56  C         34.6710   35.2930   32.9580 C.2   126  ASP126      0.2597
     57  O         35.1310   34.5500   32.0980 O.2   126  ASP126     -0.2718
     58  CB        35.9590   36.9550   34.2610 C.3   126  ASP126      0.1424
     59  CG        37.2910   36.2240   34.1370 C.2   126  ASP126      0.3668
     60  OD1       38.1000   36.5790   33.2460 O.co2 126  ASP126     -0.2456
     61  OD2       37.5310   35.2930   34.9160 O.co2 126  ASP126     -0.2456
     62  N         33.7980   34.8950   33.8740 N.am  127  LYS127     -0.1979
     63  CA        33.2930   33.5350   33.9620 C.3   127  LYS127      0.1596
     64  C         32.5900   33.1530   32.6600 C.2   127  LYS127      0.2287
     65  O         32.8050   32.0710   32.1300 O.2   127  LYS127     -0.2864
     66  CB        32.3200   33.4590   35.1370 C.3   127  LYS127      0.0298
     67  CG        32.1680   32.1130   35.7540 C.3   127  LYS127      0.0038
     68  CD        31.5350   32.2930   37.1180 C.3   127  LYS127      0.0206
     69  CE        31.0830   30.9830   37.7030 C.3   127  LYS127      0.1093
     70  NZ        30.2330   31.2280   38.8910 N.3   127  LYS127     -0.1314
     71  N         35.0280   32.7440   29.8120 N.3   130  ALA130     -0.1231
     72  CA        35.8040   31.5270   30.0460 C.3   130  ALA130      0.1694
     73  C         34.9630   30.3330   29.6170 C.2   130  ALA130      0.2592
     74  O         35.4750   29.3780   29.0650 O.2   130  ALA130     -0.2718
     75  CB        36.1850   31.4120   31.5330 C.3   130  ALA130      0.0304
     76  N         33.6590   30.4050   29.8640 N.am  131  SER131     -0.1952
     77  CA        32.7460   29.3330   29.4900 C.3   131  SER131      0.1924
     78  C         32.6470   29.2580   27.9570 C.2   131  SER131      0.2314
     79  O         32.6390   28.1670   27.3600 O.2   131  SER131     -0.2863
     80  CB        31.3590   29.5940   30.1000 C.3   131  SER131      0.2116
     81  OG        30.4730   28.5260   29.8290 O.3   131  SER131     -0.2180
     82  N         35.8700   27.7470   26.6570 N.3   134  THR134     -0.1203
     83  CA        35.9360   26.3040   26.8270 C.3   134  THR134      0.1994
     84  C         35.1300   25.5830   25.7400 C.2   134  THR134      0.2617
     85  O         35.5910   24.6100   25.1470 O.2   134  THR134     -0.2717
     86  CB        35.3940   25.8960   28.2000 C.3   134  THR134      0.1784
     87  OG1       36.3690   26.2330   29.1830 O.3   134  THR134     -0.2211
     88  CG2       35.1200   24.4030   28.2560 C.3   134  THR134      0.0376
     89  N         33.9290   26.0690   25.4650 N.am  135  VAL135     -0.1979
     90  CA        33.1050   25.4490   24.4500 C.3   135  VAL135      0.1595
     91  C         33.7710   25.5610   23.0840 C.2   135  VAL135      0.2287
     92  O         33.8270   24.5780   22.3280 O.2   135  VAL135     -0.2864
     93  CB        31.6960   26.1060   24.3960 C.3   135  VAL135      0.0276
     94  CG1       30.8510   25.4630   23.2930 C.3   135  VAL135      0.0022
     95  CG2       30.9930   25.9690   25.7530 C.3   135  VAL135      0.0022
@<TRIPOS>BOND
     1    50    49    2
     2    49    48    1
     3    92    91    2
     4    42    41    2
     5    91    90    1
     6    48    51    1
     7    48    47    1
     8    94    93    1
     9    38    36   ar
    10    41    47   am
    11    41    40    1
    12    34    33    2
    13    51    52    1
    14    47    53    1
    15    37    36   ar
    16    36    35    1
    17    93    90    1
    18    93    95    1
    19    90    89    1
    20    40    43    1
    21    40    39    1
    22    33    39   am
    23    33    32    1
    24    85    84    2
    25    35    32    1
    26    43    44    1
    27    89    84   am
    28    53    52    1
    29    84    83    1
    30    44    45    1
    31    32    31    1
    32    82    83    1
    33    16    17    1
    34    45    46    1
    35    83    86    1
    36    31    25   am
    37    79    78    2
    38    17    18    1
    39    17    20    1
    40    78    77    1
    41    25    26    2
    42    25    24    1
    43    86    88    1
    44    86    87    1
    45    23    18   am
    46    23    24    1
    47    18    19    2
    48    20    21    1
    49    20    22    1
    50    24    27    1
    51    74    73    2
    52    77    76    1
    53    77    80    1
    54    27    28    1
    55    73    76   am
    56    73    72    1
    57    71    72    1
    58    81    80    1
    59    72    75    1
    60    28    30   ar
    61    28    29   ar
    62    14    13    1
    63    57    56    2
    64    65    64    2
    65    64    63    1
    66    56    55    1
    67    56    62   am
    68    55    54    1
    69    55    58    1
    70    13    15    1
    71    13    12    1
    72    60    59   ar
    73    62    63    1
    74    63    66    1
    75    59    58    1
    76    59    61   ar
    77    12     9    1
    78     1     2    1
    79     8     9    1
    80     8     3   am
    81    66    67    1
    82     2     3    1
    83     2     5    1
    84     9    10    1
    85    67    68    1
    86     3     4    2
    87     7     5    1
    88    11    10    2
    89     5     6    1
    90    68    69    1
    91    69    70    1
