@<TRIPOS>MOLECULE
tmp/3r5jA00.pdb
 81 76 0 0 0
SMALL
GASTEIGER

@<TRIPOS>ATOM
      1  N        -35.5580    2.4660   30.6330 N.3    39  GLU39      -0.1245
      2  CA       -36.1110    3.7820   30.3430 C.3    39  GLU39       0.1567
      3  C        -35.9170    4.2280   28.8890 C.2    39  GLU39       0.2260
      4  O        -34.9760    3.7820   28.2100 O.2    39  GLU39      -0.2867
      5  CB       -35.4870    4.8210   31.2780 C.3    39  GLU39       0.0388
      6  CG       -34.0030    4.7060   31.3250 C.3    39  GLU39       0.1160
      7  CD       -33.4300    5.5340   32.4290 C.2    39  GLU39       0.3649
      8  OE1      -34.2230    6.3110   33.0340 O.co2  39  GLU39      -0.2457
      9  OE2      -32.1940    5.4430   32.6650 O.co2  39  GLU39      -0.2457
     10  N        -34.5680    6.3260   25.9930 N.3    41  ARG41      -0.1231
     11  CA       -33.2370    6.9230   25.8310 C.3    41  ARG41       0.1694
     12  C        -33.2930    8.3220   25.2090 C.2    41  ARG41       0.2592
     13  O        -33.1340    8.4980   23.9950 O.2    41  ARG41      -0.2718
     14  CB       -32.2930    5.9610   25.0740 C.3    41  ARG41       0.0321
     15  CG       -31.9970    4.6920   25.8750 C.3    41  ARG41       0.0489
     16  CD       -31.1000    3.7050   25.1360 C.3    41  ARG41       0.2205
     17  NE       -29.7800    4.2940   24.9470 N.pl3  41  ARG41      -0.0865
     18  CZ       -29.3020    4.7920   23.8100 C.cat  41  ARG41       0.5346
     19  NH1      -29.9900    4.7450   22.6690 N.pl3  41  ARG41       0.1354
     20  NH2      -28.0780    5.3060   23.8180 N.pl3  41  ARG41       0.1354
     21  N        -33.5490    9.3120   26.0600 N.am   42  SER42      -0.1952
     22  CA       -33.6220   10.7050   25.6370 C.3    42  SER42       0.1924
     23  C        -32.2450   11.1450   25.1500 C.2    42  SER42       0.2314
     24  O        -31.2400   10.9050   25.8130 O.2    42  SER42      -0.2863
     25  CB       -34.1350   11.5900   26.7810 C.3    42  SER42       0.2116
     26  OG       -34.2330   12.9420   26.3720 O.3    42  SER42      -0.2180
     27  N        -27.6910   11.2180   19.0010 N.3    47  ASP47      -0.1239
     28  CA       -26.5870   10.2630   18.7480 C.3    47  ASP47       0.1674
     29  C        -26.7490    9.6390   17.3840 C.2    47  ASP47       0.2266
     30  O        -25.7990    9.5300   16.6060 O.2    47  ASP47      -0.2867
     31  CB       -26.5890    9.1070   19.7600 C.3    47  ASP47       0.1410
     32  CG       -26.2630    9.5420   21.1600 C.2    47  ASP47       0.3668
     33  OD1      -25.6910   10.6350   21.3380 O.co2  47  ASP47      -0.2456
     34  OD2      -26.5800    8.7680   22.0890 O.co2  47  ASP47      -0.2456
     35  N        -27.9030    1.4570   22.5380 N.3    98  SER98      -0.1202
     36  CA       -29.0400    0.8900   23.2800 C.3    98  SER98       0.2020
     37  C        -28.6830    0.8450   24.7580 C.2    98  SER98       0.2619
     38  O        -27.6330    1.3550   25.1540 O.2    98  SER98      -0.2717
     39  CB       -29.3650   -0.5150   22.7610 C.3    98  SER98       0.2103
     40  OG       -30.6160   -1.0000   23.2750 O.3    98  SER98      -0.2182
     41  N        -29.5750    0.2770   25.5790 N.am   99  HIS99      -0.1961
     42  CA       -29.2010   -0.1650   26.9180 C.3    99  HIS99       0.1787
     43  C        -28.4440   -1.4640   26.7820 C.2    99  HIS99       0.2620
     44  O        -28.5520   -2.1560   25.7730 O.2    99  HIS99      -0.2715
     45  CB       -30.4490   -0.4050   27.7830 C.3    99  HIS99       0.0785
     46  CG       -31.1810    0.8470   28.1220 C.ar   99  HIS99       0.0821
     47  ND1      -30.6010    1.8720   28.8380 N.ar   99  HIS99      -0.2267
     48  CD2      -32.4420    1.2510   27.8350 C.ar   99  HIS99       0.1154
     49  CE1      -31.4760    2.8520   28.9820 C.ar   99  HIS99       0.1986
     50  NE2      -32.6010    2.4950   28.3910 N.ar   99  HIS99      -0.2212
     51  N        -27.6570   -1.7930   27.7950 N.am  100  GLY100     -0.1954
     52  CA       -26.9730   -3.0660   27.7750 C.3   100  GLY100      0.1869
     53  C        -26.5140   -3.5190   29.1400 C.2   100  GLY100      0.2309
     54  O        -26.7730   -2.8570   30.1530 O.2   100  GLY100     -0.2863
     55  N        -22.4530    1.8780   22.1520 N.3   140  GLN140     -0.1231
     56  CA       -22.9360    2.8510   23.1190 C.3   140  GLN140      0.1698
     57  C        -24.0300    2.1320   23.8910 C.2   140  GLN140      0.2592
     58  O        -25.1680    2.0560   23.4340 O.2   140  GLN140     -0.2718
     59  CB       -23.5020    4.0850   22.3990 C.3   140  GLN140      0.0381
     60  CG       -24.1840    5.0930   23.3330 C.3   140  GLN140      0.0905
     61  CD       -23.2030    5.7390   24.2650 C.2   140  GLN140      0.2608
     62  OE1      -22.1710    6.2280   23.8270 O.2   140  GLN140     -0.2717
     63  NE2      -23.5180    5.7640   25.5430 N.am  140  GLN140     -0.0878
     64  N        -23.6710    1.5860   25.0440 N.am  141  ALA141     -0.1966
     65  CA       -24.5830    0.8150   25.8920 C.3   141  ALA141      0.1728
     66  C        -23.8940    0.6930   27.2550 C.2   141  ALA141      0.2616
     67  O        -22.6580    0.6550   27.3230 O.2   141  ALA141     -0.2715
     68  CB       -24.8290   -0.5820   25.3010 C.3   141  ALA141      0.0334
     69  N        -24.6610    0.6600   28.3360 N.am  142  CYS142     -0.1968
     70  CA       -24.0920    0.3290   29.6580 C.3   142  CYS142      0.1712
     71  C        -23.5370   -1.0920   29.6910 C.2   142  CYS142      0.2296
     72  O        -24.0180   -1.9640   28.9640 O.2   142  CYS142     -0.2864
     73  CB       -25.1380    0.4640   30.7660 C.3   142  CYS142      0.0983
     74  SG       -25.6480    2.1540   31.1000 S.3   142  CYS142     -0.0798
     75  N        -22.5990    3.0070   38.9700 N.3   147  THR147     -0.1218
     76  CA       -22.2860    4.3980   38.6460 C.3   147  THR147      0.1862
     77  C        -20.8870    4.7280   39.1590 C.2   147  THR147      0.2287
     78  O        -20.5340    4.3520   40.2850 O.2   147  THR147     -0.2866
     79  CB       -23.3120    5.3590   39.2970 C.3   147  THR147      0.1770
     80  OG1      -23.2600    5.1810   40.7040 O.3   147  THR147     -0.2211
     81  CG2      -24.7180    5.1250   38.7800 C.3   147  THR147      0.0375
@<TRIPOS>BOND
     1    30    29    2
     2    29    28    1
     3    28    27    1
     4    28    31    1
     5    31    32    1
     6    32    33   ar
     7    32    34   ar
     8    55    56    1
     9    59    56    1
    10    59    60    1
    11    35    36    1
    12    19    18    1
    13    39    40    1
    14    39    36    1
    15    56    57    1
    16    36    37    1
    17    60    61    1
    18    58    57    2
    19    18    20    1
    20    18    17    2
    21    62    61    2
    22    57    64   am
    23    13    12    2
    24    61    63   am
    25    37    38    2
    26    37    41   am
    27    17    16    1
    28    64    65    1
    29    14    11    1
    30    14    15    1
    31    16    15    1
    32    23    22    1
    33    23    24    2
    34    12    11    1
    35    12    21   am
    36    68    65    1
    37    41    42    1
    38    22    21    1
    39    22    25    1
    40    44    43    2
    41    11    10    1
    42    65    66    1
    43    26    25    1
    44    43    42    1
    45    43    51   am
    46    42    45    1
    47    66    67    2
    48    66    69   am
    49    52    51    1
    50    52    53    1
    51    45    46    1
    52    48    46   ar
    53    48    50   ar
    54    46    47   ar
    55     4     3    2
    56    69    70    1
    57    50    49   ar
    58    47    49   ar
    59     3     2    1
    60    72    71    2
    61    53    54    2
    62    70    71    1
    63    70    73    1
    64     2     1    1
    65     2     5    1
    66    73    74    1
    67     5     6    1
    68     6     7    1
    69     7     9   ar
    70     7     8   ar
    71    76    75    1
    72    76    77    1
    73    76    79    1
    74    81    79    1
    75    77    78    2
    76    79    80    1
