@<TRIPOS>MOLECULE
tmp/3r5mC01.pdb
 189 179 0 0 0
SMALL
GASTEIGER

@<TRIPOS>ATOM
      1  N         42.6890   33.5850    6.2890 N.3    20  VAL20      -0.1245
      2  CA        42.1170   33.0570    7.5250 C.3    20  VAL20       0.1561
      3  C         42.8920   33.5640    8.7470 C.2    20  VAL20       0.2260
      4  O         42.3050   33.8170    9.8010 O.2    20  VAL20      -0.2867
      5  CB        42.0320   31.5130    7.4920 C.3    20  VAL20       0.0252
      6  CG1       41.6670   30.9540    8.8590 C.3    20  VAL20       0.0019
      7  CG2       41.0170   31.0560    6.4420 C.3    20  VAL20       0.0019
      8  N         41.6180   37.0620    9.1130 N.3    23  ILE23      -0.1231
      9  CA        40.2570   36.9890    9.6330 C.3    23  ILE23       0.1692
     10  C         40.2700   36.6520   11.1290 C.2    23  ILE23       0.2592
     11  O         39.4870   37.2120   11.9060 O.2    23  ILE23      -0.2718
     12  CB        39.4170   35.9820    8.7990 C.3    23  ILE23       0.0266
     13  CG1       39.0940   36.5890    7.4260 C.3    23  ILE23       0.0019
     14  CG2       38.1440   35.5790    9.5200 C.3    23  ILE23       0.0020
     15  CD1       38.7190   35.5700    6.3540 C.3    23  ILE23       0.0001
     16  N         41.1770   35.7540   11.5180 N.am   24  CYS24      -0.1970
     17  CA        41.4200   35.4340   12.9300 C.3    24  CYS24       0.1712
     18  C         42.1210   36.5630   13.6920 C.2    24  CYS24       0.2296
     19  O         41.9110   36.7240   14.8970 O.2    24  CYS24      -0.2864
     20  CB        42.2270   34.1430   13.0610 C.3    24  CYS24       0.0983
     21  SG        41.2550   32.6610   12.7570 S.3    24  CYS24      -0.0798
     22  N         41.7600   39.8170   12.9130 N.3    26  ALA26      -0.1231
     23  CA        40.7180   40.8340   13.0580 C.3    26  ALA26       0.1694
     24  C         39.6910   40.4680   14.1340 C.2    26  ALA26       0.2591
     25  O         39.1020   41.3520   14.7610 O.2    26  ALA26      -0.2718
     26  CB        40.0220   41.0690   11.7220 C.3    26  ALA26       0.0304
     27  N         39.4830   39.1630   14.3250 N.am   27  ALA27      -0.1980
     28  CA        38.5100   38.6430   15.2860 C.3    27  ALA27       0.1597
     29  C         38.9270   38.9490   16.7090 C.2    27  ALA27       0.2287
     30  O         38.1510   39.5270   17.4700 O.2    27  ALA27      -0.2864
     31  CB        38.3230   37.1490   15.1090 C.3    27  ALA27       0.0319
     32  N         38.5500   42.7310   17.2140 N.3    30  GLN30      -0.1245
     33  CA        37.1700   43.1690   17.4060 C.3    30  GLN30       0.1566
     34  C         36.6130   42.7830   18.7640 C.2    30  GLN30       0.2260
     35  O         35.7820   43.4960   19.3270 O.2    30  GLN30      -0.2867
     36  CB        36.2700   42.6210   16.2970 C.3    30  GLN30       0.0367
     37  CG        36.3020   43.4420   15.0260 C.3    30  GLN30       0.0905
     38  CD        35.9200   44.8910   15.2610 C.2    30  GLN30       0.2608
     39  OE1       36.7900   45.7510   15.4310 O.2    30  GLN30      -0.2717
     40  NE2       34.6160   45.1700   15.2880 N.am   30  GLN30      -0.0878
     41  N         29.2010   36.7250   20.9020 N.3    60  TRP60      -0.1227
     42  CA        30.2890   37.3440   20.1490 C.3    60  TRP60       0.1737
     43  C         30.2450   37.0860   18.6400 C.2    60  TRP60       0.2595
     44  O         30.1330   38.0240   17.8600 O.2    60  TRP60      -0.2718
     45  CB        31.6690   37.0240   20.7430 C.3    60  TRP60       0.0564
     46  CG        32.1420   35.5970   20.6470 C.ar   60  TRP60       0.0003
     47  CD1       31.8040   34.5680   21.4720 C.ar   60  TRP60       0.0946
     48  CD2       33.0710   35.0600   19.6960 C.ar   60  TRP60       0.0152
     49  NE1       32.4510   33.4160   21.0890 N.ar   60  TRP60      -0.2442
     50  CE2       33.2340   33.6890   19.9990 C.ar   60  TRP60       0.0810
     51  CE3       33.7700   35.5980   18.6040 C.ar   60  TRP60       0.0012
     52  CZ2       34.0750   32.8490   19.2530 C.ar   60  TRP60       0.0191
     53  CZ3       34.6100   34.7650   17.8690 C.ar   60  TRP60       0.0001
     54  CH2       34.7500   33.4040   18.1950 C.ar   60  TRP60       0.0015
     55  N         30.2900   35.8150   18.2440 N.am   61  ASN61      -0.1974
     56  CA        30.2950   35.4310   16.8350 C.3    61  ASN61       0.1688
     57  C         29.2100   36.0750   16.0110 C.2    61  ASN61       0.2292
     58  O         29.5060   36.7730   15.0500 O.2    61  ASN61      -0.2864
     59  CB        30.2010   33.9250   16.6810 C.3    61  ASN61       0.1181
     60  CG        31.5460   33.2740   16.6330 C.2    61  ASN61       0.2629
     61  OD1       32.4400   33.7150   15.9040 O.2    61  ASN61      -0.2716
     62  ND2       31.7090   32.2110   17.4130 N.am   61  ASN61      -0.0877
     63  N         29.6690   39.6780   15.9870 N.3    64  LEU64      -0.1231
     64  CA        30.8210   40.0760   15.1860 C.3    64  LEU64       0.1693
     65  C         30.5560   39.8710   13.7140 C.2    64  LEU64       0.2591
     66  O         30.9820   40.6730   12.8940 O.2    64  LEU64      -0.2718
     67  CB        32.0830   39.3000   15.5890 C.3    64  LEU64       0.0284
     68  CG        32.7940   39.6580   16.9010 C.3    64  LEU64       0.0019
     69  CD1       34.1230   38.9070   17.0090 C.3    64  LEU64       0.0001
     70  CD2       33.0200   41.1520   17.0570 C.3    64  LEU64       0.0001
     71  N         29.8600   38.7790   13.4010 N.am   65  ILE65      -0.1980
     72  CA        29.5490   38.3970   12.0340 C.3    65  ILE65       0.1595
     73  C         28.6290   39.4390   11.4340 C.2    65  ILE65       0.2287
     74  O         28.8630   39.9000   10.3200 O.2    65  ILE65      -0.2864
     75  CB        28.9640   36.9550   11.9510 C.3    65  ILE65       0.0276
     76  CG1       30.0880   35.9330   12.1250 C.3    65  ILE65       0.0022
     77  CG2       28.2710   36.7020   10.6120 C.3    65  ILE65       0.0022
     78  CD1       29.6330   34.5590   12.5370 C.3    65  ILE65       0.0001
     79  N         30.7260   42.8080   10.5020 N.3    68  PHE68      -0.1241
     80  CA        31.4930   42.7710    9.2600 C.3    68  PHE68       0.1605
     81  C         30.5930   42.6370    8.0290 C.2    68  PHE68       0.2264
     82  O         30.8230   43.2810    7.0120 O.2    68  PHE68      -0.2867
     83  CB        32.6960   41.7950    9.3140 C.3    68  PHE68       0.0534
     84  CG        32.3550   40.3400    9.1120 C.ar   68  PHE68      -0.0203
     85  CD1       32.1500   39.8190    7.8320 C.ar   68  PHE68      -0.0042
     86  CD2       32.3140   39.4690   10.1940 C.ar   68  PHE68      -0.0042
     87  CE1       31.8600   38.4630    7.6420 C.ar   68  PHE68      -0.0003
     88  CE2       32.0270   38.1070   10.0080 C.ar   68  PHE68      -0.0003
     89  CZ        31.7970   37.6090    8.7310 C.ar   68  PHE68      -0.0000
     90  N         29.4070   46.0640    7.3730 N.3    71  ARG71      -0.1245
     91  CA        30.5100   46.8910    6.9230 C.3    71  ARG71       0.1563
     92  C         30.8310   46.5490    5.4680 C.2    71  ARG71       0.2260
     93  O         31.4210   47.3610    4.7530 O.2    71  ARG71      -0.2867
     94  CB        31.7280   46.6630    7.8200 C.3    71  ARG71       0.0307
     95  CG        32.9130   47.5830    7.5700 C.3    71  ARG71       0.0489
     96  CD        34.1460   47.0480    8.2730 C.3    71  ARG71       0.2205
     97  NE        33.8530   46.7690    9.6730 N.pl3  71  ARG71      -0.0865
     98  CZ        34.2420   45.6860   10.3360 C.cat  71  ARG71       0.5346
     99  NH1       34.9570   44.7430    9.7370 N.pl3  71  ARG71       0.1354
    100  NH2       33.8970   45.5390   11.6080 N.pl3  71  ARG71       0.1354
    101  N         34.6780   40.7040    1.8020 N.3    79  ILE79      -0.1245
    102  CA        34.3000   41.2850    3.0830 C.3    79  ILE79       0.1561
    103  C         35.3870   42.2460    3.5220 C.2    79  ILE79       0.2260
    104  O         36.5600   42.0570    3.1830 O.2    79  ILE79      -0.2867
    105  CB        34.0530   40.2100    4.1880 C.3    79  ILE79       0.0252
    106  CG1       35.3100   39.3550    4.4100 C.3    79  ILE79       0.0019
    107  CG2       32.8130   39.3610    3.8570 C.3    79  ILE79       0.0019
    108  CD1       35.3630   38.6430    5.7450 C.3    79  ILE79       0.0001
    109  N         37.3960   43.8530    6.6860 N.3    81  LEU81      -0.1231
    110  CA        37.7370   43.6440    8.0880 C.3    81  LEU81       0.1693
    111  C         38.0870   44.9670    8.7690 C.2    81  LEU81       0.2591
    112  O         38.3870   45.9610    8.1020 O.2    81  LEU81      -0.2718
    113  CB        38.8790   42.6230    8.2340 C.3    81  LEU81       0.0284
    114  CG        38.7550   41.2330    7.5780 C.3    81  LEU81       0.0019
    115  CD1       39.9320   40.3590    7.9750 C.3    81  LEU81       0.0001
    116  CD2       37.4410   40.5270    7.9170 C.3    81  LEU81       0.0001
    117  N         38.0270   44.9730   10.0990 N.am   82  ALA82      -0.1980
    118  CA        38.2860   46.1750   10.8970 C.3    82  ALA82       0.1597
    119  C         39.7700   46.5370   10.9360 C.2    82  ALA82       0.2287
    120  O         40.1270   47.6840   11.2310 O.2    82  ALA82      -0.2864
    121  CB        37.7330   46.0110   12.3110 C.3    82  ALA82       0.0319
    122  N         37.9120   28.1080    2.4590 N.3    97  VAL97      -0.1245
    123  CA        36.7520   28.5130    3.2700 C.3    97  VAL97       0.1561
    124  C         35.6420   29.1920    2.4450 C.2    97  VAL97       0.2260
    125  O         34.8520   29.9860    2.9640 O.2    97  VAL97      -0.2867
    126  CB        37.1530   29.3750    4.5170 C.3    97  VAL97       0.0252
    127  CG1       37.9840   28.5510    5.5030 C.3    97  VAL97       0.0019
    128  CG2       37.8820   30.6590    4.1130 C.3    97  VAL97       0.0019
    129  N         31.3920   28.6910    3.5870 N.3   100  ILE100     -0.1231
    130  CA        30.8330   29.6180    4.5690 C.3   100  ILE100      0.1692
    131  C         30.8430   31.0710    4.0910 C.2   100  ILE100      0.2592
    132  O         29.8380   31.7740    4.2390 O.2   100  ILE100     -0.2718
    133  CB        31.5000   29.4870    5.9740 C.3   100  ILE100      0.0266
    134  CG1       30.7840   30.3780    6.9990 C.3   100  ILE100      0.0019
    135  CG2       32.9980   29.8170    5.9250 C.3   100  ILE100      0.0020
    136  CD1       29.3120   30.0570    7.2010 C.3   100  ILE100      0.0001
    137  N         31.9750   31.5050    3.5280 N.am  101  PHE101     -0.1976
    138  CA        32.1460   32.8540    2.9820 C.3   101  PHE101      0.1639
    139  C         30.9860   33.2360    2.0610 C.2   101  PHE101      0.2290
    140  O         30.3990   34.3100    2.2150 O.2   101  PHE101     -0.2864
    141  CB        33.4720   32.9370    2.2190 C.3   101  PHE101      0.0560
    142  CG        33.9840   34.3390    2.0110 C.ar  101  PHE101     -0.0200
    143  CD1       34.7640   34.9580    2.9840 C.ar  101  PHE101     -0.0042
    144  CD2       33.7140   35.0260    0.8370 C.ar  101  PHE101     -0.0042
    145  CE1       35.2590   36.2470    2.7920 C.ar  101  PHE101     -0.0003
    146  CE2       34.2030   36.3130    0.6360 C.ar  101  PHE101     -0.0003
    147  CZ        34.9800   36.9260    1.6150 C.ar  101  PHE101     -0.0000
    148  N         27.7480   33.8790    4.0670 N.3   104  VAL104     -0.1245
    149  CA        27.7960   35.2350    4.6110 C.3   104  VAL104      0.1561
    150  C         27.3550   36.2330    3.5340 C.2   104  VAL104      0.2260
    151  O         26.4600   37.0490    3.7670 O.2   104  VAL104     -0.2867
    152  CB        29.2080   35.5930    5.1510 C.3   104  VAL104      0.0252
    153  CG1       29.3470   37.0840    5.3750 C.3   104  VAL104      0.0019
    154  CG2       29.5100   34.8380    6.4470 C.3   104  VAL104      0.0019
    155  N         30.4830   28.9690   11.2260 N.3   187  CYS187     -0.1235
    156  CA        31.6650   29.8050   11.3230 C.3   187  CYS187      0.1677
    157  C         32.5130   29.4530   12.5500 C.2   187  CYS187      0.2270
    158  O         33.7460   29.4540   12.4770 O.2   187  CYS187     -0.2867
    159  CB        31.2170   31.2680   11.3540 C.3   187  CYS187      0.0956
    160  SG        32.5140   32.4950   11.5630 S.3   187  CYS187     -0.0801
    161  N         34.6440   26.1470   12.1450 N.3   190  HIS190     -0.1226
    162  CA        35.9000   26.5060   11.4830 C.3   190  HIS190      0.1752
    163  C         36.9750   26.9400   12.4580 C.2   190  HIS190      0.2595
    164  O         38.1040   26.4630   12.3790 O.2   190  HIS190     -0.2718
    165  CB        35.6860   27.6150   10.4570 C.3   190  HIS190      0.0759
    166  CG        35.2490   27.1170    9.1220 C.ar  190  HIS190      0.0818
    167  ND1       33.9660   27.2870    8.6510 N.ar  190  HIS190     -0.2268
    168  CD2       35.9210   26.4470    8.1590 C.ar  190  HIS190      0.1154
    169  CE1       33.8650   26.7400    7.4540 C.ar  190  HIS190      0.1986
    170  NE2       35.0380   26.2260    7.1320 N.ar  190  HIS190     -0.2212
    171  N         36.6190   27.8410   13.3740 N.am  191  LEU191     -0.1980
    172  CA        37.5560   28.3060   14.3980 C.3   191  LEU191      0.1596
    173  C         38.1280   27.1400   15.1840 C.2   191  LEU191      0.2287
    174  O         39.3470   27.0120   15.3030 O.2   191  LEU191     -0.2864
    175  CB        36.8910   29.3060   15.3380 C.3   191  LEU191      0.0297
    176  CG        36.8420   30.7430   14.8360 C.3   191  LEU191      0.0022
    177  CD1       35.5940   31.4440   15.3740 C.3   191  LEU191      0.0001
    178  CD2       38.1230   31.4980   15.2170 C.3   191  LEU191      0.0001
    179  N         40.5420   25.3510   13.1760 N.3   194  PHE194     -0.1241
    180  CA        41.7720   26.1330   12.9700 C.3   194  PHE194      0.1605
    181  C         42.6930   25.9720   14.1800 C.2   194  PHE194      0.2264
    182  O         43.9240   26.0380   14.0620 O.2   194  PHE194     -0.2867
    183  CB        41.4920   27.6270   12.7690 C.3   194  PHE194      0.0534
    184  CG        40.6690   27.9560   11.5550 C.ar  194  PHE194     -0.0203
    185  CD1       40.8610   27.2910   10.3460 C.ar  194  PHE194     -0.0042
    186  CD2       39.7180   28.9740   11.6130 C.ar  194  PHE194     -0.0042
    187  CE1       40.0920   27.6090    9.2260 C.ar  194  PHE194     -0.0003
    188  CE2       38.9450   29.2980   10.5020 C.ar  194  PHE194     -0.0003
    189  CZ        39.1330   28.6150    9.3040 C.ar  194  PHE194     -0.0000
@<TRIPOS>BOND
     1   146   144   ar
     2   146   147   ar
     3   144   142   ar
     4   147   145   ar
     5   101   102    1
     6   142   141    1
     7   142   143   ar
     8   139   140    2
     9   139   138    1
    10   141   138    1
    11   124   125    2
    12   124   123    1
    13   122   123    1
    14   145   143   ar
    15   138   137    1
    16   102   103    1
    17   102   105    1
    18   104   103    2
    19   123   126    1
    20   137   131   am
    21   150   151    2
    22   150   149    1
    23   129   130    1
    24   107   105    1
    25   148   149    1
    26   131   132    2
    27   131   130    1
    28   128   126    1
    29   105   106    1
    30   106   108    1
    31   126   127    1
    32   130   133    1
    33   149   152    1
    34    93    92    2
    35   152   153    1
    36   152   154    1
    37    92    91    1
    38   135   133    1
    39   133   134    1
    40     1     2    1
    41    15    13    1
    42     7     5    1
    43   109   110    1
    44    91    90    1
    45    91    94    1
    46   134   136    1
    47    82    81    2
    48   170   169   ar
    49   170   168   ar
    50    13    12    1
    51   169   167   ar
    52     5     2    1
    53     5     6    1
    54     2     3    1
    55    95    94    1
    56    95    96    1
    57   114   116    1
    58   114   115    1
    59   114   113    1
    60    87    85   ar
    61    87    89   ar
    62    85    84   ar
    63    81    80    1
    64   110   113    1
    65   110   111    1
    66   112   111    2
    67   168   166   ar
    68    96    97    1
    69   167   166   ar
    70    89    88   ar
    71     3     4    2
    72   111   117   am
    73    12    14    1
    74    12     9    1
    75    84    83    1
    76    84    86   ar
    77     8     9    1
    78   166   165    1
    79   187   189   ar
    80   187   185   ar
    81    80    83    1
    82    80    79    1
    83   189   188   ar
    84     9    10    1
    85    97    98    2
    86    99    98    1
    87    88    86   ar
    88   117   118    1
    89    74    73    2
    90    98   100    1
    91   185   184   ar
    92   165   162    1
    93   188   186   ar
    94    77    75    1
    95   118   119    1
    96   118   121    1
    97   119   120    2
    98    10    16   am
    99    10    11    2
   100   155   156    1
   101   156   159    1
   102   156   157    1
   103   159   160    1
   104    73    72    1
   105   162   161    1
   106   162   163    1
   107    16    17    1
   108   184   186   ar
   109   184   183    1
   110    26    23    1
   111    75    72    1
   112    75    76    1
   113    72    71    1
   114    76    78    1
   115   164   163    2
   116   163   171   am
   117   158   157    2
   118    21    20    1
   119   183   180    1
   120    66    65    2
   121    22    23    1
   122    17    20    1
   123    17    18    1
   124   180   179    1
   125   180   181    1
   126    23    24    1
   127   171   172    1
   128    71    65   am
   129    18    19    2
   130    65    64    1
   131   182   181    2
   132    24    27   am
   133    24    25    2
   134    27    28    1
   135   172   173    1
   136   172   175    1
   137   176   178    1
   138   176   175    1
   139   176   177    1
   140    37    38    1
   141    37    36    1
   142    58    57    2
   143    31    28    1
   144   173   174    2
   145    64    67    1
   146    64    63    1
   147    38    40   am
   148    38    39    2
   149    28    29    1
   150    67    68    1
   151    61    60    2
   152    57    56    1
   153    36    33    1
   154    60    59    1
   155    60    62   am
   156    59    56    1
   157    29    30    2
   158    56    55    1
   159    68    69    1
   160    68    70    1
   161    32    33    1
   162    33    34    1
   163    44    43    2
   164    53    54   ar
   165    53    51   ar
   166    54    52   ar
   167    55    43   am
   168    51    48   ar
   169    43    42    1
   170    34    35    2
   171    52    50   ar
   172    48    50   ar
   173    48    46   ar
   174    50    49   ar
   175    42    45    1
   176    42    41    1
   177    46    45    1
   178    46    47   ar
   179    49    47   ar
