@<TRIPOS>MOLECULE
tmp/3r5nA00.pdb
 154 142 0 0 0
SMALL
GASTEIGER

@<TRIPOS>ATOM
      1  N         61.8590   13.6970    3.3860 N.3    41  ILE41      -0.1245
      2  CA        62.9950   14.4910    2.9350 C.3    41  ILE41       0.1561
      3  C         63.8980   14.7650    4.1350 C.2    41  ILE41       0.2260
      4  O         63.5440   15.5340    5.0350 O.2    41  ILE41      -0.2867
      5  CB        62.5320   15.8130    2.2610 C.3    41  ILE41       0.0252
      6  CG1       61.7780   15.5090    0.9570 C.3    41  ILE41       0.0019
      7  CG2       63.7160   16.7450    2.0070 C.3    41  ILE41       0.0019
      8  CD1       60.9620   16.6740    0.4120 C.3    41  ILE41       0.0001
      9  N         65.5910   15.1860   -1.0050 N.3    47  LEU47      -0.1245
     10  CA        64.9250   16.4030   -1.4730 C.3    47  LEU47       0.1561
     11  C         64.6630   16.3460   -2.9790 C.2    47  LEU47       0.2260
     12  O         63.5570   16.6420   -3.4350 O.2    47  LEU47      -0.2867
     13  CB        65.7490   17.6450   -1.1260 C.3    47  LEU47       0.0270
     14  CG        65.1960   18.9770   -1.6530 C.3    47  LEU47       0.0019
     15  CD1       64.1290   19.5500   -0.7300 C.3    47  LEU47       0.0001
     16  CD2       66.3150   19.9660   -1.8570 C.3    47  LEU47       0.0001
     17  N         61.0790   15.9880   -4.8440 N.3    51  GLU51      -0.1245
     18  CA        60.6070   16.9660   -5.8280 C.3    51  GLU51       0.1567
     19  C         60.0770   16.3170   -7.1060 C.2    51  GLU51       0.2260
     20  O         59.1780   16.8590   -7.7500 O.2    51  GLU51      -0.2867
     21  CB        61.7080   17.9760   -6.1550 C.3    51  GLU51       0.0388
     22  CG        61.9110   19.0250   -5.0720 C.3    51  GLU51       0.1160
     23  CD        63.1320   19.8940   -5.3030 C.2    51  GLU51       0.3649
     24  OE1       64.2160   19.3480   -5.6030 O.co2  51  GLU51      -0.2457
     25  OE2       63.0090   21.1310   -5.1690 O.co2  51  GLU51      -0.2457
     26  N         53.8290   18.5910   -6.3440 N.3    56  PHE56      -0.1241
     27  CA        53.7620   19.9440   -5.8010 C.3    56  PHE56       0.1605
     28  C         52.8650   20.8260   -6.6660 C.2    56  PHE56       0.2264
     29  O         52.5530   21.9620   -6.3030 O.2    56  PHE56      -0.2867
     30  CB        55.1620   20.5540   -5.7020 C.3    56  PHE56       0.0534
     31  CG        56.0130   19.9590   -4.6140 C.ar   56  PHE56      -0.0203
     32  CD1       56.9590   18.9820   -4.9090 C.ar   56  PHE56      -0.0042
     33  CD2       55.8760   20.3820   -3.2950 C.ar   56  PHE56      -0.0042
     34  CE1       57.7530   18.4330   -3.9070 C.ar   56  PHE56      -0.0003
     35  CE2       56.6640   19.8360   -2.2850 C.ar   56  PHE56      -0.0003
     36  CZ        57.6050   18.8600   -2.5930 C.ar   56  PHE56      -0.0000
     37  N         65.1980   27.2740   -3.5170 N.3    63  ARG63      -0.1231
     38  CA        64.0730   26.4670   -4.0020 C.3    63  ARG63       0.1694
     39  C         63.0740   26.1630   -2.8870 C.2    63  ARG63       0.2591
     40  O         61.8610   26.2150   -3.1030 O.2    63  ARG63      -0.2718
     41  CB        64.5500   25.1520   -4.6360 C.3    63  ARG63       0.0321
     42  CG        65.4170   25.3070   -5.8820 C.3    63  ARG63       0.0489
     43  CD        65.2610   24.1430   -6.8640 C.3    63  ARG63       0.2205
     44  NE        65.3610   22.8170   -6.2460 N.pl3  63  ARG63      -0.0865
     45  CZ        66.4930   22.1330   -6.0840 C.cat  63  ARG63       0.5346
     46  NH1       67.6550   22.6380   -6.4770 N.pl3  63  ARG63       0.1354
     47  NH2       66.4630   20.9340   -5.5200 N.pl3  63  ARG63       0.1354
     48  N         63.5930   25.8400   -1.7040 N.am   64  ILE64      -0.1980
     49  CA        62.7610   25.5540   -0.5360 C.3    64  ILE64       0.1595
     50  C         62.0950   26.8330   -0.0260 C.2    64  ILE64       0.2287
     51  O         60.9160   26.8180    0.3310 O.2    64  ILE64      -0.2864
     52  CB        63.5680   24.8500    0.5900 C.3    64  ILE64       0.0276
     53  CG1       64.0900   23.4920    0.0990 C.3    64  ILE64       0.0022
     54  CG2       62.7150   24.6570    1.8420 C.3    64  ILE64       0.0022
     55  CD1       65.1300   22.8440    1.0120 C.3    64  ILE64       0.0001
     56  N         59.1400   27.7480   -2.4710 N.3    67  GLY67      -0.1210
     57  CA        58.0030   26.8480   -2.2760 C.3    67  GLY67       0.1956
     58  C         57.2280   27.1570   -1.0090 C.2    67  GLY67       0.2612
     59  O         55.9960   27.1270   -1.0030 O.2    67  GLY67      -0.2717
     60  N         57.9580   27.4530    0.0640 N.am   68  CYS68      -0.1970
     61  CA        57.3640   27.8440    1.3390 C.3    68  CYS68       0.1712
     62  C         56.6980   29.2190    1.2580 C.2    68  CYS68       0.2296
     63  O         55.6510   29.4500    1.8690 O.2    68  CYS68      -0.2864
     64  CB        58.4260   27.8360    2.4380 C.3    68  CYS68       0.0983
     65  SG        58.9620   26.1930    2.9530 S.3    68  CYS68      -0.0798
     66  N         53.4700   28.6740   -0.5550 N.3    71  ARG71      -0.1245
     67  CA        52.5190   28.0010    0.3260 C.3    71  ARG71       0.1563
     68  C         51.9130   28.9880    1.3270 C.2    71  ARG71       0.2260
     69  O         50.7290   28.8930    1.6550 O.2    71  ARG71      -0.2867
     70  CB        53.1600   26.8050    1.0420 C.3    71  ARG71       0.0307
     71  CG        52.1910   25.9720    1.8920 C.3    71  ARG71       0.0489
     72  CD        51.0130   25.4410    1.0730 C.3    71  ARG71       0.2205
     73  NE        49.9700   24.8540    1.9150 N.pl3  71  ARG71      -0.0865
     74  CZ        48.8660   25.4840    2.3120 C.cat  71  ARG71       0.5346
     75  NH1       48.6360   26.7410    1.9530 N.pl3  71  ARG71       0.1354
     76  NH2       47.9840   24.8540    3.0750 N.pl3  71  ARG71       0.1354
     77  N         50.4690   25.6460   11.4710 N.3   113  LEU113     -0.1245
     78  CA        51.7090   24.9450   11.1360 C.3   113  LEU113      0.1561
     79  C         52.0320   23.8840   12.1900 C.2   113  LEU113      0.2260
     80  O         52.4820   22.7840   11.8580 O.2   113  LEU113     -0.2867
     81  CB        52.8710   25.9400   11.0450 C.3   113  LEU113      0.0270
     82  CG        53.9480   25.8490    9.9530 C.3   113  LEU113      0.0019
     83  CD1       55.2210   26.5100   10.4540 C.3   113  LEU113      0.0001
     84  CD2       54.2440   24.4330    9.4860 C.3   113  LEU113      0.0001
     85  N         50.9290   20.3480   11.7390 N.3   116  LEU116     -0.1245
     86  CA        51.6660   19.5780   10.7330 C.3   116  LEU116      0.1561
     87  C         53.0130   19.0730   11.2470 C.2   116  LEU116      0.2260
     88  O         53.6890   18.2880   10.5710 O.2   116  LEU116     -0.2867
     89  CB        51.8960   20.4340    9.4800 C.3   116  LEU116      0.0270
     90  CG        50.6860   21.0690    8.7850 C.3   116  LEU116      0.0019
     91  CD1       51.1270   21.8850    7.5720 C.3   116  LEU116      0.0001
     92  CD2       49.6770   20.0120    8.3850 C.3   116  LEU116      0.0001
     93  N         58.1330   18.2490    9.6310 N.3   122  VAL122     -0.1231
     94  CA        56.8780   18.8760    9.2340 C.3   122  VAL122      0.1692
     95  C         56.2870   18.2460    7.9630 C.2   122  VAL122      0.2592
     96  O         57.0050   17.9810    6.9990 O.2   122  VAL122     -0.2718
     97  CB        57.0460   20.4260    9.0820 C.3   122  VAL122      0.0266
     98  CG1       58.1460   20.7860    8.0580 C.3   122  VAL122      0.0020
     99  CG2       55.7220   21.1000    8.7300 C.3   122  VAL122      0.0020
    100  N         54.9790   17.9980    7.9890 N.am  123  LEU123     -0.1966
    101  CA        54.2490   17.5260    6.8200 C.3   123  LEU123      0.1728
    102  C         54.1400   18.6290    5.7700 C.2   123  LEU123      0.2616
    103  O         53.7430   19.7560    6.0810 O.2   123  LEU123     -0.2715
    104  CB        52.8490   17.0320    7.2110 C.3   123  LEU123      0.0311
    105  CG        52.7150   15.7100    7.9770 C.3   123  LEU123      0.0022
    106  CD1       51.2520   15.4230    8.2790 C.3   123  LEU123      0.0001
    107  CD2       53.3260   14.5510    7.1960 C.3   123  LEU123      0.0001
    108  N         54.5070   18.2970    4.5330 N.am  124  ILE124     -0.1963
    109  CA        54.4010   19.2290    3.4040 C.3   124  ILE124      0.1727
    110  C         53.5380   18.6550    2.2720 C.2   124  ILE124      0.2617
    111  O         53.2580   17.4530    2.2410 O.2   124  ILE124     -0.2715
    112  CB        55.7910   19.6650    2.8500 C.3   124  ILE124      0.0290
    113  CG1       56.5740   18.4570    2.3090 C.3   124  ILE124      0.0022
    114  CG2       56.5780   20.4380    3.9140 C.3   124  ILE124      0.0023
    115  CD1       57.7980   18.8160    1.4760 C.3   124  ILE124      0.0001
    116  N         53.1290   19.5310    1.3540 N.am  125  SER125     -0.1936
    117  CA        52.2880   19.1730    0.2060 C.3   125  SER125      0.2055
    118  C         51.0520   18.3690    0.6170 C.2   125  SER125      0.2642
    119  O         50.8400   17.2510    0.1450 O.2   125  SER125     -0.2714
    120  CB        53.1120   18.4330   -0.8570 C.3   125  SER125      0.2130
    121  OG        52.3090   18.0870   -1.9730 O.3   125  SER125     -0.2179
    122  N         50.2520   18.9540    1.5090 N.am  126  GLU126     -0.1976
    123  CA        49.0460   18.3220    2.0620 C.3   126  GLU126      0.1602
    124  C         49.2660   16.8840    2.5400 C.2   126  GLU126      0.2287
    125  O         48.4710   15.9910    2.2400 O.2   126  GLU126     -0.2864
    126  CB        47.8770   18.4000    1.0660 C.3   126  GLU126      0.0415
    127  CG        47.3460   19.7610    0.8130 C.3   126  GLU126      0.1163
    128  CD        46.4010   19.8590   -0.3690 C.2   126  GLU126      0.3649
    129  OE1       46.2150   18.8680   -1.1180 O.co2 126  GLU126     -0.2457
    130  OE2       45.8960   20.9200   -0.6590 O.co2 126  GLU126     -0.2457
    131  N         59.3000   16.8400    5.7530 N.3   131  MET131     -0.1245
    132  CA        60.6370   17.4260    5.7800 C.3   131  MET131      0.1570
    133  C         61.1660   17.4930    7.2090 C.2   131  MET131      0.2261
    134  O         60.4970   18.0200    8.1030 O.2   131  MET131     -0.2867
    135  CB        60.6360   18.8110    5.1290 C.3   131  MET131      0.0387
    136  CG        62.0270   19.3730    4.8830 C.3   131  MET131      0.0595
    137  SD        62.0510   20.8170    3.8080 S.3   131  MET131     -0.1393
    138  CE        61.6590   20.0900    2.2180 C.3   131  MET131      0.0692
    139  N         66.2090   21.0840    7.5450 N.3   136  LEU136     -0.1245
    140  CA        65.9080   22.5110    7.4430 C.3   136  LEU136      0.1561
    141  C         66.9550   23.3780    8.1470 C.2   136  LEU136      0.2260
    142  O         67.3020   24.4550    7.6600 O.2   136  LEU136     -0.2867
    143  CB        64.5030   22.8020    7.9760 C.3   136  LEU136      0.0270
    144  CG        63.3570   22.3910    7.0500 C.3   136  LEU136      0.0019
    145  CD1       62.0850   22.1240    7.8400 C.3   136  LEU136      0.0001
    146  CD2       63.1180   23.4590    5.9820 C.3   136  LEU136      0.0001
    147  N         62.8460   27.9990   10.2550 N.3   147  MET147     -0.1245
    148  CA        61.8560   27.0590   10.7780 C.3   147  MET147      0.1570
    149  C         62.0300   26.6970   12.2490 C.2   147  MET147      0.2261
    150  O         61.0600   26.3450   12.9180 O.2   147  MET147     -0.2867
    151  CB        61.8230   25.7870    9.9220 C.3   147  MET147      0.0387
    152  CG        61.3210   26.0050    8.4990 C.3   147  MET147      0.0595
    153  SD        59.7690   26.9260    8.4290 S.3   147  MET147     -0.1393
    154  CE        58.6250   25.7350    9.1100 C.3   147  MET147      0.0692
@<TRIPOS>BOND
     1    20    19    2
     2    19    18    1
     3    43    44    1
     4    43    42    1
     5    28    29    2
     6    28    27    1
     7    46    45    1
     8    26    27    1
     9    44    45    2
    10    21    18    1
    11    21    22    1
    12    45    47    1
    13    42    41    1
    14    18    17    1
    15    27    30    1
    16    30    31    1
    17    24    23   ar
    18    23    25   ar
    19    23    22    1
    20    32    31   ar
    21    32    34   ar
    22    41    38    1
    23    31    33   ar
    24    38    37    1
    25    38    39    1
    26    34    36   ar
    27    12    11    2
    28    33    35   ar
    29    40    39    2
    30    11    10    1
    31    39    48   am
    32    36    35   ar
    33    56    57    1
    34    57    58    1
    35   121   120    1
    36    16    14    1
    37    48    49    1
    38    14    13    1
    39    14    15    1
    40    10    13    1
    41    10     9    1
    42   129   128   ar
    43    58    59    2
    44    58    60   am
    45   120   117    1
    46   130   128   ar
    47    66    67    1
    48    49    50    1
    49    49    52    1
    50   128   127    1
    51    50    51    2
    52    60    61    1
    53    53    52    1
    54    53    55    1
    55   119   118    2
    56   117   118    1
    57   117   116    1
    58    67    70    1
    59    67    68    1
    60     8     6    1
    61    52    54    1
    62   118   122   am
    63   127   126    1
    64     6     5    1
    65    70    71    1
    66   126   123    1
    67    72    71    1
    68    72    73    1
    69    62    61    1
    70    62    63    2
    71    68    69    2
    72    61    64    1
    73   116   110   am
    74   115   113    1
    75   122   123    1
    76    73    74    2
    77    75    74    1
    78     7     5    1
    79   123   124    1
    80   138   137    1
    81   125   124    2
    82   111   110    2
    83     5     2    1
    84   110   109    1
    85   113   112    1
    86    74    76    1
    87    64    65    1
    88   112   109    1
    89   112   114    1
    90     2     1    1
    91     2     3    1
    92   109   108    1
    93   137   136    1
    94     3     4    2
    95   108   102   am
    96   136   135    1
    97   135   132    1
    98   131   132    1
    99   102   103    2
   100   102   101    1
   101   132   133    1
   102   146   144    1
   103   101   104    1
   104   101   100    1
   105    96    95    2
   106   144   145    1
   107   144   143    1
   108   107   105    1
   109   133   134    2
   110   104   105    1
   111   140   139    1
   112   140   143    1
   113   140   141    1
   114    91    90    1
   115   142   141    2
   116    95   100   am
   117    95    94    1
   118   105   106    1
   119    98    97    1
   120    92    90    1
   121   153   152    1
   122   153   154    1
   123   152   151    1
   124    99    97    1
   125    90    89    1
   126    97    94    1
   127    94    93    1
   128    89    86    1
   129    84    82    1
   130   151   148    1
   131    82    83    1
   132    82    81    1
   133   147   148    1
   134    88    87    2
   135    86    87    1
   136    86    85    1
   137   148   149    1
   138    81    78    1
   139    78    77    1
   140    78    79    1
   141    80    79    2
   142   149   150    2
