@<TRIPOS>MOLECULE
tmp/3r5nA01.pdb
 190 179 0 0 0
SMALL
GASTEIGER

@<TRIPOS>ATOM
      1  N         68.4850   25.8940   -1.0720 N.3    61  ALA61      -0.1245
      2  CA        67.9510   26.7720   -0.0280 C.3    61  ALA61       0.1562
      3  C         66.9330   27.7700   -0.5810 C.2    61  ALA61       0.2260
      4  O         65.9370   28.0770    0.0800 O.2    61  ALA61      -0.2867
      5  CB        69.0780   27.4980    0.6900 C.3    61  ALA61       0.0290
      6  N         63.5930   25.8400   -1.7040 N.3    64  ILE64      -0.1231
      7  CA        62.7610   25.5540   -0.5360 C.3    64  ILE64       0.1692
      8  C         62.0950   26.8330   -0.0260 C.2    64  ILE64       0.2592
      9  O         60.9160   26.8180    0.3310 O.2    64  ILE64      -0.2718
     10  CB        63.5680   24.8500    0.5900 C.3    64  ILE64       0.0266
     11  CG1       64.0900   23.4920    0.0990 C.3    64  ILE64       0.0019
     12  CG2       62.7150   24.6570    1.8420 C.3    64  ILE64       0.0020
     13  CD1       65.1300   22.8440    1.0120 C.3    64  ILE64       0.0001
     14  N         62.8480   27.9340   -0.0170 N.am   65  PHE65      -0.1976
     15  CA        62.3200   29.2450    0.3800 C.3    65  PHE65       0.1639
     16  C         61.1470   29.6750   -0.5040 C.2    65  PHE65       0.2290
     17  O         60.1360   30.1690    0.0000 O.2    65  PHE65      -0.2864
     18  CB        63.4240   30.3160    0.3570 C.3    65  PHE65       0.0560
     19  CG        62.9340   31.7040    0.6890 C.ar   65  PHE65      -0.0200
     20  CD1       62.8590   32.1310    2.0110 C.ar   65  PHE65      -0.0042
     21  CD2       62.5460   32.5820   -0.3210 C.ar   65  PHE65      -0.0042
     22  CE1       62.3990   33.4110    2.3260 C.ar   65  PHE65      -0.0003
     23  CE2       62.0850   33.8640   -0.0180 C.ar   65  PHE65      -0.0003
     24  CZ        62.0130   34.2780    1.3080 C.ar   65  PHE65      -0.0000
     25  N         57.9580   27.4530    0.0640 N.3    68  CYS68      -0.1221
     26  CA        57.3640   27.8440    1.3390 C.3    68  CYS68       0.1808
     27  C         56.6980   29.2190    1.2580 C.2    68  CYS68       0.2601
     28  O         55.6510   29.4500    1.8690 O.2    68  CYS68      -0.2717
     29  CB        58.4260   27.8360    2.4380 C.3    68  CYS68       0.0970
     30  SG        58.9620   26.1930    2.9530 S.3    68  CYS68      -0.0800
     31  N         57.3150   30.1260    0.5040 N.am   69  GLN69      -0.1979
     32  CA        56.7600   31.4550    0.2720 C.3    69  GLN69       0.1601
     33  C         55.4100   31.3630   -0.4400 C.2    69  GLN69       0.2287
     34  O         54.4450   32.0230   -0.0450 O.2    69  GLN69      -0.2864
     35  CB        57.7380   32.2950   -0.5480 C.3    69  GLN69       0.0394
     36  CG        57.2900   33.7190   -0.7930 C.3    69  GLN69       0.0908
     37  CD        58.3390   34.5320   -1.5100 C.2    69  GLN69       0.2608
     38  OE1       58.6610   34.2720   -2.6740 O.2    69  GLN69      -0.2717
     39  NE2       58.8820   35.5260   -0.8220 N.am   69  GLN69      -0.0878
     40  N         53.4700   28.6740   -0.5550 N.3    71  ARG71      -0.1231
     41  CA        52.5190   28.0010    0.3260 C.3    71  ARG71       0.1694
     42  C         51.9130   28.9880    1.3270 C.2    71  ARG71       0.2592
     43  O         50.7290   28.8930    1.6550 O.2    71  ARG71      -0.2718
     44  CB        53.1600   26.8050    1.0420 C.3    71  ARG71       0.0321
     45  CG        52.1910   25.9720    1.8920 C.3    71  ARG71       0.0489
     46  CD        51.0130   25.4410    1.0730 C.3    71  ARG71       0.2205
     47  NE        49.9700   24.8540    1.9150 N.pl3  71  ARG71      -0.0865
     48  CZ        48.8660   25.4840    2.3120 C.cat  71  ARG71       0.5346
     49  NH1       48.6360   26.7410    1.9530 N.pl3  71  ARG71       0.1354
     50  NH2       47.9840   24.8540    3.0750 N.pl3  71  ARG71       0.1354
     51  N         52.7250   29.9370    1.7910 N.am   72  SER72      -0.1952
     52  CA        52.2560   30.9940    2.6900 C.3    72  SER72       0.1924
     53  C         51.1790   31.8680    2.0440 C.2    72  SER72       0.2314
     54  O         50.2030   32.2310    2.6990 O.2    72  SER72      -0.2863
     55  CB        53.4190   31.8590    3.1800 C.3    72  SER72       0.2116
     56  OG        54.1760   31.1690    4.1600 O.3    72  SER72      -0.2180
     57  N         48.0800   29.9970    2.0020 N.3    75  ALA75      -0.1245
     58  CA        47.5800   29.9640    3.3770 C.3    75  ALA75       0.1562
     59  C         46.7650   31.2050    3.7210 C.2    75  ALA75       0.2260
     60  O         45.7260   31.1020    4.3700 O.2    75  ALA75      -0.2867
     61  CB        48.7280   29.7880    4.3630 C.3    75  ALA75       0.0290
     62  N         49.0090   31.3090   10.5640 N.3   109  ILE109     -0.1231
     63  CA        49.8290   30.3580    9.7990 C.3   109  ILE109      0.1692
     64  C         50.7000   29.5120   10.7310 C.2   109  ILE109      0.2592
     65  O         50.7320   28.2880   10.6140 O.2   109  ILE109     -0.2718
     66  CB        50.7010   31.0640    8.7160 C.3   109  ILE109      0.0266
     67  CG1       49.8180   31.6700    7.6180 C.3   109  ILE109      0.0019
     68  CG2       51.6970   30.0840    8.0820 C.3   109  ILE109      0.0020
     69  CD1       50.5450   32.6400    6.7010 C.3   109  ILE109      0.0001
     70  N         51.3820   30.1650   11.6700 N.am  110  TYR110     -0.1976
     71  CA        52.2800   29.4560   12.5810 C.3   110  TYR110      0.1639
     72  C         51.5260   28.6330   13.6320 C.2   110  TYR110      0.2290
     73  O         52.0200   27.5960   14.0770 O.2   110  TYR110     -0.2864
     74  CB        53.3120   30.4160   13.1970 C.3   110  TYR110      0.0560
     75  CG        54.0510   31.2260   12.1440 C.ar  110  TYR110     -0.0198
     76  CD1       54.3770   30.6590   10.9110 C.ar  110  TYR110     -0.0009
     77  CD2       54.4210   32.5530   12.3750 C.ar  110  TYR110     -0.0009
     78  CE1       55.0350   31.3840    9.9310 C.ar  110  TYR110      0.0417
     79  CE2       55.0930   33.2930   11.3930 C.ar  110  TYR110      0.0417
     80  CZ        55.3950   32.6940   10.1750 C.ar  110  TYR110      0.1957
     81  OH        56.0550   33.3890    9.1860 O.3   110  TYR110     -0.2866
     82  N         50.4690   25.6460   11.4710 N.3   113  LEU113     -0.1245
     83  CA        51.7090   24.9450   11.1360 C.3   113  LEU113      0.1561
     84  C         52.0320   23.8840   12.1900 C.2   113  LEU113      0.2260
     85  O         52.4820   22.7840   11.8580 O.2   113  LEU113     -0.2867
     86  CB        52.8710   25.9400   11.0450 C.3   113  LEU113      0.0270
     87  CG        53.9480   25.8490    9.9530 C.3   113  LEU113      0.0019
     88  CD1       55.2210   26.5100   10.4540 C.3   113  LEU113      0.0001
     89  CD2       54.2440   24.4330    9.4860 C.3   113  LEU113      0.0001
     90  N         50.9290   20.3480   11.7390 N.3   116  LEU116     -0.1245
     91  CA        51.6660   19.5780   10.7330 C.3   116  LEU116      0.1561
     92  C         53.0130   19.0730   11.2470 C.2   116  LEU116      0.2260
     93  O         53.6890   18.2880   10.5710 O.2   116  LEU116     -0.2867
     94  CB        51.8960   20.4340    9.4800 C.3   116  LEU116      0.0270
     95  CG        50.6860   21.0690    8.7850 C.3   116  LEU116      0.0019
     96  CD1       51.1270   21.8850    7.5720 C.3   116  LEU116      0.0001
     97  CD2       49.6770   20.0120    8.3850 C.3   116  LEU116      0.0001
     98  N         66.2090   21.0840    7.5450 N.3   136  LEU136     -0.1245
     99  CA        65.9080   22.5110    7.4430 C.3   136  LEU136      0.1561
    100  C         66.9550   23.3780    8.1470 C.2   136  LEU136      0.2260
    101  O         67.3020   24.4550    7.6600 O.2   136  LEU136     -0.2867
    102  CB        64.5030   22.8020    7.9760 C.3   136  LEU136      0.0270
    103  CG        63.3570   22.3910    7.0500 C.3   136  LEU136      0.0019
    104  CD1       62.0850   22.1240    7.8400 C.3   136  LEU136      0.0001
    105  CD2       63.1180   23.4590    5.9820 C.3   136  LEU136      0.0001
    106  N         70.4140   23.8650    6.1180 N.3   139  LEU139     -0.1245
    107  CA        70.4290   24.8140    5.0030 C.3   139  LEU139      0.1561
    108  C         71.3120   26.0150    5.3250 C.2   139  LEU139      0.2260
    109  O         71.3690   26.4570    6.4730 O.2   139  LEU139     -0.2867
    110  CB        69.0060   25.2770    4.6600 C.3   139  LEU139      0.0270
    111  CG        67.9500   24.2340    4.2690 C.3   139  LEU139      0.0019
    112  CD1       66.6150   24.9150    4.0080 C.3   139  LEU139      0.0001
    113  CD2       68.3760   23.4010    3.0590 C.3   139  LEU139      0.0001
    114  N         69.0280   30.8130    5.7950 N.3   143  PHE143     -0.1241
    115  CA        67.8550   29.9860    5.4950 C.3   143  PHE143      0.1605
    116  C         67.5960   28.8900    6.5300 C.2   143  PHE143      0.2264
    117  O         66.4540   28.4730    6.7210 O.2   143  PHE143     -0.2867
    118  CB        67.9540   29.3880    4.0900 C.3   143  PHE143      0.0534
    119  CG        67.9040   30.4120    2.9920 C.ar  143  PHE143     -0.0203
    120  CD1       69.0740   30.8540    2.3820 C.ar  143  PHE143     -0.0042
    121  CD2       66.6860   30.9410    2.5710 C.ar  143  PHE143     -0.0042
    122  CE1       69.0320   31.8030    1.3650 C.ar  143  PHE143     -0.0003
    123  CE2       66.6350   31.8900    1.5570 C.ar  143  PHE143     -0.0003
    124  CZ        67.8100   32.3250    0.9550 C.ar  143  PHE143     -0.0000
    125  N         65.0480   29.8930    9.6860 N.3   146  PHE146     -0.1227
    126  CA        63.6200   30.1690    9.5030 C.3   146  PHE146      0.1736
    127  C         62.6830   29.3150   10.3470 C.2   146  PHE146      0.2595
    128  O         61.8300   29.8440   11.0610 O.2   146  PHE146     -0.2718
    129  CB        63.2280   30.0240    8.0320 C.3   146  PHE146      0.0547
    130  CG        63.2700   31.3060    7.2680 C.ar  146  PHE146     -0.0202
    131  CD1       64.3830   31.6370    6.5080 C.ar  146  PHE146     -0.0042
    132  CD2       62.1960   32.1890    7.3110 C.ar  146  PHE146     -0.0042
    133  CE1       64.4270   32.8260    5.8020 C.ar  146  PHE146     -0.0003
    134  CE2       62.2320   33.3830    6.6070 C.ar  146  PHE146     -0.0003
    135  CZ        63.3470   33.7030    5.8500 C.ar  146  PHE146     -0.0000
    136  N         62.8460   27.9990   10.2550 N.am  147  MET147     -0.1979
    137  CA        61.8560   27.0590   10.7780 C.3   147  MET147      0.1605
    138  C         62.0300   26.6970   12.2490 C.2   147  MET147      0.2287
    139  O         61.0600   26.3450   12.9180 O.2   147  MET147     -0.2864
    140  CB        61.8230   25.7870    9.9220 C.3   147  MET147      0.0413
    141  CG        61.3210   26.0050    8.4990 C.3   147  MET147      0.0598
    142  SD        59.7690   26.9260    8.4290 S.3   147  MET147     -0.1393
    143  CE        58.6250   25.7350    9.1100 C.3   147  MET147      0.0692
    144  N         59.7110   28.1010   14.8050 N.3   150  LYS150     -0.1245
    145  CA        58.3790   27.5340   14.5860 C.3   150  LYS150      0.1561
    146  C         58.2800   26.1490   15.2160 C.2   150  LYS150      0.2260
    147  O         57.2910   25.8370   15.8800 O.2   150  LYS150     -0.2867
    148  CB        58.0330   27.4700   13.0920 C.3   150  LYS150      0.0271
    149  CG        57.5930   28.7940   12.4730 C.3   150  LYS150      0.0035
    150  CD        58.7830   29.6560   12.0970 C.3   150  LYS150      0.0206
    151  CE        58.3700   30.8700   11.2900 C.3   150  LYS150      0.1093
    152  NZ        59.5320   31.7650   11.0560 N.3   150  LYS150     -0.1314
    153  N         60.3500   36.5280   12.5270 N.3   232  HIS232     -0.1241
    154  CA        60.2870   36.0850   11.1330 C.3   232  HIS232      0.1621
    155  C         60.5030   37.2290   10.1400 C.2   232  HIS232      0.2264
    156  O         61.2230   37.0640    9.1530 O.2   232  HIS232     -0.2867
    157  CB        58.9540   35.3800   10.8520 C.3   232  HIS232      0.0745
    158  CG        58.7670   34.9810    9.4200 C.ar  232  HIS232      0.0817
    159  ND1       59.2540   33.7980    8.9060 N.ar  232  HIS232     -0.2268
    160  CD2       58.1410   35.6070    8.3950 C.ar  232  HIS232      0.1154
    161  CE1       58.9350   33.7120    7.6270 C.ar  232  HIS232      0.1986
    162  NE2       58.2620   34.7970    7.2910 N.ar  232  HIS232     -0.2212
    163  N         63.5010   38.1350    7.5110 N.3   236  LEU236     -0.1245
    164  CA        63.1490   38.4380    6.1300 C.3   236  LEU236      0.1561
    165  C         63.8450   39.7270    5.6820 C.2   236  LEU236      0.2260
    166  O         64.1410   39.9020    4.4970 O.2   236  LEU236     -0.2867
    167  CB        61.6280   38.5750    5.9910 C.3   236  LEU236      0.0270
    168  CG        60.8780   37.9140    4.8240 C.3   236  LEU236      0.0019
    169  CD1       61.3690   38.3910    3.4600 C.3   236  LEU236      0.0001
    170  CD2       60.9250   36.3890    4.9130 C.3   236  LEU236      0.0001
    171  N         53.1680   39.3640   -0.0150 N.3   248  LEU248     -0.1245
    172  CA        53.8140   39.2530    1.2920 C.3   248  LEU248      0.1561
    173  C         54.5990   40.5130    1.6500 C.2   248  LEU248      0.2260
    174  O         54.6100   40.9270    2.8100 O.2   248  LEU248     -0.2867
    175  CB        54.7180   38.0170    1.3420 C.3   248  LEU248      0.0270
    176  CG        54.2260   36.7380    2.0360 C.3   248  LEU248      0.0019
    177  CD1       52.7110   36.5410    1.9740 C.3   248  LEU248      0.0001
    178  CD2       54.9550   35.5250    1.4710 C.3   248  LEU248      0.0001
    179  N         54.3350   42.6750    5.0630 N.3   252  TYR252     -0.1241
    180  CA        55.5370   42.9150    5.8630 C.3   252  TYR252      0.1605
    181  C         55.8130   44.3910    6.1460 C.2   252  TYR252      0.2264
    182  O         56.2720   44.7320    7.2370 O.2   252  TYR252     -0.2867
    183  CB        56.7690   42.2660    5.2190 C.3   252  TYR252      0.0534
    184  CG        56.7430   40.7500    5.1850 C.ar  252  TYR252     -0.0201
    185  CD1       57.3240   40.0510    4.1280 C.ar  252  TYR252     -0.0009
    186  CD2       56.1340   40.0150    6.2040 C.ar  252  TYR252     -0.0009
    187  CE1       57.3060   38.6610    4.0880 C.ar  252  TYR252      0.0417
    188  CE2       56.1110   38.6240    6.1730 C.ar  252  TYR252      0.0417
    189  CZ        56.6990   37.9560    5.1130 C.ar  252  TYR252      0.1957
    190  OH        56.6790   36.5820    5.0760 O.3   252  TYR252     -0.2866
@<TRIPOS>BOND
     1    38    37    2
     2     6     7    1
     3    37    39   am
     4    37    36    1
     5     1     2    1
     6    36    35    1
     7     3     2    1
     8     3     4    2
     9    40    41    1
    10    35    32    1
    11     7     8    1
    12     7    10    1
    13    16    17    2
    14    16    15    1
    15    33    34    2
    16    33    32    1
    17    21    23   ar
    18    21    19   ar
    19     2     5    1
    20     8    14   am
    21     8     9    2
    22    23    24   ar
    23    14    15    1
    24   171   172    1
    25    25    26    1
    26    11    10    1
    27    11    13    1
    28    32    31    1
    29    41    44    1
    30    41    42    1
    31    18    15    1
    32    18    19    1
    33    31    27   am
    34    10    12    1
    35    19    20   ar
    36   124   122   ar
    37   124   123   ar
    38    44    45    1
    39    46    45    1
    40    46    47    1
    41    27    26    1
    42    27    28    2
    43   172   175    1
    44   172   173    1
    45    24    22   ar
    46    42    43    2
    47    42    51   am
    48    26    29    1
    49   175   176    1
    50   122   120   ar
    51   178   176    1
    52   123   121   ar
    53   173   174    2
    54    51    52    1
    55    47    48    2
    56    49    48    1
    57   177   176    1
    58    57    58    1
    59    20    22   ar
    60    53    52    1
    61    53    54    2
    62    48    50    1
    63   120   119   ar
    64    29    30    1
    65   121   119   ar
    66    52    55    1
    67   119   118    1
    68   113   111    1
    69    55    56    1
    70    58    59    1
    71    58    61    1
    72   169   168    1
    73    59    60    2
    74   112   111    1
    75   187   185   ar
    76   187   189   ar
    77   118   115    1
    78   185   184   ar
    79   111   110    1
    80   166   165    2
    81   110   107    1
    82   168   170    1
    83   168   167    1
    84   107   108    1
    85   107   106    1
    86   179   180    1
    87   190   189    1
    88   189   188   ar
    89   184   183    1
    90   184   186   ar
    91   183   180    1
    92   108   109    2
    93   115   114    1
    94   115   116    1
    95   165   164    1
    96   133   135   ar
    97   133   131   ar
    98   135   134   ar
    99   180   181    1
   100   105   103    1
   101   167   164    1
   102   164   163    1
   103   181   182    2
   104   188   186   ar
   105   131   130   ar
   106   116   117    2
   107   134   132   ar
   108    69    67    1
   109   103   104    1
   110   103   102    1
   111   130   132   ar
   112   130   129    1
   113   162   161   ar
   114   162   160   ar
   115    99    98    1
   116    99   102    1
   117    99   100    1
   118    96    95    1
   119    67    66    1
   120   161   159   ar
   121   101   100    2
   122   129   126    1
   123    68    66    1
   124    97    95    1
   125   160   158   ar
   126   142   141    1
   127   142   143    1
   128   141   140    1
   129    66    63    1
   130    95    94    1
   131   159   158   ar
   132   156   155    2
   133    81    80    1
   134   158   157    1
   135    94    91    1
   136    89    87    1
   137   126   125    1
   138   126   127    1
   139    63    62    1
   140    63    64    1
   141   140   137    1
   142    78    80   ar
   143    78    76   ar
   144    87    88    1
   145    87    86    1
   146   155   154    1
   147    80    79   ar
   148   136   127   am
   149   136   137    1
   150   127   128    2
   151    93    92    2
   152    65    64    2
   153    64    70   am
   154    91    92    1
   155    91    90    1
   156   137   138    1
   157   157   154    1
   158    76    75   ar
   159    86    83    1
   160   152   151    1
   161   154   153    1
   162    83    82    1
   163    83    84    1
   164   151   150    1
   165    79    77   ar
   166    70    71    1
   167    85    84    2
   168   150   149    1
   169    75    77   ar
   170    75    74    1
   171   138   139    2
   172   149   148    1
   173    71    74    1
   174    71    72    1
   175   148   145    1
   176    72    73    2
   177   145   144    1
   178   145   146    1
   179   146   147    2
