@<TRIPOS>MOLECULE
tmp/3r5oA05.pdb
 104 101 0 0 0
SMALL
GASTEIGER

@<TRIPOS>ATOM
      1  N        -17.6980    1.6930   18.6960 N.3   105  GLN105     -0.1245
      2  CA       -18.6490    1.7640   19.8150 C.3   105  GLN105      0.1566
      3  C        -20.0570    1.3770   19.3670 C.2   105  GLN105      0.2260
      4  O        -20.8300    0.7960   20.1340 O.2   105  GLN105     -0.2867
      5  CB       -18.6560    3.1570   20.4440 C.3   105  GLN105      0.0367
      6  CG       -19.6170    3.2610   21.5970 C.3   105  GLN105      0.0905
      7  CD       -19.6130    4.6150   22.2510 C.2   105  GLN105      0.2608
      8  OE1      -19.5890    5.6500   21.5770 O.2   105  GLN105     -0.2717
      9  NE2      -19.6680    4.6250   23.5720 N.am  105  GLN105     -0.0878
     10  N        -22.0240   -1.9010   20.7390 N.3   109  HIS109     -0.1241
     11  CA       -23.3230   -1.8030   21.3610 C.3   109  HIS109      0.1621
     12  C        -24.3190   -2.7830   20.8040 C.2   109  HIS109      0.2264
     13  O        -25.1960   -3.2900   21.5300 O.2   109  HIS109     -0.2867
     14  CB       -23.8210   -0.3680   21.3620 C.3   109  HIS109      0.0745
     15  CG       -23.1240    0.4990   22.3810 C.ar  109  HIS109      0.0817
     16  ND1      -23.4790    1.7680   22.6200 N.ar  109  HIS109     -0.2268
     17  CD2      -22.0630    0.2230   23.2310 C.ar  109  HIS109      0.1154
     18  CE1      -22.6860    2.2810   23.5720 C.ar  109  HIS109      0.1986
     19  NE2      -21.8200    1.3340   23.9440 N.ar  109  HIS109     -0.2212
     20  N        -24.3210   -6.0670   25.8360 N.3   113  PHE113     -0.1227
     21  CA       -24.5610   -5.1970   26.9580 C.3   113  PHE113      0.1736
     22  C        -24.7260   -6.1010   28.1620 C.2   113  PHE113      0.2595
     23  O        -25.4820   -7.0600   28.1110 O.2   113  PHE113     -0.2718
     24  CB       -25.8330   -4.3890   26.7290 C.3   113  PHE113      0.0547
     25  CG       -26.0610   -3.3110   27.7460 C.ar  113  PHE113     -0.0202
     26  CD1      -25.0090   -2.7850   28.4660 C.ar  113  PHE113     -0.0042
     27  CD2      -27.3310   -2.8200   27.9740 C.ar  113  PHE113     -0.0042
     28  CE1      -25.2190   -1.7930   29.3990 C.ar  113  PHE113     -0.0003
     29  CE2      -27.5500   -1.8270   28.9040 C.ar  113  PHE113     -0.0003
     30  CZ       -26.4920   -1.3120   29.6190 C.ar  113  PHE113     -0.0000
     31  N        -24.0510   -5.7780   29.2530 N.am  114  ALA114     -0.1980
     32  CA       -24.2630   -6.4710   30.5210 C.3   114  ALA114      0.1597
     33  C        -24.5930   -5.3770   31.5380 C.2   114  ALA114      0.2287
     34  O        -23.7180   -4.8850   32.2530 O.2   114  ALA114     -0.2864
     35  CB       -23.0160   -7.2260   30.9340 C.3   114  ALA114      0.0319
     36  N        -30.0700    1.2010   24.8160 N.3   253  PHE253     -0.1227
     37  CA       -30.1190    2.0870   25.9690 C.3   253  PHE253      0.1736
     38  C        -29.0610    3.2040   26.0400 C.2   253  PHE253      0.2595
     39  O        -29.3710    4.3300   26.3960 O.2   253  PHE253     -0.2718
     40  CB       -29.9940    1.2230   27.2440 C.3   253  PHE253      0.0547
     41  CG       -30.0980    2.0010   28.5310 C.ar  253  PHE253     -0.0202
     42  CD1      -31.3320    2.4630   28.9790 C.ar  253  PHE253     -0.0042
     43  CD2      -28.9610    2.2750   29.2940 C.ar  253  PHE253     -0.0042
     44  CE1      -31.4400    3.1870   30.1690 C.ar  253  PHE253     -0.0003
     45  CE2      -29.0620    2.9990   30.4870 C.ar  253  PHE253     -0.0003
     46  CZ       -30.3050    3.4550   30.9230 C.ar  253  PHE253     -0.0000
     47  N        -27.8260    2.8710   25.6790 N.am  254  ARG254     -0.1980
     48  CA       -26.6720    3.7760   25.7990 C.3   254  ARG254      0.1597
     49  C        -26.4420    4.8630   24.7590 C.2   254  ARG254      0.2287
     50  O        -25.4260    5.5650   24.7980 O.2   254  ARG254     -0.2864
     51  CB       -25.4050    2.9110   25.8710 C.3   254  ARG254      0.0334
     52  CG       -25.4710    1.7420   26.8630 C.3   254  ARG254      0.0492
     53  CD       -24.4720    0.6200   26.5030 C.3   254  ARG254      0.2205
     54  NE       -24.9310   -0.2050   25.3890 N.pl3 254  ARG254     -0.0865
     55  CZ       -24.3910   -1.3690   25.0470 C.cat 254  ARG254      0.5346
     56  NH1      -23.3600   -1.8470   25.7340 N.pl3 254  ARG254      0.1354
     57  NH2      -24.8930   -2.0640   24.0320 N.pl3 254  ARG254      0.1354
     58  N        -24.8050    8.4790   25.5120 N.3   257  GLU257     -0.1245
     59  CA       -23.6860    8.5800   26.4220 C.3   257  GLU257      0.1567
     60  C        -22.7260    9.6680   26.0460 C.2   257  GLU257      0.2260
     61  O        -22.1990   10.3120   26.8920 O.2   257  GLU257     -0.2867
     62  CB       -22.9390    7.2630   26.5240 C.3   257  GLU257      0.0388
     63  CG       -21.6810    7.3020   27.3730 C.3   257  GLU257      0.1160
     64  CD       -20.4460    7.2950   26.5710 C.2   257  GLU257      0.3649
     65  OE1      -20.5540    7.0280   25.3920 O.co2 257  GLU257     -0.2457
     66  OE2      -19.3610    7.5150   27.0980 O.co2 257  GLU257     -0.2457
     67  N        -13.0740   -3.4780   24.6190 N.3   347  ARG347     -0.1245
     68  CA       -12.9960   -2.2220   25.3210 C.3   347  ARG347      0.1563
     69  C        -11.7630   -1.4860   24.8220 C.2   347  ARG347      0.2260
     70  O        -11.4250   -0.4240   25.3250 O.2   347  ARG347     -0.2867
     71  CB       -12.9700   -2.4370   26.8300 C.3   347  ARG347      0.0307
     72  CG       -14.3540   -2.4150   27.4560 C.3   347  ARG347      0.0489
     73  CD       -14.3720   -3.1050   28.8030 C.3   347  ARG347      0.2205
     74  NE       -15.6500   -3.7530   29.0710 N.pl3 347  ARG347     -0.0865
     75  CZ       -16.4710   -3.4060   30.0550 C.cat 347  ARG347      0.5346
     76  NH1      -16.1550   -2.4100   30.8640 N.pl3 347  ARG347      0.1354
     77  NH2      -17.6100   -4.0530   30.2300 N.pl3 347  ARG347      0.1354
     78  N        -23.6550   12.5160   27.8630 N.3   380  PHE380     -0.1241
     79  CA       -25.1110   12.7160   27.9810 C.3   380  PHE380      0.1605
     80  C        -25.5760   14.1320   27.6400 C.2   380  PHE380      0.2264
     81  O        -26.4810   14.6850   28.2630 O.2   380  PHE380     -0.2867
     82  CB       -25.5810   12.3020   29.3740 C.3   380  PHE380      0.0534
     83  CG       -25.2000   10.9040   29.7200 C.ar  380  PHE380     -0.0203
     84  CD1      -25.8740    9.8230   29.1580 C.ar  380  PHE380     -0.0042
     85  CD2      -24.1120   10.6650   30.5540 C.ar  380  PHE380     -0.0042
     86  CE1      -25.4640    8.5250   29.4220 C.ar  380  PHE380     -0.0003
     87  CE2      -23.6880    9.3610   30.8280 C.ar  380  PHE380     -0.0003
     88  CZ       -24.3620    8.2900   30.2620 C.ar  380  PHE380     -0.0000
     89  N        -21.5610    9.5410   35.1540 N.3   422  GLN422     -0.1231
     90  CA       -22.4170    8.3560   35.2520 C.3   422  GLN422      0.1683
     91  C        -23.7860    8.7880   35.8000 C.2   422  GLN422      0.2434
     92  O        -23.8570    9.5160   36.7930 O.2   422  GLN422     -0.2733
     93  CB       -21.8550    7.3270   36.2320 C.3   422  GLN422      0.0380
     94  CG       -20.4600    6.8690   35.9290 C.3   422  GLN422      0.0905
     95  CD       -20.4230    5.4870   35.3320 C.2   422  GLN422      0.2608
     96  OE1      -20.0500    4.5160   36.0020 O.2   422  GLN422     -0.2717
     97  NE2      -20.8150    5.3820   34.0640 N.am  422  GLN422     -0.0878
     98  N        -24.8700    8.3130   35.1610 N.am  423  PRO423     -0.2729
     99  CA       -26.1960    8.6880   35.6360 C.3   423  PRO423      0.1401
    100  C        -26.3840    8.4110   37.1370 C.2   423  PRO423      0.2269
    101  O        -25.8360    7.5200   37.7240 O.2   423  PRO423     -0.2865
    102  CB       -27.1040    7.9180   34.7070 C.3   423  PRO423      0.0296
    103  CG       -26.3340    7.6900   33.5340 C.3   423  PRO423      0.0237
    104  CD       -24.9370    7.5940   33.8900 C.3   423  PRO423      0.0939
@<TRIPOS>BOND
     1     1     2    1
     2     3     2    1
     3     3     4    2
     4     2     5    1
     5     5     6    1
     6    10    11    1
     7    12    11    1
     8    12    13    2
     9    11    14    1
    10    14    15    1
    11     8     7    2
    12     6     7    1
    13     7     9   am
    14    15    16   ar
    15    15    17   ar
    16    16    18   ar
    17    17    19   ar
    18    18    19   ar
    19    57    55    1
    20    67    68    1
    21    49    50    2
    22    49    48    1
    23    36    37    1
    24    69    68    1
    25    69    70    2
    26    55    54    2
    27    55    56    1
    28    68    71    1
    29    54    53    1
    30    65    64   ar
    31    58    59    1
    32    47    48    1
    33    47    38   am
    34    48    51    1
    35    20    21    1
    36    51    52    1
    37    37    38    1
    38    37    40    1
    39    38    39    2
    40    60    59    1
    41    60    61    2
    42    59    62    1
    43    53    52    1
    44    62    63    1
    45    64    66   ar
    46    64    63    1
    47    24    21    1
    48    24    25    1
    49    71    72    1
    50    21    22    1
    51    40    41    1
    52    72    73    1
    53    80    79    1
    54    80    81    2
    55    25    27   ar
    56    25    26   ar
    57    78    79    1
    58    27    29   ar
    59    79    82    1
    60    23    22    2
    61    22    31   am
    62    26    28   ar
    63    41    42   ar
    64    41    43   ar
    65    73    74    1
    66    29    30   ar
    67    42    44   ar
    68    74    75    2
    69    84    86   ar
    70    84    83   ar
    71    31    32    1
    72    43    45   ar
    73    82    83    1
    74    28    30   ar
    75    86    88   ar
    76    83    85   ar
    77    75    77    1
    78    75    76    1
    79    44    46   ar
    80    88    87   ar
    81    45    46   ar
    82    32    35    1
    83    32    33    1
    84    85    87   ar
    85    33    34    2
    86   103   104    1
    87   103   102    1
    88   104    98    1
    89    97    95   am
    90   102    99    1
    91    89    90    1
    92    98    99    1
    93    98    91   am
    94    90    91    1
    95    90    93    1
    96    95    94    1
    97    95    96    2
    98    99   100    1
    99    91    92    2
   100    94    93    1
   101   100   101    2
