@<TRIPOS>MOLECULE
tmp/3r5rB00.pdb
 174 172 0 0 0
SMALL
GASTEIGER

@<TRIPOS>ATOM
      1  N        -62.0700    2.0410   -3.6670 N.3     4  VAL4       -0.1245
      2  CA       -60.6660    2.1880   -4.0130 C.3     4  VAL4        0.1561
      3  C        -60.1730    3.6030   -3.7100 C.2     4  VAL4        0.2260
      4  O        -60.9420    4.5720   -3.7400 O.2     4  VAL4       -0.2867
      5  CB       -60.3650    1.8150   -5.4960 C.3     4  VAL4        0.0252
      6  CG1      -60.9860    0.4660   -5.8480 C.3     4  VAL4        0.0019
      7  CG2      -60.8540    2.9020   -6.4490 C.3     4  VAL4        0.0019
      8  N        -43.3290    9.0160  -11.2730 N.3    11  GLY11      -0.1210
      9  CA       -42.5190    7.9960  -11.9130 C.3    11  GLY11       0.1956
     10  C        -41.0520    8.2830  -11.6410 C.2    11  GLY11       0.2612
     11  O        -40.5810    9.4000  -11.8670 O.2    11  GLY11      -0.2717
     12  N        -40.3270    7.2920  -11.1350 N.am   12  ARG12      -0.1965
     13  CA       -38.9340    7.5150  -10.7470 C.3    12  ARG12       0.1729
     14  C        -38.0120    7.6600  -11.9540 C.2    12  ARG12       0.2616
     15  O        -36.8440    8.0280  -11.8080 O.2    12  ARG12      -0.2715
     16  CB       -38.4280    6.3870   -9.8530 C.3    12  ARG12       0.0348
     17  CG       -38.3940    5.0390  -10.5330 C.3    12  ARG12       0.0492
     18  CD       -37.7460    4.0050   -9.6320 C.3    12  ARG12       0.2205
     19  NE       -37.5810    2.7220  -10.3110 N.pl3  12  ARG12      -0.0865
     20  CZ       -36.8650    1.7030   -9.8380 C.cat  12  ARG12       0.5346
     21  NH1      -36.2410    1.8010   -8.6680 N.pl3  12  ARG12       0.1354
     22  NH2      -36.7830    0.5810  -10.5370 N.pl3  12  ARG12       0.1354
     23  N        -38.5350    7.3670  -13.1410 N.am   13  LYS13      -0.1963
     24  CA       -37.7310    7.4300  -14.3620 C.3    13  LYS13       0.1728
     25  C        -38.1670    8.5900  -15.2530 C.2    13  LYS13       0.2616
     26  O        -37.3370    9.3170  -15.7900 O.2    13  LYS13      -0.2715
     27  CB       -37.8260    6.1170  -15.1410 C.3    13  LYS13       0.0311
     28  CG       -37.4330    4.8810  -14.3470 C.3    13  LYS13       0.0038
     29  CD       -35.9480    4.5580  -14.4740 C.3    13  LYS13       0.0206
     30  CE       -35.6280    3.2120  -13.8250 C.3    13  LYS13       0.1093
     31  NZ       -34.2910    2.6610  -14.2180 N.3    13  LYS13      -0.1314
     32  N        -39.4760    8.7570  -15.4010 N.am   14  THR14      -0.1951
     33  CA       -40.0280    9.7570  -16.3040 C.3    14  THR14       0.1897
     34  C        -40.3620   11.0710  -15.5930 C.2    14  THR14       0.2313
     35  O        -40.4200   12.1290  -16.2220 O.2    14  THR14      -0.2863
     36  CB       -41.3080    9.2390  -16.9580 C.3    14  THR14       0.1794
     37  OG1      -42.3170    9.0930  -15.9530 O.3    14  THR14      -0.2208
     38  CG2      -41.0630    7.8920  -17.6300 C.3    14  THR14       0.0378
     39  N        -48.2120    9.2140  -11.9440 N.3    18  ARG18      -0.1245
     40  CA       -48.7540    7.8890  -12.2140 C.3    18  ARG18       0.1563
     41  C        -49.8360    7.6030  -11.1900 C.2    18  ARG18       0.2260
     42  O        -49.6150    7.7710   -9.9910 O.2    18  ARG18      -0.2867
     43  CB       -47.6560    6.8340  -12.1120 C.3    18  ARG18       0.0307
     44  CG       -46.4830    7.0620  -13.0630 C.3    18  ARG18       0.0489
     45  CD       -46.9050    6.8390  -14.5030 C.3    18  ARG18       0.2205
     46  NE       -45.7610    6.7730  -15.4070 N.pl3  18  ARG18      -0.0865
     47  CZ       -45.8550    6.5370  -16.7130 C.cat  18  ARG18       0.5346
     48  NH1      -47.0470    6.3470  -17.2680 N.pl3  18  ARG18       0.1354
     49  NH2      -44.7570    6.4930  -17.4630 N.pl3  18  ARG18       0.1354
     50  N        -52.8680    4.8910   -9.7100 N.3    20  ASN20      -0.1226
     51  CA       -53.3630    3.5180   -9.6420 C.3    20  ASN20       0.1770
     52  C        -54.4070    3.3790   -8.5430 C.2    20  ASN20       0.2439
     53  O        -54.2250    3.9090   -7.4470 O.2    20  ASN20      -0.2733
     54  CB       -52.2190    2.5440   -9.3450 C.3    20  ASN20       0.1168
     55  CG       -51.1700    2.5120  -10.4460 C.2    20  ASN20       0.2627
     56  OD1      -51.3290    1.8060  -11.4410 O.2    20  ASN20      -0.2716
     57  ND2      -50.0870    3.2750  -10.2700 N.am   20  ASN20      -0.0877
     58  N        -55.4960    2.6510   -8.8240 N.am   21  PRO21      -0.2718
     59  CA       -56.4970    2.3460   -7.7930 C.3    21  PRO21       0.1535
     60  C        -56.0290    1.2260   -6.8470 C.2    21  PRO21       0.2598
     61  O        -55.4600    0.2490   -7.3110 O.2    21  PRO21      -0.2715
     62  CB       -57.7040    1.8770   -8.6140 C.3    21  PRO21       0.0310
     63  CG       -57.0940    1.3000   -9.8740 C.3    21  PRO21       0.0237
     64  CD       -55.8840    2.1550  -10.1580 C.3    21  PRO21       0.0939
     65  N        -56.2740    1.3790   -5.5460 N.am   22  LEU22      -0.1964
     66  CA       -55.8720    0.3960   -4.5370 C.3    22  LEU22       0.1728
     67  C        -56.9530    0.3010   -3.4680 C.2    22  LEU22       0.2616
     68  O        -57.6510    1.2730   -3.2190 O.2    22  LEU22      -0.2715
     69  CB       -54.5690    0.8330   -3.8570 C.3    22  LEU22       0.0311
     70  CG       -53.3230    1.0510   -4.7190 C.3    22  LEU22       0.0022
     71  CD1      -52.2630    1.8170   -3.9600 C.3    22  LEU22       0.0001
     72  CD2      -52.7830   -0.2760   -5.1820 C.3    22  LEU22       0.0001
     73  N        -57.0920   -0.8580   -2.8280 N.am   23  TYR23      -0.1974
     74  CA       -57.8830   -0.9210   -1.6070 C.3    23  TYR23       0.1639
     75  C        -57.0370   -0.3050   -0.5050 C.2    23  TYR23       0.2290
     76  O        -55.8140   -0.2300   -0.6370 O.2    23  TYR23      -0.2864
     77  CB       -58.2720   -2.3530   -1.2520 C.3    23  TYR23       0.0560
     78  CG       -59.0740   -3.0280   -2.3370 C.ar   23  TYR23      -0.0198
     79  CD1      -59.9680   -2.2980   -3.1190 C.ar   23  TYR23      -0.0009
     80  CD2      -58.9480   -4.3890   -2.5790 C.ar   23  TYR23      -0.0009
     81  CE1      -60.7000   -2.9030   -4.1180 C.ar   23  TYR23       0.0417
     82  CE2      -59.6780   -5.0020   -3.5780 C.ar   23  TYR23       0.0417
     83  CZ       -60.5590   -4.2550   -4.3400 C.ar   23  TYR23       0.1957
     84  OH       -61.2910   -4.8560   -5.3390 O.3    23  TYR23      -0.2866
     85  N        -51.4930   -2.1090    0.5000 N.3    34  ALA34      -0.1231
     86  CA       -50.6160   -3.2530    0.3040 C.3    34  ALA34       0.1694
     87  C        -50.1940   -3.3360   -1.1580 C.2    34  ALA34       0.2592
     88  O        -51.0280   -3.2780   -2.0620 O.2    34  ALA34      -0.2718
     89  CB       -51.3060   -4.5520    0.7470 C.3    34  ALA34       0.0304
     90  N        -48.8940   -3.4650   -1.3860 N.am   35  ALA35      -0.1966
     91  CA       -48.3750   -3.5510   -2.7410 C.3    35  ALA35       0.1728
     92  C        -48.3690   -5.0140   -3.1740 C.2    35  ALA35       0.2617
     93  O        -47.3190   -5.5980   -3.4630 O.2    35  ALA35      -0.2715
     94  CB       -46.9760   -2.9350   -2.8180 C.3    35  ALA35       0.0334
     95  N        -49.5600   -5.5990   -3.2090 N.am   36  SER36      -0.1936
     96  CA       -49.7270   -7.0340   -3.4130 C.3    36  SER36       0.2055
     97  C        -49.6570   -7.4340   -4.8780 C.2    36  SER36       0.2643
     98  O        -49.1090   -8.4850   -5.2240 O.2    36  SER36      -0.2714
     99  CB       -51.0590   -7.5010   -2.8040 C.3    36  SER36       0.2130
    100  OG       -52.1190   -6.5880   -3.0840 O.3    36  SER36      -0.2179
    101  N        -50.2330   -6.6020   -5.7370 N.am   37  LYS37      -0.1963
    102  CA       -50.2480   -6.8780   -7.1650 C.3    37  LYS37       0.1728
    103  C        -50.6230   -8.3380   -7.4410 C.2    37  LYS37       0.2616
    104  O        -49.9060   -9.0530   -8.1360 O.2    37  LYS37      -0.2715
    105  CB       -48.8840   -6.5470   -7.7870 C.3    37  LYS37       0.0311
    106  CG       -48.8890   -6.5160   -9.3090 C.3    37  LYS37       0.0038
    107  CD       -47.5750   -6.0050   -9.8680 C.3    37  LYS37       0.0206
    108  CE       -47.6450   -5.9050  -11.3890 C.3    37  LYS37       0.1093
    109  NZ       -46.3690   -5.4090  -11.9600 N.3    37  LYS37      -0.1314
    110  N        -51.7520   -8.7690   -6.8890 N.am   38  GLY38      -0.1955
    111  CA       -52.2810  -10.0990   -7.1520 C.3    38  GLY38       0.1869
    112  C        -51.3230  -11.2490   -6.8830 C.2    38  GLY38       0.2309
    113  O        -51.4780  -12.3450   -7.4260 O.2    38  GLY38      -0.2863
    114  N        -45.0370   -3.9090   -7.4770 N.3    44  PRO44      -0.2102
    115  CA       -45.5990   -2.9910   -8.4790 C.3    44  PRO44       0.1504
    116  C        -44.6960   -1.7740   -8.6830 C.2    44  PRO44       0.2576
    117  O        -43.9500   -1.3970   -7.7720 O.2    44  PRO44      -0.2718
    118  CB       -46.9210   -2.5320   -7.8540 C.3    44  PRO44       0.0282
    119  CG       -47.1570   -3.4140   -6.6710 C.3    44  PRO44       0.0208
    120  CD       -45.8320   -3.9460   -6.2370 C.3    44  PRO44       0.0893
    121  N        -44.7510   -1.1830   -9.8750 N.am   45  MET45      -0.1966
    122  CA       -43.9520   -0.0040  -10.1710 C.3    45  MET45       0.1736
    123  C        -44.2760    1.1520   -9.2230 C.2    45  MET45       0.2616
    124  O        -43.3770    1.8550   -8.7670 O.2    45  MET45      -0.2715
    125  CB       -44.1240    0.4420  -11.6360 C.3    45  MET45       0.0427
    126  CG       -43.6900   -0.5830  -12.6950 C.3    45  MET45       0.0599
    127  SD       -41.9970   -1.2310  -12.5580 S.3    45  MET45      -0.1393
    128  CE       -41.1660    0.1140  -11.7450 C.3    45  MET45       0.0692
    129  N        -45.5560    1.3490   -8.9240 N.am   46  TRP46      -0.1974
    130  CA       -45.9490    2.4730   -8.0700 C.3    46  TRP46       0.1640
    131  C        -45.2330    2.4000   -6.7230 C.2    46  TRP46       0.2290
    132  O        -44.9300    3.4280   -6.1130 O.2    46  TRP46      -0.2864
    133  CB       -47.4810    2.5820   -7.8960 C.3    46  TRP46       0.0576
    134  CG       -48.1780    1.3620   -7.3230 C.ar   46  TRP46       0.0006
    135  CD1      -48.8330    0.3850   -8.0240 C.ar   46  TRP46       0.0946
    136  CD2      -48.3150    1.0170   -5.9380 C.ar   46  TRP46       0.0152
    137  NE1      -49.3540   -0.5580   -7.1620 N.ar   46  TRP46      -0.2442
    138  CE2      -49.0490   -0.1950   -5.8760 C.ar   46  TRP46       0.0810
    139  CE3      -47.8820    1.6070   -4.7440 C.ar   46  TRP46       0.0012
    140  CZ2      -49.3570   -0.8240   -4.6690 C.ar   46  TRP46       0.0191
    141  CZ3      -48.1980    0.9840   -3.5420 C.ar   46  TRP46       0.0001
    142  CH2      -48.9300   -0.2190   -3.5120 C.ar   46  TRP46       0.0015
    143  N        -41.8730    3.7150   -7.2920 N.3    49  ASN49      -0.1240
    144  CA       -42.0010    5.1630   -7.4070 C.3    49  ASN49       0.1653
    145  C        -41.9680    5.8840   -6.0670 C.2    49  ASN49       0.2266
    146  O        -41.2730    6.8940   -5.9050 O.2    49  ASN49      -0.2867
    147  CB       -43.2930    5.5260   -8.1470 C.3    49  ASN49       0.1155
    148  CG       -43.2340    5.1910   -9.6290 C.2    49  ASN49       0.2627
    149  OD1      -42.1520    5.0170  -10.1970 O.2    49  ASN49      -0.2716
    150  ND2      -44.4000    5.1160  -10.2670 N.am   49  ASN49      -0.0877
    151  N        -59.9790   -8.0940    3.2720 N.3    88  TYR88      -0.1241
    152  CA       -59.8460   -8.6540    1.9310 C.3    88  TYR88       0.1605
    153  C        -58.9840   -9.9210    1.9830 C.2    88  TYR88       0.2264
    154  O        -57.7800   -9.8720    1.7480 O.2    88  TYR88      -0.2867
    155  CB       -59.2450   -7.5990    0.9920 C.3    88  TYR88       0.0534
    156  CG       -59.1480   -7.9920   -0.4750 C.ar   88  TYR88      -0.0201
    157  CD1      -60.2840   -8.3000   -1.2150 C.ar   88  TYR88      -0.0009
    158  CD2      -57.9210   -8.0160   -1.1250 C.ar   88  TYR88      -0.0009
    159  CE1      -60.1980   -8.6460   -2.5550 C.ar   88  TYR88       0.0417
    160  CE2      -57.8230   -8.3540   -2.4710 C.ar   88  TYR88       0.0417
    161  CZ       -58.9640   -8.6720   -3.1790 C.ar   88  TYR88       0.1957
    162  OH       -58.8700   -9.0180   -4.5150 O.3    88  TYR88      -0.2866
    163  N        -55.8120  -11.0990    0.1470 N.3    91  TYR91      -0.1241
    164  CA       -54.4650  -10.6700    0.5320 C.3    91  TYR91       0.1605
    165  C        -53.6450  -11.8530    1.0620 C.2    91  TYR91       0.2264
    166  O        -52.4780  -12.0110    0.7170 O.2    91  TYR91      -0.2867
    167  CB       -54.5050   -9.5450    1.5720 C.3    91  TYR91       0.0534
    168  CG       -54.8100   -8.1670    1.0070 C.ar   91  TYR91      -0.0201
    169  CD1      -54.2360   -7.7360   -0.1850 C.ar   91  TYR91      -0.0009
    170  CD2      -55.6450   -7.2860    1.6860 C.ar   91  TYR91      -0.0009
    171  CE1      -54.5130   -6.4780   -0.6990 C.ar   91  TYR91       0.0417
    172  CE2      -55.9220   -6.0240    1.1820 C.ar   91  TYR91       0.0417
    173  CZ       -55.3520   -5.6260   -0.0070 C.ar   91  TYR91       0.1957
    174  OH       -55.6240   -4.3710   -0.5160 O.3    91  TYR91      -0.2866
@<TRIPOS>BOND
     1    38    36    1
     2    49    47    1
     3    48    47    1
     4    36    33    1
     5    36    37    1
     6    47    46    2
     7    33    34    1
     8    33    32    1
     9    35    34    2
    10    26    25    2
    11    46    45    1
    12    32    25   am
    13    25    24    1
    14    27    24    1
    15    27    28    1
    16    45    44    1
    17    29    28    1
    18    29    30    1
    19    24    23    1
    20    31    30    1
    21    23    14   am
    22    44    43    1
    23   126   127    1
    24   126   125    1
    25   127   128    1
    26    40    43    1
    27    40    39    1
    28    40    41    1
    29   109   108    1
    30    14    15    2
    31    14    13    1
    32     9    10    1
    33     9     8    1
    34    11    10    2
    35    10    12   am
    36   125   122    1
    37    56    55    2
    38   108   107    1
    39    41    42    2
    40    12    13    1
    41    13    16    1
    42    22    20    1
    43    17    16    1
    44    17    18    1
    45    55    57   am
    46    55    54    1
    47    19    20    2
    48    19    18    1
    49   150   148   am
    50   149   148    2
    51   122   121    1
    52   122   123    1
    53    64    63    1
    54    64    58    1
    55   121   116   am
    56    63    62    1
    57   107   106    1
    58    20    21    1
    59    50    51    1
    60    51    54    1
    61    51    52    1
    62   148   147    1
    63   106   105    1
    64   123   129   am
    65   123   124    2
    66   129   130    1
    67    58    52   am
    68    58    59    1
    69   116   115    1
    70   116   117    2
    71    62    59    1
    72    52    53    2
    73   115   118    1
    74   115   114    1
    75   147   144    1
    76   104   103    2
    77   130   133    1
    78   130   131    1
    79   135   134   ar
    80   135   137   ar
    81   133   134    1
    82   118   119    1
    83    59    60    1
    84   105   102    1
    85   114   120    1
    86   103   102    1
    87   103   110   am
    88   113   112    2
    89   144   143    1
    90   144   145    1
    91   134   136   ar
    92    61    60    2
    93   102   101    1
    94   137   138   ar
    95   111   110    1
    96   111   112    1
    97    60    65   am
    98   131   132    2
    99   119   120    1
   100     7     5    1
   101   145   146    2
   102   136   138   ar
   103   136   139   ar
   104   138   140   ar
   105     6     5    1
   106   101    97   am
   107    65    66    1
   108     5     2    1
   109    84    83    1
   110    98    97    2
   111    72    70    1
   112    97    96    1
   113   139   141   ar
   114    70    71    1
   115    70    69    1
   116   140   142   ar
   117    66    69    1
   118    66    67    1
   119   162   161    1
   120    83    81   ar
   121    83    82   ar
   122    81    79   ar
   123     2     3    1
   124     2     1    1
   125     4     3    2
   126    82    80   ar
   127   141   142   ar
   128    67    68    2
   129    67    73   am
   130    93    92    2
   131    96    95    1
   132    96    99    1
   133    95    92   am
   134   161   159   ar
   135   161   160   ar
   136    92    91    1
   137    79    78   ar
   138   100    99    1
   139    73    74    1
   140    94    91    1
   141    91    90    1
   142    80    78   ar
   143   159   157   ar
   144   160   158   ar
   145    78    77    1
   146    88    87    2
   147    74    77    1
   148    74    75    1
   149    90    87   am
   150   157   156   ar
   151    87    86    1
   152   158   156   ar
   153   171   169   ar
   154   171   173   ar
   155    76    75    2
   156   174   173    1
   157   156   155    1
   158   169   168   ar
   159   173   172   ar
   160   163   164    1
   161    86    85    1
   162    86    89    1
   163   164   165    1
   164   164   167    1
   165   166   165    2
   166   155   152    1
   167   168   167    1
   168   168   170   ar
   169   172   170   ar
   170   154   153    2
   171   152   153    1
   172   152   151    1
