@<TRIPOS>MOLECULE
tmp/3r5tA00.pdb
 225 215 0 0 0
SMALL
GASTEIGER

@<TRIPOS>ATOM
      1  N         26.1240    4.8530    8.4840 N.3    29  VAL29      -0.1231
      2  CA        27.5440    5.0040    8.7630 C.3    29  VAL29       0.1692
      3  C         27.7900    5.6530   10.1410 C.2    29  VAL29       0.2592
      4  O         28.7390    5.2920   10.8360 O.2    29  VAL29      -0.2718
      5  CB        28.2400    5.7710    7.5960 C.3    29  VAL29       0.0266
      6  CG1       27.7330    7.2240    7.5150 C.3    29  VAL29       0.0020
      7  CG2       29.7690    5.7150    7.7220 C.3    29  VAL29       0.0020
      8  N         26.9270    6.5760   10.5510 N.am   30  THR30      -0.1953
      9  CA        27.0860    7.1810   11.8850 C.3    30  THR30       0.1897
     10  C         27.0420    6.1380   12.9910 C.2    30  THR30       0.2313
     11  O         27.8190    6.2000   13.9250 O.2    30  THR30      -0.2863
     12  CB        26.0150    8.2470   12.1880 C.3    30  THR30       0.1794
     13  OG1       26.1130    9.2860   11.2190 O.3    30  THR30      -0.2208
     14  CG2       26.2310    8.8550   13.5740 C.3    30  THR30       0.0378
     15  N         29.1830    6.9010    3.8720 N.3    48  THR48      -0.1203
     16  CA        28.7250    8.2730    3.5760 C.3    48  THR48       0.1994
     17  C         28.2140    8.3820    2.1310 C.2    48  THR48       0.2619
     18  O         28.3380    7.4350    1.3660 O.2    48  THR48      -0.2717
     19  CB        29.8660    9.2700    3.7350 C.3    48  THR48       0.1784
     20  OG1       30.8730    8.9600    2.7580 O.3    48  THR48      -0.2211
     21  CG2       30.4610    9.1850    5.1400 C.3    48  THR48       0.0376
     22  N         27.6450    9.5320    1.7600 N.am   49  THR49      -0.1938
     23  CA        27.1830    9.7260    0.3780 C.3    49  THR49       0.2028
     24  C         28.3650    9.6340   -0.5910 C.2    49  THR49       0.2642
     25  O         28.1920    9.3030   -1.7750 O.2    49  THR49      -0.2714
     26  CB        26.4610   11.0810    0.1810 C.3    49  THR49       0.1808
     27  OG1       27.3750   12.1510    0.4300 O.3    49  THR49      -0.2208
     28  CG2       25.2760   11.2140    1.1150 C.3    49  THR49       0.0379
     29  N         29.5610    9.9170   -0.0760 N.am   50  GLN50      -0.1976
     30  CA        30.8050    9.8450   -0.8460 C.3    50  GLN50       0.1601
     31  C         31.4950    8.4700   -0.8060 C.2    50  GLN50       0.2287
     32  O         32.6580    8.3320   -1.1810 O.2    50  GLN50      -0.2864
     33  CB        31.7770   10.9330   -0.3780 C.3    50  GLN50       0.0394
     34  CG        31.2150   12.3600   -0.4500 C.3    50  GLN50       0.0908
     35  CD        30.4200   12.7490    0.7850 C.2    50  GLN50       0.2608
     36  OE1       30.5520   12.1350    1.8550 O.2    50  GLN50      -0.2717
     37  NE2       29.5830   13.7770    0.6470 N.am   50  GLN50      -0.0878
     38  N         32.5130    6.5890    1.7350 N.3    52  THR52      -0.1218
     39  CA        33.6050    6.4230    2.6760 C.3    52  THR52       0.1862
     40  C         33.1030    5.9920    4.0500 C.2    52  THR52       0.2287
     41  O         31.9450    6.2310    4.4020 O.2    52  THR52      -0.2866
     42  CB        34.4120    7.7160    2.8510 C.3    52  THR52       0.1770
     43  OG1       33.5630    8.7590    3.3520 O.3    52  THR52      -0.2211
     44  CG2       35.0240    8.1470    1.5050 C.3    52  THR52       0.0375
     45  N         33.9570    6.6740    8.1270 N.3    54  PHE54      -0.1241
     46  CA        34.5750    7.7710    8.8880 C.3    54  PHE54       0.1605
     47  C         36.0000    7.4220    9.2700 C.2    54  PHE54       0.2264
     48  O         36.2690    6.3050    9.7350 O.2    54  PHE54      -0.2867
     49  CB        33.7640    8.1580   10.1350 C.3    54  PHE54       0.0534
     50  CG        32.4480    8.8200    9.8330 C.ar   54  PHE54      -0.0203
     51  CD1       32.3670    9.8640    8.9170 C.ar   54  PHE54      -0.0042
     52  CD2       31.2890    8.4030   10.4610 C.ar   54  PHE54      -0.0042
     53  CE1       31.1470   10.4760    8.6510 C.ar   54  PHE54      -0.0003
     54  CE2       30.0670    9.0200   10.2080 C.ar   54  PHE54      -0.0003
     55  CZ        29.9970   10.0390    9.2870 C.ar   54  PHE54      -0.0000
     56  N         25.2490    6.1490    1.4240 N.3    72  ALA72      -0.1245
     57  CA        23.9720    6.6580    1.9080 C.3    72  ALA72       0.1562
     58  C         23.0490    7.1040    0.7830 C.2    72  ALA72       0.2260
     59  O         23.4610    7.8350   -0.1210 O.2    72  ALA72      -0.2867
     60  CB        24.2100    7.8070    2.8730 C.3    72  ALA72       0.0290
     61  N         17.1940    9.9430   11.5530 N.3    93  ILE93      -0.1231
     62  CA        17.3380   11.2100   10.8220 C.3    93  ILE93       0.1692
     63  C         18.7970   11.4990   10.5130 C.2    93  ILE93       0.2593
     64  O         19.6790   11.2550   11.3460 O.2    93  ILE93      -0.2718
     65  CB        16.7140   12.3940   11.6010 C.3    93  ILE93       0.0266
     66  CG1       16.8630   13.7060   10.8300 C.3    93  ILE93       0.0019
     67  CG2       17.3530   12.5060   12.9890 C.3    93  ILE93       0.0020
     68  CD1       15.9460   14.8340   11.3590 C.3    93  ILE93       0.0001
     69  N         19.0480   12.0310    9.3170 N.am   94  GLY94      -0.1942
     70  CA        20.4140   12.2740    8.8670 C.3    94  GLY94       0.2014
     71  C         20.5500   11.7660    7.4440 C.2    94  GLY94       0.2639
     72  O         19.6860   11.0250    6.9580 O.2    94  GLY94      -0.2714
     73  N         21.6230   12.1510    6.7660 N.am   95  ALA95      -0.1963
     74  CA        21.8110   11.7040    5.3780 C.3    95  ALA95       0.1728
     75  C         21.8730   10.1740    5.2380 C.2    95  ALA95       0.2616
     76  O         21.5930    9.6260    4.1540 O.2    95  ALA95      -0.2715
     77  CB        23.0600   12.3490    4.7610 C.3    95  ALA95       0.0334
     78  N         22.2500    9.5030    6.3240 N.am   96  ASP96      -0.1971
     79  CA        22.4250    8.0430    6.3470 C.3    96  ASP96       0.1709
     80  C         21.1710    7.2890    6.8070 C.2    96  ASP96       0.2293
     81  O         21.2120    6.0790    7.0110 O.2    96  ASP96      -0.2864
     82  CB        23.6470    7.6440    7.2080 C.3    96  ASP96       0.1436
     83  CG        23.5510    8.1100    8.6450 C.2    96  ASP96       0.3671
     84  OD1       22.4980    8.6150    9.0580 O.co2  96  ASP96      -0.2456
     85  OD2       24.5600    7.9630    9.3540 O.co2  96  ASP96      -0.2456
     86  N         20.4710    8.9340   16.6420 N.3   116  TYR116     -0.1241
     87  CA        21.7360    9.3430   17.2240 C.3   116  TYR116      0.1605
     88  C         21.8330   10.8520   17.4110 C.2   116  TYR116      0.2264
     89  O         22.8180   11.3480   17.9640 O.2   116  TYR116     -0.2867
     90  CB        22.9090    8.8450   16.3860 C.3   116  TYR116      0.0534
     91  CG        22.8670    9.3020   14.9410 C.ar  116  TYR116     -0.0201
     92  CD1       23.0150   10.6460   14.6040 C.ar  116  TYR116     -0.0009
     93  CD2       22.7120    8.3830   13.9070 C.ar  116  TYR116     -0.0009
     94  CE1       22.9940   11.0700   13.2720 C.ar  116  TYR116      0.0417
     95  CE2       22.6850    8.7870   12.5850 C.ar  116  TYR116      0.0417
     96  CZ        22.8320   10.1320   12.2520 C.ar  116  TYR116      0.1957
     97  OH        22.8170   10.5090   10.9160 O.3   116  TYR116     -0.2866
     98  N         29.2340   24.2880   12.7940 N.3   167  SER167     -0.1217
     99  CA        29.5040   23.7120   11.4750 C.3   167  SER167      0.1889
    100  C         29.4560   24.8530   10.4670 C.2   167  SER167      0.2288
    101  O         28.3990   25.3980   10.1750 O.2   167  SER167     -0.2866
    102  CB        28.4700   22.6430   11.1390 C.3   167  SER167      0.2089
    103  OG        28.7580   22.0530    9.8760 O.3   167  SER167     -0.2183
    104  N         30.1070   26.8760    6.8790 N.3   169  HIS169     -0.1241
    105  CA        30.1570   26.7710    5.4220 C.3   169  HIS169      0.1621
    106  C         30.2470   28.1140    4.7220 C.2   169  HIS169      0.2264
    107  O         30.1610   28.1640    3.5080 O.2   169  HIS169     -0.2867
    108  CB        28.9630   25.9910    4.8880 C.3   169  HIS169      0.0745
    109  CG        28.9110   24.5870    5.3870 C.ar  169  HIS169      0.0817
    110  ND1       29.7700   23.6080    4.9390 N.ar  169  HIS169     -0.2268
    111  CD2       28.1340   24.0070    6.3290 C.ar  169  HIS169      0.1154
    112  CE1       29.5160   22.4790    5.5780 C.ar  169  HIS169      0.1986
    113  NE2       28.5280   22.6950    6.4260 N.ar  169  HIS169     -0.2212
    114  N         25.1160   30.7560    2.7560 N.3   173  VAL173     -0.1231
    115  CA        24.6940   29.3760    2.8940 C.3   173  VAL173      0.1692
    116  C         24.2330   29.1350    4.3210 C.2   173  VAL173      0.2592
    117  O         24.6180   29.8520    5.2470 O.2   173  VAL173     -0.2718
    118  CB        25.8200   28.3990    2.5240 C.3   173  VAL173      0.0266
    119  CG1       26.9210   28.4480    3.5570 C.3   173  VAL173      0.0020
    120  CG2       25.2720   26.9900    2.3820 C.3   173  VAL173      0.0020
    121  N         23.3590   28.1490    4.4760 N.am  174  VAL174     -0.1966
    122  CA        22.8790   27.7990    5.7990 C.3   174  VAL174      0.1727
    123  C         24.0340   27.1650    6.5690 C.2   174  VAL174      0.2616
    124  O         24.6770   26.2350    6.0870 O.2   174  VAL174     -0.2715
    125  CB        21.6680   26.8340    5.7210 C.3   174  VAL174      0.0290
    126  CG1       21.4240   26.1540    7.0770 C.3   174  VAL174      0.0023
    127  CG2       20.4330   27.5910    5.2360 C.3   174  VAL174      0.0023
    128  N         24.3090   27.6800    7.7680 N.am  175  ASN175     -0.1958
    129  CA        25.3430   27.1340    8.6400 C.3   175  ASN175      0.1819
    130  C         24.6610   26.4330    9.8120 C.2   175  ASN175      0.2621
    131  O         23.4290   26.3840    9.8840 O.2   175  ASN175     -0.2715
    132  CB        26.2470   28.2610    9.1600 C.3   175  ASN175      0.1195
    133  CG        27.2260   28.7880    8.0930 C.2   175  ASN175      0.2630
    134  OD1       28.4440   28.6540    8.2540 O.2   175  ASN175     -0.2716
    135  ND2       26.7030   29.3760    7.0010 N.am  175  ASN175     -0.0877
    136  N         25.4220   25.9280   10.7700 N.am  176  ALA176     -0.1977
    137  CA        24.7620   25.2290   11.8760 C.3   176  ALA176      0.1597
    138  C         25.5120   25.3500   13.1860 C.2   176  ALA176      0.2287
    139  O         26.7340   25.5230   13.2000 O.2   176  ALA176     -0.2864
    140  CB        24.5090   23.7620   11.5290 C.3   176  ALA176      0.0319
    141  N         12.4790   22.1030    8.5310 N.3   207  ILE207     -0.1245
    142  CA        12.9760   20.8210    9.0430 C.3   207  ILE207      0.1561
    143  C         13.5680   20.9380   10.4490 C.2   207  ILE207      0.2260
    144  O         14.4700   21.7490   10.6880 O.2   207  ILE207     -0.2867
    145  CB        14.0540   20.2210    8.1280 C.3   207  ILE207      0.0252
    146  CG1       13.5640   20.1390    6.6740 C.3   207  ILE207      0.0019
    147  CG2       14.4690   18.8490    8.6290 C.3   207  ILE207      0.0019
    148  CD1       12.3520   19.2480    6.4730 C.3   207  ILE207      0.0001
    149  N         15.7820   19.7570   13.5710 N.3   209  HIS209     -0.1241
    150  CA        16.9620   18.9780   13.9170 C.3   209  HIS209      0.1621
    151  C         17.2660   19.1140   15.3960 C.2   209  HIS209      0.2264
    152  O         17.1780   20.2140   15.9550 O.2   209  HIS209     -0.2867
    153  CB        18.1790   19.4620   13.1400 C.3   209  HIS209      0.0745
    154  CG        18.0670   19.2860   11.6640 C.ar  209  HIS209      0.0817
    155  ND1       18.3330   18.0890   11.0320 N.ar  209  HIS209     -0.2268
    156  CD2       17.7630   20.1730   10.6920 C.ar  209  HIS209      0.1154
    157  CE1       18.1940   18.2530    9.7250 C.ar  209  HIS209      0.1986
    158  NE2       17.8400   19.5050    9.4960 N.ar  209  HIS209     -0.2212
    159  N         20.2680   17.8430   16.7740 N.3   211  ASP211     -0.1225
    160  CA        21.7200   17.8460   16.9730 C.3   211  ASP211      0.1805
    161  C         22.3500   19.2300   16.7870 C.2   211  ASP211      0.2597
    162  O         22.9430   19.7920   17.7220 O.2   211  ASP211     -0.2718
    163  CB        22.4200   16.7680   16.0940 C.3   211  ASP211      0.1424
    164  CG        22.1420   16.8910   14.5770 C.2   211  ASP211      0.3668
    165  OD1       21.1370   17.4970   14.1560 O.co2 211  ASP211     -0.2456
    166  OD2       22.9470   16.3290   13.8040 O.co2 211  ASP211     -0.2456
    167  N         22.2160   19.7630   15.5740 N.am  212  PHE212     -0.1976
    168  CA        22.6690   21.1150   15.2770 C.3   212  PHE212      0.1639
    169  C         21.4950   21.9090   14.7450 C.2   212  PHE212      0.2290
    170  O         20.7470   21.4200   13.8900 O.2   212  PHE212     -0.2864
    171  CB        23.7760   21.1080   14.2060 C.3   212  PHE212      0.0560
    172  CG        25.1400   20.6980   14.7190 C.ar  212  PHE212     -0.0200
    173  CD1       26.1830   21.6070   14.7610 C.ar  212  PHE212     -0.0042
    174  CD2       25.3700   19.4020   15.1550 C.ar  212  PHE212     -0.0042
    175  CE1       27.4390   21.2200   15.2240 C.ar  212  PHE212     -0.0003
    176  CE2       26.6240   19.0180   15.6260 C.ar  212  PHE212     -0.0003
    177  CZ        27.6500   19.9400   15.6710 C.ar  212  PHE212     -0.0000
    178  N         20.1590   24.3780   12.2830 N.3   214  ARG214     -0.1245
    179  CA        20.5150   24.9590   10.9980 C.3   214  ARG214      0.1563
    180  C         19.9920   26.3900   10.9520 C.2   214  ARG214      0.2260
    181  O         18.8280   26.6360   11.2770 O.2   214  ARG214     -0.2867
    182  CB        19.9350   24.1240    9.8590 C.3   214  ARG214      0.0307
    183  CG        20.8070   22.9650    9.4390 C.3   214  ARG214      0.0489
    184  CD        21.0320   21.9510   10.5290 C.3   214  ARG214      0.2205
    185  NE        21.4440   20.6920    9.9150 N.pl3 214  ARG214     -0.0865
    186  CZ        21.5990   19.5470   10.5620 C.cat 214  ARG214      0.5346
    187  NH1       21.4330   19.4830   11.8800 N.pl3 214  ARG214      0.1354
    188  NH2       21.9660   18.4640    9.8810 N.pl3 214  ARG214      0.1354
    189  N         33.5130   22.0720   13.9370 N.3   231  ILE231     -0.1231
    190  CA        33.5470   20.6540   13.6010 C.3   231  ILE231      0.1692
    191  C         34.1890   20.4130   12.2450 C.2   231  ILE231      0.2592
    192  O         34.1630   21.2930   11.3840 O.2   231  ILE231     -0.2718
    193  CB        32.1570   19.9740   13.6940 C.3   231  ILE231      0.0266
    194  CG1       31.1910   20.4620   12.6110 C.3   231  ILE231      0.0019
    195  CG2       31.6000   20.1340   15.1060 C.3   231  ILE231      0.0020
    196  CD1       29.9550   19.5620   12.5060 C.3   231  ILE231      0.0001
    197  N         34.7910   19.2280   12.1140 N.am  232  THR232     -0.1953
    198  CA        35.3670   18.7740   10.8430 C.3   232  THR232      0.1897
    199  C         36.5910   19.5820   10.4040 C.2   232  THR232      0.2313
    200  O         37.0010   19.5120    9.2460 O.2   232  THR232     -0.2863
    201  CB        34.3170   18.8170    9.7120 C.3   232  THR232      0.1794
    202  OG1       33.0200   18.5620   10.2550 O.3   232  THR232     -0.2208
    203  CG2       34.6300   17.7810    8.6330 C.3   232  THR232      0.0378
    204  N         33.3680   15.3040   12.7700 N.3   266  PHE266     -0.1227
    205  CA        32.0360   15.5030   12.2010 C.3   266  PHE266      0.1736
    206  C         30.9440   14.7790   13.0190 C.2   266  PHE266      0.2595
    207  O         29.9720   15.4060   13.4460 O.2   266  PHE266     -0.2718
    208  CB        31.9690   15.1260   10.7090 C.3   266  PHE266      0.0547
    209  CG        30.6120   15.3170   10.1280 C.ar  266  PHE266     -0.0202
    210  CD1       30.0950   16.6020    9.9680 C.ar  266  PHE266     -0.0042
    211  CD2       29.8370   14.2320    9.7870 C.ar  266  PHE266     -0.0042
    212  CE1       28.8270   16.8070    9.4680 C.ar  266  PHE266     -0.0003
    213  CE2       28.5560   14.4250    9.2850 C.ar  266  PHE266     -0.0003
    214  CZ        28.0530   15.7210    9.1300 C.ar  266  PHE266     -0.0000
    215  N         31.1150   13.4820   13.2420 N.am  267  ARG267     -0.1980
    216  CA        30.2080   12.7230   14.1100 C.3   267  ARG267      0.1597
    217  C         30.9880   12.2430   15.3180 C.2   267  ARG267      0.2287
    218  O         32.2160   12.0280   15.2280 O.2   267  ARG267     -0.2864
    219  CB        29.6260   11.5220   13.3630 C.3   267  ARG267      0.0334
    220  CG        28.5480   11.8460   12.3320 C.3   267  ARG267      0.0492
    221  CD        27.2850   12.3690   12.9550 C.3   267  ARG267      0.2205
    222  NE        26.1010   12.1910   12.1070 N.pl3 267  ARG267     -0.0865
    223  CZ        25.5270   13.1500   11.3870 C.cat 267  ARG267      0.5346
    224  NH1       26.0080   14.3900   11.3930 N.pl3 267  ARG267      0.1354
    225  NH2       24.4430   12.8780   10.6700 N.pl3 267  ARG267      0.1354
@<TRIPOS>BOND
     1    25    24    2
     2    32    31    2
     3    30    31    1
     4    30    33    1
     5    30    29    1
     6    24    29   am
     7    24    23    1
     8    34    33    1
     9    34    35    1
    10    59    58    2
    11    26    23    1
    12    26    27    1
    13    26    28    1
    14    23    22    1
    15    37    35   am
    16    58    57    1
    17    35    36    2
    18    18    17    2
    19    56    57    1
    20    44    42    1
    21    38    39    1
    22    22    17   am
    23    57    60    1
    24    17    16    1
    25   120   118    1
    26   118   115    1
    27   118   119    1
    28    39    42    1
    29    39    40    1
    30   114   115    1
    31    20    19    1
    32    42    43    1
    33   115   116    1
    34   107   106    2
    35    16    19    1
    36    16    15    1
    37    19    21    1
    38    40    41    2
    39    76    75    2
    40   116   121   am
    41   116   117    2
    42   121   122    1
    43   106   105    1
    44    77    74    1
    45   108   109    1
    46   108   105    1
    47   110   109   ar
    48   110   112   ar
    49   127   125    1
    50    75    74    1
    51    75    78   am
    52    74    73    1
    53   109   111   ar
    54   105   104    1
    55   112   113   ar
    56   125   122    1
    57   125   126    1
    58   122   123    1
    59   124   123    2
    60    78    79    1
    61   111   113   ar
    62    79    80    1
    63    79    82    1
    64   148   146    1
    65   123   128   am
    66   146   145    1
    67    73    71   am
    68    80    81    2
    69    72    71    2
    70   135   133   am
    71    82    83    1
    72    71    70    1
    73     6     5    1
    74     5     7    1
    75     5     2    1
    76   128   129    1
    77   133   134    2
    78   133   132    1
    79    45    46    1
    80   145   147    1
    81   145   142    1
    82     1     2    1
    83   141   142    1
    84   203   201    1
    85   129   132    1
    86   129   130    1
    87    83    84   ar
    88    83    85   ar
    89    53    51   ar
    90    53    55   ar
    91     2     3    1
    92    70    69    1
    93    46    47    1
    94    46    49    1
    95    51    50   ar
    96   142   143    1
    97   214   213   ar
    98   214   212   ar
    99   200   199    2
   100    47    48    2
   101   213   211   ar
   102    55    54   ar
   103    69    63   am
   104   183   182    1
   105   183   184    1
   106   212   210   ar
   107   158   157   ar
   108   158   156   ar
   109   201   202    1
   110   201   198    1
   111   157   155   ar
   112   211   209   ar
   113   130   131    2
   114   130   136   am
   115    50    49    1
   116    50    52   ar
   117   182   179    1
   118   103   102    1
   119   188   186    1
   120   185   184    1
   121   185   186    2
   122   210   209   ar
   123   209   208    1
   124     3     8   am
   125     3     4    2
   126   101   100    2
   127    54    52   ar
   128   199   198    1
   129   143   144    2
   130   100    99    1
   131    63    62    1
   132    63    64    2
   133     8     9    1
   134   186   187    1
   135   225   223    1
   136   156   154   ar
   137   208   205    1
   138   136   137    1
   139    62    61    1
   140    62    65    1
   141    66    68    1
   142    66    65    1
   143   198   197    1
   144    97    96    1
   145   180   179    1
   146   180   181    2
   147   179   178    1
   148   155   154   ar
   149   102    99    1
   150    13    12    1
   151   192   191    2
   152   223   224    1
   153   223   222    2
   154    99    98    1
   155   140   137    1
   156    65    67    1
   157   154   153    1
   158   137   138    1
   159     9    12    1
   160     9    10    1
   161   222   221    1
   162   197   191   am
   163    12    14    1
   164   205   204    1
   165   205   206    1
   166   191   190    1
   167    96    95   ar
   168    96    94   ar
   169   220   221    1
   170   220   219    1
   171   196   194    1
   172    95    93   ar
   173   194   193    1
   174    10    11    2
   175   206   215   am
   176   206   207    2
   177   153   150    1
   178   138   139    2
   179   215   216    1
   180    94    92   ar
   181   219   216    1
   182   149   150    1
   183   190   193    1
   184   190   189    1
   185   193   195    1
   186   166   164   ar
   187   170   169    2
   188    93    91   ar
   189   150   151    1
   190   216   217    1
   191   165   164   ar
   192   171   172    1
   193   171   168    1
   194   164   163    1
   195    92    91   ar
   196   172   173   ar
   197   172   174   ar
   198   169   168    1
   199   173   175   ar
   200    91    90    1
   201   174   176   ar
   202   175   177   ar
   203   218   217    2
   204   168   167    1
   205   151   152    2
   206   167   161   am
   207   176   177   ar
   208   163   160    1
   209    90    87    1
   210    86    87    1
   211   159   160    1
   212   161   160    1
   213   161   162    2
   214    87    88    1
   215    88    89    2
