@<TRIPOS>MOLECULE
tmp/3r5xD00.pdb
 181 170 0 0 0
SMALL
GASTEIGER

@<TRIPOS>ATOM
      1  N         60.1360   75.2100   46.1860 N.3    58  HIS58      -0.1241
      2  CA        59.3710   75.5920   47.3620 C.3    58  HIS58       0.1621
      3  C         57.8700   75.4720   47.0960 C.2    58  HIS58       0.2264
      4  O         57.4190   75.7300   45.9840 O.2    58  HIS58      -0.2867
      5  CB        59.6990   77.0240   47.7610 C.3    58  HIS58       0.0745
      6  CG        59.1740   77.4070   49.1060 C.ar   58  HIS58       0.0817
      7  ND1       58.1090   78.2630   49.2760 N.ar   58  HIS58      -0.2268
      8  CD2       59.5810   77.0580   50.3560 C.ar   58  HIS58       0.1154
      9  CE1       57.8840   78.4380   50.5700 C.ar   58  HIS58       0.1986
     10  NE2       58.7630   77.7130   51.2440 N.ar   58  HIS58      -0.2212
     11  N         56.5910   69.6520   46.5250 N.3    63  GLU63      -0.1245
     12  CA        56.0950   68.6980   47.5360 C.3    63  GLU63       0.1567
     13  C         55.2360   67.5170   47.0480 C.2    63  GLU63       0.2260
     14  O         55.1240   66.5020   47.7420 O.2    63  GLU63      -0.2867
     15  CB        55.3080   69.4510   48.6180 C.3    63  GLU63       0.0388
     16  CG        56.1900   70.3910   49.4380 C.3    63  GLU63       0.1160
     17  CD        55.3760   71.4450   50.1940 C.2    63  GLU63       0.3649
     18  OE1       54.1560   71.5320   49.9420 O.co2  63  GLU63      -0.2457
     19  OE2       55.9730   72.1880   51.0080 O.co2  63  GLU63      -0.2457
     20  N         47.7080   66.4570   54.2610 N.3    90  LYS90      -0.1245
     21  CA        47.6770   66.5860   55.7120 C.3    90  LYS90       0.1561
     22  C         46.8240   65.4890   56.3420 C.2    90  LYS90       0.2260
     23  O         47.1530   64.9590   57.4110 O.2    90  LYS90      -0.2867
     24  CB        47.1580   67.9680   56.1280 C.3    90  LYS90       0.0271
     25  CG        48.1030   69.1110   55.7300 C.3    90  LYS90       0.0035
     26  CD        47.4700   70.4950   56.0110 C.3    90  LYS90       0.0206
     27  CE        48.2700   71.6430   55.3730 C.3    90  LYS90       0.1093
     28  NZ        49.7390   71.5580   55.7260 N.3    90  LYS90      -0.1314
     29  N         46.4740   67.0370   66.4370 N.3   105  PRO105     -0.2116
     30  CA        45.1510   67.5400   66.8350 C.3   105  PRO105      0.1372
     31  C         44.0110   66.7520   66.1890 C.2   105  PRO105      0.2244
     32  O         44.1060   66.3580   65.0230 O.2   105  PRO105     -0.2868
     33  CB        45.1490   68.9970   66.3300 C.3   105  PRO105      0.0268
     34  CG        46.6200   69.3560   66.1500 C.3   105  PRO105      0.0207
     35  CD        47.2750   68.0490   65.7260 C.3   105  PRO105      0.0892
     36  N         40.4050   75.2030   63.3550 N.3   128  VAL128     -0.1245
     37  CA        41.3040   75.7120   62.3370 C.3   128  VAL128      0.1561
     38  C         40.9580   75.0040   61.0270 C.2   128  VAL128      0.2260
     39  O         40.8680   73.7830   60.9960 O.2   128  VAL128     -0.2867
     40  CB        42.7410   75.3840   62.7360 C.3   128  VAL128      0.0252
     41  CG1       43.7140   75.8290   61.6860 C.3   128  VAL128      0.0019
     42  CG2       43.0460   76.0460   64.0720 C.3   128  VAL128      0.0019
     43  N         42.1000   74.1900   57.2120 N.3   130  LYS130     -0.1245
     44  CA        43.2920   74.1560   56.3500 C.3   130  LYS130      0.1561
     45  C         43.0730   73.3610   55.0610 C.2   130  LYS130      0.2260
     46  O         42.5010   72.2640   55.0890 O.2   130  LYS130     -0.2867
     47  CB        44.4240   73.4560   57.1110 C.3   130  LYS130      0.0271
     48  CG        44.4830   73.8130   58.5730 C.3   130  LYS130      0.0035
     49  CD        45.9430   73.9010   59.0310 C.3   130  LYS130      0.0206
     50  CE        46.2880   72.7510   59.8970 C.3   130  LYS130      0.1093
     51  NZ        47.6030   72.8850   60.5380 N.3   130  LYS130     -0.1314
     52  N         47.7030   71.8620   51.3790 N.3   134  GLY134     -0.1210
     53  CA        48.5640   72.9680   51.8090 C.3   134  GLY134      0.1956
     54  C         48.6860   74.0670   50.7620 C.2   134  GLY134      0.2612
     55  O         47.6750   74.5230   50.2120 O.2   134  GLY134     -0.2717
     56  N         49.9090   74.4980   50.4670 N.am  135  GLY135     -0.1956
     57  CA        50.0870   75.5810   49.5190 C.3   135  GLY135      0.1869
     58  C         49.9700   76.9540   50.1640 C.2   135  GLY135      0.2309
     59  O         49.6780   77.0680   51.3520 O.2   135  GLY135     -0.2863
     60  N         45.7320   79.6680   56.8960 N.3   140  VAL140     -0.1245
     61  CA        44.8690   79.0330   57.8700 C.3   140  VAL140      0.1561
     62  C         44.2140   80.0710   58.7720 C.2   140  VAL140      0.2260
     63  O         44.8580   81.0150   59.2360 O.2   140  VAL140     -0.2867
     64  CB        45.5710   77.9250   58.6780 C.3   140  VAL140      0.0252
     65  CG1       46.9170   77.6260   58.1050 C.3   140  VAL140      0.0019
     66  CG2       45.6260   78.2700   60.1490 C.3   140  VAL140      0.0019
     67  N         41.4950   80.7900   62.1350 N.3   142  ILE142     -0.1245
     68  CA        40.8560   80.2540   63.3230 C.3   142  ILE142      0.1561
     69  C         39.4000   80.6770   63.2360 C.2   142  ILE142      0.2260
     70  O         39.1290   81.8410   62.9330 O.2   142  ILE142     -0.2867
     71  CB        41.4470   80.8790   64.5950 C.3   142  ILE142      0.0252
     72  CG1       42.9600   81.1110   64.4550 C.3   142  ILE142      0.0019
     73  CG2       40.9990   80.1000   65.8530 C.3   142  ILE142      0.0019
     74  CD1       43.8580   80.2030   65.3080 C.3   142  ILE142      0.0001
     75  N         40.6530   71.1200   62.0530 N.3   165  GLU165     -0.1231
     76  CA        41.4420   70.6440   63.1670 C.3   165  GLU165      0.1699
     77  C         41.0660   71.4040   64.4550 C.2   165  GLU165      0.2592
     78  O         40.7010   72.5690   64.3990 O.2   165  GLU165     -0.2718
     79  CB        42.8940   70.9310   62.8020 C.3   165  GLU165      0.0402
     80  CG        43.9060   70.0830   63.4420 C.3   165  GLU165      0.1161
     81  CD        45.2740   70.3180   62.8240 C.2   165  GLU165      0.3649
     82  OE1       45.6470   71.5010   62.6450 O.co2 165  GLU165     -0.2457
     83  OE2       45.9610   69.3240   62.5060 O.co2 165  GLU165     -0.2457
     84  N         41.1490   70.7270   65.5980 N.am  166  LYS166     -0.1966
     85  CA        40.9500   71.3500   66.9000 C.3   166  LYS166      0.1728
     86  C         42.0340   72.4060   67.0850 C.2   166  LYS166      0.2616
     87  O         43.2020   72.1470   66.8260 O.2   166  LYS166     -0.2715
     88  CB        41.1350   70.3210   68.0130 C.3   166  LYS166      0.0311
     89  CG        39.8640   69.8010   68.6560 C.3   166  LYS166      0.0038
     90  CD        40.2170   68.8060   69.7550 C.3   166  LYS166      0.0206
     91  CE        39.0260   68.4580   70.6390 C.3   166  LYS166      0.1093
     92  NZ        39.4850   67.7320   71.8620 N.3   166  LYS166     -0.1314
     93  N         41.6410   73.5800   67.5510 N.am  167  TYR167     -0.1960
     94  CA        42.5690   74.6630   67.8500 C.3   167  TYR167      0.1771
     95  C         43.4030   74.3080   69.0840 C.2   167  TYR167      0.2619
     96  O         42.8630   74.0040   70.1410 O.2   167  TYR167     -0.2715
     97  CB        41.7730   75.9490   68.1210 C.3   167  TYR167      0.0574
     98  CG        42.6300   77.0940   68.5810 C.ar  167  TYR167     -0.0198
     99  CD1       43.6040   77.6210   67.7560 C.ar  167  TYR167     -0.0009
    100  CD2       42.4570   77.6630   69.8600 C.ar  167  TYR167     -0.0009
    101  CE1       44.4120   78.6700   68.1790 C.ar  167  TYR167      0.0417
    102  CE2       43.2410   78.7090   70.2790 C.ar  167  TYR167      0.0417
    103  CZ        44.2180   79.2140   69.4350 C.ar  167  TYR167      0.1957
    104  OH        45.0190   80.2580   69.8450 O.3   167  TYR167     -0.2866
    105  N         44.7210   74.3100   68.9320 N.am  168  ILE168     -0.1977
    106  CA        45.6090   74.0810   70.0630 C.3   168  ILE168      0.1596
    107  C         46.2290   75.4060   70.5230 C.2   168  ILE168      0.2287
    108  O         47.0220   76.0160   69.7950 O.2   168  ILE168     -0.2864
    109  CB        46.7560   73.1230   69.6940 C.3   168  ILE168      0.0276
    110  CG1       46.2110   71.8020   69.1250 C.3   168  ILE168      0.0022
    111  CG2       47.6730   72.8990   70.8930 C.3   168  ILE168      0.0022
    112  CD1       45.2800   71.0450   70.0500 C.3   168  ILE168      0.0001
    113  N         54.6270   77.5470   69.8990 N.3   172  GLU172     -0.1245
    114  CA        54.9480   76.9250   68.6220 C.3   172  GLU172      0.1567
    115  C         56.4280   76.6480   68.6510 C.2   172  GLU172      0.2260
    116  O         57.2130   77.5110   69.0380 O.2   172  GLU172     -0.2867
    117  CB        54.6320   77.8500   67.4530 C.3   172  GLU172      0.0388
    118  CG        53.2000   78.3410   67.4130 C.3   172  GLU172      0.1160
    119  CD        52.6730   78.4750   66.0060 C.2   172  GLU172      0.3649
    120  OE1       52.9590   77.5700   65.1780 O.co2 172  GLU172     -0.2457
    121  OE2       51.9780   79.4750   65.7280 O.co2 172  GLU172     -0.2457
    122  N         54.9250   84.8530   67.9390 N.3   190  HIS190     -0.1241
    123  CA        54.2820   85.9250   67.2130 C.3   190  HIS190      0.1621
    124  C         54.0290   87.1510   68.0530 C.2   190  HIS190      0.2264
    125  O         53.8600   88.2550   67.5090 O.2   190  HIS190     -0.2867
    126  CB        52.9540   85.4430   66.6390 C.3   190  HIS190      0.0745
    127  CG        53.1290   84.5060   65.4860 C.ar  190  HIS190      0.0817
    128  ND1       53.8530   84.8450   64.3660 N.ar  190  HIS190     -0.2268
    129  CD2       52.6980   83.2380   65.2950 C.ar  190  HIS190      0.1154
    130  CE1       53.8320   83.8290   63.5130 C.ar  190  HIS190      0.1986
    131  NE2       53.1620   82.8390   64.0630 N.ar  190  HIS190     -0.2212
    132  N         61.4040   69.0040   58.3550 N.3   239  ARG239     -0.1245
    133  CA        61.1190   69.8980   59.4770 C.3   239  ARG239      0.1563
    134  C         59.7180   69.5730   60.0420 C.2   239  ARG239      0.2260
    135  O         58.7150   69.6410   59.3300 O.2   239  ARG239     -0.2867
    136  CB        61.2270   71.3590   59.0300 C.3   239  ARG239      0.0307
    137  CG        61.2040   72.3910   60.1650 C.3   239  ARG239      0.0489
    138  CD        61.0010   73.8230   59.6070 C.3   239  ARG239      0.2205
    139  NE        59.5830   74.0990   59.3630 N.pl3 239  ARG239     -0.0865
    140  CZ        59.1250   74.9520   58.4500 C.cat 239  ARG239      0.5346
    141  NH1       57.8100   75.1630   58.3390 N.pl3 239  ARG239      0.1354
    142  NH2       59.9830   75.5670   57.6320 N.pl3 239  ARG239      0.1354
    143  N         56.7060   70.6230   62.4350 N.3   241  ASP241     -0.1239
    144  CA        56.1060   71.7960   63.0710 C.3   241  ASP241      0.1674
    145  C         55.1390   71.3680   64.1690 C.2   241  ASP241      0.2266
    146  O         54.3030   70.4820   63.9520 O.2   241  ASP241     -0.2867
    147  CB        55.3320   72.6370   62.0540 C.3   241  ASP241      0.1410
    148  CG        56.2300   73.2260   60.9890 C.2   241  ASP241      0.3668
    149  OD1       57.4630   73.0970   61.0900 O.co2 241  ASP241     -0.2456
    150  OD2       55.7020   73.8480   60.0620 O.co2 241  ASP241     -0.2456
    151  N         52.3330   68.9730   61.1740 N.3   250  GLU250     -0.1231
    152  CA        52.7420   68.4720   59.8730 C.3   250  GLU250      0.1699
    153  C         54.2150   68.2200   59.7750 C.2   250  GLU250      0.2592
    154  O         55.0170   68.7100   60.5850 O.2   250  GLU250     -0.2718
    155  CB        52.4210   69.4970   58.8110 C.3   250  GLU250      0.0402
    156  CG        53.1950   70.7620   59.0410 C.3   250  GLU250      0.1161
    157  CD        53.2260   71.6520   57.8260 C.2   250  GLU250      0.3649
    158  OE1       52.7150   71.2380   56.7770 O.co2 250  GLU250     -0.2457
    159  OE2       53.7960   72.7570   57.9020 O.co2 250  GLU250     -0.2457
    160  N         54.5690   67.4610   58.7450 N.am  251  VAL251     -0.1966
    161  CA        55.9610   67.2250   58.4280 C.3   251  VAL251      0.1727
    162  C         56.2900   67.8610   57.0720 C.2   251  VAL251      0.2616
    163  O         55.6290   67.5880   56.0650 O.2   251  VAL251     -0.2715
    164  CB        56.2690   65.7110   58.4200 C.3   251  VAL251      0.0290
    165  CG1       57.7540   65.4790   58.1900 C.3   251  VAL251      0.0023
    166  CG2       55.8320   65.0910   59.7380 C.3   251  VAL251      0.0023
    167  N         57.3180   68.7050   57.0530 N.am  252  ASN252     -0.1972
    168  CA        57.7380   69.4040   55.8490 C.3   252  ASN252      0.1688
    169  C         58.9210   68.7000   55.1770 C.2   252  ASN252      0.2292
    170  O         59.9890   68.5940   55.7690 O.2   252  ASN252     -0.2864
    171  CB        58.1440   70.8190   56.2460 C.3   252  ASN252      0.1181
    172  CG        56.9370   71.6520   56.6640 C.2   252  ASN252      0.2629
    173  OD1       56.0840   71.9240   55.8480 O.2   252  ASN252     -0.2716
    174  ND2       56.8540   72.0230   57.9330 N.am  252  ASN252     -0.0877
    175  N         61.2300   72.1210   53.4710 N.3   255  PRO255     -0.2116
    176  CA        61.3080   73.3190   54.3080 C.3   255  PRO255      0.1372
    177  C         62.1830   74.3660   53.6590 C.2   255  PRO255      0.2244
    178  O         63.0910   74.0180   52.9420 O.2   255  PRO255     -0.2868
    179  CB        61.9540   72.8100   55.5850 C.3   255  PRO255      0.0268
    180  CG        62.6830   71.6090   55.1830 C.3   255  PRO255      0.0207
    181  CD        61.8830   70.9760   54.1070 C.3   255  PRO255      0.0892
@<TRIPOS>BOND
     1     4     3    2
     2     1     2    1
     3    11    12    1
     4    13    12    1
     5    13    14    2
     6     3     2    1
     7     2     5    1
     8    12    15    1
     9     5     6    1
    10    15    16    1
    11     6     7   ar
    12     6     8   ar
    13     7     9   ar
    14    16    17    1
    15    57    58    1
    16    57    56    1
    17    18    17   ar
    18    58    59    2
    19    17    19   ar
    20    55    54    2
    21     8    10   ar
    22    56    54   am
    23     9    10   ar
    24    54    53    1
    25    52    53    1
    26   178   177    2
    27   175   181    1
    28   175   176    1
    29   177   176    1
    30   181   180    1
    31    20    21    1
    32   176   179    1
    33    45    46    2
    34    45    44    1
    35   169   170    2
    36   169   168    1
    37   180   179    1
    38    27    28    1
    39    27    26    1
    40    21    24    1
    41    21    22    1
    42    25    26    1
    43    25    24    1
    44   173   172    2
    45   168   171    1
    46   168   167    1
    47   163   162    2
    48   171   172    1
    49    22    23    2
    50    44    47    1
    51    44    43    1
    52   172   174   am
    53   158   157   ar
    54    60    61    1
    55   167   162   am
    56   162   161    1
    57    47    48    1
    58   142   140    1
    59   157   159   ar
    60   157   156    1
    61    61    64    1
    62    61    62    1
    63    65    64    1
    64   165   164    1
    65   141   140    1
    66   132   133    1
    67   164   161    1
    68   164   166    1
    69   161   160    1
    70   140   139    2
    71    48    49    1
    72    64    66    1
    73   160   153   am
    74    62    63    2
    75   155   156    1
    76   155   152    1
    77   136   133    1
    78   136   137    1
    79    49    50    1
    80   135   134    2
    81   139   138    1
    82   133   134    1
    83   138   137    1
    84   153   152    1
    85   153   154    2
    86   152   151    1
    87    50    51    1
    88   150   148   ar
    89   148   149   ar
    90   148   147    1
    91    39    38    2
    92    38    37    1
    93    41    40    1
    94    75    76    1
    95   147   144    1
    96    67    68    1
    97    37    40    1
    98    37    36    1
    99   143   144    1
   100    83    81   ar
   101    82    81   ar
   102    40    42    1
   103    79    76    1
   104    79    80    1
   105    81    80    1
   106    70    69    2
   107   144   145    1
   108    76    77    1
   109    69    68    1
   110    68    71    1
   111   130   131   ar
   112   130   128   ar
   113   146   145    2
   114   131   129   ar
   115   128   127   ar
   116    78    77    2
   117    77    84   am
   118    72    71    1
   119    72    74    1
   120    71    73    1
   121    32    31    2
   122   120   119   ar
   123   129   127   ar
   124   127   126    1
   125    84    85    1
   126    35    34    1
   127    35    29    1
   128   121   119   ar
   129   119   118    1
   130    34    33    1
   131    31    30    1
   132    33    30    1
   133    29    30    1
   134   126   123    1
   135    87    86    2
   136    85    86    1
   137    85    88    1
   138    86    93   am
   139   123   122    1
   140   123   124    1
   141   118   117    1
   142   117   114    1
   143   125   124    2
   144    93    94    1
   145    99   101   ar
   146    99    98   ar
   147    94    97    1
   148    94    95    1
   149    88    89    1
   150    97    98    1
   151   101   103   ar
   152    98   100   ar
   153   114   115    1
   154   114   113    1
   155   115   116    2
   156    89    90    1
   157   105    95   am
   158   105   106    1
   159    95    96    2
   160   110   109    1
   161   110   112    1
   162   103   104    1
   163   103   102   ar
   164   109   106    1
   165   109   111    1
   166    90    91    1
   167   108   107    2
   168   100   102   ar
   169   106   107    1
   170    91    92    1
