@<TRIPOS>MOLECULE
tmp/3r5xC00.pdb
 152 140 0 0 0
SMALL
GASTEIGER

@<TRIPOS>ATOM
      1  N         54.4470   46.5240   39.3910 N.3    59  LYS59      -0.1245
      2  CA        55.1050   47.6970   39.9590 C.3    59  LYS59       0.1561
      3  C         55.2590   48.8600   38.9870 C.2    59  LYS59       0.2260
      4  O         55.0890   50.0200   39.3600 O.2    59  LYS59      -0.2867
      5  CB        56.4860   47.3520   40.5120 C.3    59  LYS59       0.0271
      6  CG        56.5170   46.2080   41.5110 C.3    59  LYS59       0.0035
      7  CD        55.3630   46.2780   42.4870 C.3    59  LYS59       0.0206
      8  CE        55.3080   45.0520   43.3990 C.3    59  LYS59       0.1093
      9  NZ        54.1830   45.1670   44.3750 N.3    59  LYS59      -0.1314
     10  N         52.1110   50.5100   39.1440 N.3    62  GLU62      -0.1245
     11  CA        51.6070   50.7870   40.4870 C.3    62  GLU62       0.1567
     12  C         52.3060   51.8770   41.2890 C.2    62  GLU62       0.2260
     13  O         51.6950   52.4100   42.1950 O.2    62  GLU62      -0.2867
     14  CB        51.5410   49.5210   41.3350 C.3    62  GLU62       0.0388
     15  CG        50.5920   48.4870   40.7940 C.3    62  GLU62       0.1160
     16  CD        50.7990   47.1160   41.4200 C.2    62  GLU62       0.3649
     17  OE1       51.7370   46.9630   42.2390 O.co2  62  GLU62      -0.2457
     18  OE2       50.0140   46.1980   41.0970 O.co2  62  GLU62      -0.2457
     19  N         52.4200   48.3390   51.1780 N.3    89  LYS89      -0.1245
     20  CA        51.4970   47.5430   51.9730 C.3    89  LYS89       0.1561
     21  C         51.4370   48.0140   53.4190 C.2    89  LYS89       0.2260
     22  O         50.4000   47.9450   54.0660 O.2    89  LYS89      -0.2867
     23  CB        51.8060   46.0480   51.8630 C.3    89  LYS89       0.0271
     24  CG        51.4090   45.4810   50.4970 C.3    89  LYS89       0.0035
     25  CD        52.0360   44.1020   50.2630 C.3    89  LYS89       0.0206
     26  CE        51.3750   43.3980   49.0740 C.3    89  LYS89       0.1093
     27  NZ        49.9800   42.9410   49.4100 N.3    89  LYS89      -0.1314
     28  N         45.0330   42.0460   58.7580 N.3   104  PRO104     -0.2116
     29  CA        45.9070   41.2110   59.5900 C.3   104  PRO104      0.1372
     30  C         46.9020   42.0520   60.3780 C.2   104  PRO104      0.2244
     31  O         47.4740   43.0110   59.8390 O.2   104  PRO104     -0.2868
     32  CB        46.6650   40.3590   58.5680 C.3   104  PRO104      0.0268
     33  CG        45.7880   40.3080   57.3910 C.3   104  PRO104      0.0207
     34  CD        45.0490   41.6230   57.3490 C.3   104  PRO104      0.0892
     35  N         52.9070   35.4430   57.0250 N.3   127  VAL127     -0.1245
     36  CA        53.0730   35.6120   55.5870 C.3   127  VAL127      0.1561
     37  C         54.0630   36.7400   55.3540 C.2   127  VAL127      0.2260
     38  O         53.8870   37.8330   55.8760 O.2   127  VAL127     -0.2867
     39  CB        51.7430   35.9530   54.8790 C.3   127  VAL127      0.0252
     40  CG1       51.9500   35.9830   53.3750 C.3   127  VAL127      0.0019
     41  CG2       50.6530   34.9320   55.2430 C.3   127  VAL127      0.0019
     42  N         55.8020   39.3870   52.9160 N.3   129  LYS129     -0.1245
     43  CA        55.6680   40.0410   51.6150 C.3   129  LYS129      0.1561
     44  C         56.5770   41.2330   51.5200 C.2   129  LYS129      0.2260
     45  O         56.7290   41.9800   52.4790 O.2   129  LYS129     -0.2867
     46  CB        54.2280   40.5010   51.3500 C.3   129  LYS129      0.0271
     47  CG        53.2470   40.1920   52.4600 C.3   129  LYS129      0.0035
     48  CD        51.8470   40.6890   52.1280 C.3   129  LYS129      0.0206
     49  CE        50.8470   39.5510   52.2060 C.3   129  LYS129      0.1093
     50  NZ        49.4420   40.0230   52.4090 N.3   129  LYS129     -0.1314
     51  N         56.8540   36.7850   44.6100 N.3   132  GLY132     -0.1210
     52  CA        55.6190   36.4660   45.3010 C.3   132  GLY132      0.1956
     53  C         55.7920   36.3760   46.8070 C.2   132  GLY132      0.2611
     54  O         56.9080   36.2060   47.3030 O.2   132  GLY132     -0.2717
     55  N         54.6840   36.5060   47.5340 N.am  133  VAL133     -0.1979
     56  CA        54.6820   36.3640   48.9900 C.3   133  VAL133      0.1595
     57  C         54.7440   34.8890   49.4010 C.2   133  VAL133      0.2287
     58  O         54.3550   34.0060   48.6370 O.2   133  VAL133     -0.2864
     59  CB        53.4480   37.0460   49.6310 C.3   133  VAL133      0.0276
     60  CG1       53.0930   38.3270   48.8770 C.3   133  VAL133      0.0022
     61  CG2       52.2640   36.0880   49.6930 C.3   133  VAL133      0.0022
     62  N         54.5000   31.8800   52.7050 N.3   135  ILE135     -0.1245
     63  CA        54.0680   31.5380   54.0580 C.3   135  ILE135      0.1561
     64  C         55.1710   30.8590   54.8710 C.2   135  ILE135      0.2260
     65  O         55.9610   30.0940   54.3250 O.2   135  ILE135     -0.2867
     66  CB        52.8310   30.6210   54.0440 C.3   135  ILE135      0.0252
     67  CG1       51.7120   31.2380   53.1990 C.3   135  ILE135      0.0019
     68  CG2       52.3600   30.3350   55.4680 C.3   135  ILE135      0.0019
     69  CD1       50.5050   30.3340   53.0560 C.3   135  ILE135      0.0001
     70  N         52.8880   39.6230   58.0080 N.3   158  GLU158     -0.1231
     71  CA        51.4920   39.5690   58.4290 C.3   158  GLU158      0.1699
     72  C         51.2000   38.2660   59.1690 C.2   158  GLU158      0.2592
     73  O         51.7170   37.2120   58.7980 O.2   158  GLU158     -0.2718
     74  CB        50.5700   39.6300   57.2020 C.3   158  GLU158      0.0402
     75  CG        50.4280   40.9930   56.5380 C.3   158  GLU158      0.1161
     76  CD        49.4400   40.9620   55.3720 C.2   158  GLU158      0.3649
     77  OE1       48.7530   39.9290   55.2090 O.co2 158  GLU158     -0.2457
     78  OE2       49.3610   41.9580   54.6130 O.co2 158  GLU158     -0.2457
     79  N         50.3480   38.3330   60.1910 N.am  159  LYS159     -0.1966
     80  CA        49.8340   37.1250   60.8290 C.3   159  LYS159      0.1728
     81  C         48.9390   36.3660   59.8510 C.2   159  LYS159      0.2616
     82  O         48.0940   36.9610   59.1840 O.2   159  LYS159     -0.2715
     83  CB        49.0590   37.4780   62.0980 C.3   159  LYS159      0.0311
     84  CG        48.0010   36.4570   62.4720 C.3   159  LYS159      0.0038
     85  CD        47.1950   36.9000   63.6930 C.3   159  LYS159      0.0206
     86  CE        47.9510   36.6710   64.9950 C.3   159  LYS159      0.1093
     87  NZ        47.0420   36.7740   66.1780 N.3   159  LYS159     -0.1314
     88  N         49.1440   35.0560   59.7430 N.am  160  TYR160     -0.1960
     89  CA        48.4020   34.2420   58.7880 C.3   160  TYR160      0.1771
     90  C         46.9150   34.1860   59.1220 C.2   160  TYR160      0.2619
     91  O         46.5380   33.9090   60.2630 O.2   160  TYR160     -0.2715
     92  CB        48.9590   32.8270   58.7630 C.3   160  TYR160      0.0574
     93  CG        48.2670   31.9190   57.7700 C.ar  160  TYR160     -0.0198
     94  CD1       48.5090   32.0390   56.4090 C.ar  160  TYR160     -0.0009
     95  CD2       47.3820   30.9320   58.1940 C.ar  160  TYR160     -0.0009
     96  CE1       47.8870   31.2110   55.4930 C.ar  160  TYR160      0.0417
     97  CE2       46.7520   30.0970   57.2830 C.ar  160  TYR160      0.0417
     98  CZ        47.0100   30.2440   55.9330 C.ar  160  TYR160      0.1957
     99  OH        46.3910   29.4250   55.0140 O.3   160  TYR160     -0.2866
    100  N         46.0710   34.4410   58.1270 N.am  161  ILE161     -0.1977
    101  CA        44.6420   34.4100   58.3510 C.3   161  ILE161      0.1596
    102  C         44.0550   33.2210   57.6300 C.2   161  ILE161      0.2287
    103  O         43.9790   33.2040   56.4000 O.2   161  ILE161     -0.2864
    104  CB        43.9470   35.6850   57.8330 C.3   161  ILE161      0.0276
    105  CG1       44.5680   36.9400   58.4460 C.3   161  ILE161      0.0022
    106  CG2       42.4720   35.6510   58.1740 C.3   161  ILE161      0.0022
    107  CD1       44.0130   37.2860   59.7820 C.3   161  ILE161      0.0001
    108  N         38.8250   33.0420   51.1100 N.3   165  GLU165     -0.1245
    109  CA        39.3740   34.1370   50.3350 C.3   165  GLU165      0.1567
    110  C         38.3810   34.6980   49.3240 C.2   165  GLU165      0.2260
    111  O         37.7740   33.9460   48.5550 O.2   165  GLU165     -0.2867
    112  CB        40.6790   33.7340   49.6460 C.3   165  GLU165      0.0388
    113  CG        41.3200   34.9150   48.9170 C.3   165  GLU165      0.1160
    114  CD        42.6940   34.6040   48.3410 C.2   165  GLU165      0.3649
    115  OE1       43.2050   33.4810   48.5630 O.co2 165  GLU165     -0.2457
    116  OE2       43.2590   35.4920   47.6620 O.co2 165  GLU165     -0.2457
    117  N         40.4380   46.9010   42.9950 N.3   217  ARG217     -0.1245
    118  CA        40.0220   45.5880   43.4370 C.3   217  ARG217      0.1563
    119  C         40.6060   45.3590   44.8000 C.2   217  ARG217      0.2260
    120  O         41.7740   45.6510   45.0360 O.2   217  ARG217     -0.2867
    121  CB        40.4840   44.5100   42.4460 C.3   217  ARG217      0.0307
    122  CG        39.7520   43.1670   42.6290 C.3   217  ARG217      0.0489
    123  CD        40.4690   42.0480   41.8810 C.3   217  ARG217      0.2205
    124  NE        41.6630   41.6490   42.6170 N.pl3 217  ARG217     -0.0865
    125  CZ        42.8670   41.5050   42.0770 C.cat 217  ARG217      0.5346
    126  NH1       43.8900   41.1450   42.8450 N.pl3 217  ARG217      0.1354
    127  NH2       43.0430   41.7040   40.7700 N.pl3 217  ARG217      0.1354
    128  N         41.2750   42.7260   47.9120 N.3   219  ASP219     -0.1239
    129  CA        41.3620   41.3130   48.2350 C.3   219  ASP219      0.1674
    130  C         41.1570   41.1480   49.7290 C.2   219  ASP219      0.2266
    131  O         41.7320   41.9020   50.5220 O.2   219  ASP219     -0.2867
    132  CB        42.7150   40.7630   47.8000 C.3   219  ASP219      0.1410
    133  CG        42.9800   41.0000   46.3260 C.2   219  ASP219      0.3668
    134  OD1       42.0120   41.1060   45.5500 O.co2 219  ASP219     -0.2456
    135  OD2       44.1560   41.1020   45.9380 O.co2 219  ASP219     -0.2456
    136  N         44.8330   43.4350   50.5100 N.3   228  GLU228     -0.1245
    137  CA        45.4070   44.3620   49.5680 C.3   228  GLU228      0.1567
    138  C         44.3920   45.1840   48.8280 C.2   228  GLU228      0.2260
    139  O         43.2680   44.7300   48.5700 O.2   228  GLU228     -0.2867
    140  CB        46.2210   43.5960   48.5190 C.3   228  GLU228      0.0388
    141  CG        46.7930   44.5500   47.4920 C.3   228  GLU228      0.1160
    142  CD        47.9250   43.9590   46.7130 C.2   228  GLU228      0.3649
    143  OE1       47.7050   42.9300   46.0490 O.co2 228  GLU228     -0.2457
    144  OE2       49.0360   44.5260   46.7640 O.co2 228  GLU228     -0.2457
    145  N         44.2510   46.9210   45.1210 N.3   230  ASN230     -0.1240
    146  CA        44.9220   47.0290   43.8240 C.3   230  ASN230      0.1653
    147  C         44.3690   48.1490   42.9540 C.2   230  ASN230      0.2266
    148  O         43.1880   48.1290   42.5690 O.2   230  ASN230     -0.2867
    149  CB        44.7350   45.7250   43.0580 C.3   230  ASN230      0.1155
    150  CG        45.1640   44.5210   43.8610 C.2   230  ASN230      0.2627
    151  OD1       46.3190   44.1050   43.7990 O.2   230  ASN230     -0.2716
    152  ND2       44.2340   43.9630   44.6430 N.am  230  ASN230     -0.0877
@<TRIPOS>BOND
     1     3     4    2
     2     3     2    1
     3    10    11    1
     4     1     2    1
     5     2     5    1
     6    11    12    1
     7    11    14    1
     8     5     6    1
     9   127   125    1
    10    15    14    1
    11    15    16    1
    12    18    16   ar
    13    12    13    2
    14    16    17   ar
    15     6     7    1
    16   123   124    1
    17   123   122    1
    18   125   124    2
    19   125   126    1
    20   121   122    1
    21   121   118    1
    22     7     8    1
    23   148   147    2
    24   147   146    1
    25   117   118    1
    26   149   146    1
    27   149   150    1
    28     8     9    1
    29   118   119    1
    30   151   150    2
    31   146   145    1
    32   150   152   am
    33    51    52    1
    34   119   120    2
    35    52    53    1
    36   134   133   ar
    37   135   133   ar
    38   143   142   ar
    39   133   132    1
    40   142   144   ar
    41   142   141    1
    42    53    54    2
    43    53    55   am
    44   141   140    1
    45    55    56    1
    46   116   114   ar
    47   132   129    1
    48   128   129    1
    49   129   130    1
    50   114   115   ar
    51   114   113    1
    52   140   137    1
    53   111   110    2
    54   139   138    2
    55    58    57    2
    56   138   137    1
    57    60    59    1
    58   113   112    1
    59    56    57    1
    60    56    59    1
    61    26    27    1
    62    26    25    1
    63   110   109    1
    64   137   136    1
    65    59    61    1
    66   112   109    1
    67   130   131    2
    68    25    24    1
    69   109   108    1
    70    24    23    1
    71    19    20    1
    72    46    43    1
    73    46    47    1
    74    44    43    1
    75    44    45    2
    76    43    42    1
    77    23    20    1
    78    20    21    1
    79    48    49    1
    80    48    47    1
    81    49    50    1
    82    62    63    1
    83    69    67    1
    84    67    66    1
    85    40    39    1
    86    21    22    2
    87    66    63    1
    88    66    68    1
    89    63    64    1
    90    65    64    2
    91    78    76   ar
    92    39    41    1
    93    39    36    1
    94    99    98    1
    95    77    76   ar
    96    37    36    1
    97    37    38    2
    98    76    75    1
    99    96    98   ar
   100    96    94   ar
   101    36    35    1
   102    98    97   ar
   103   103   102    2
   104    94    93   ar
   105    75    74    1
   106    74    71    1
   107    97    95   ar
   108    34    33    1
   109    34    28    1
   110    33    32    1
   111   102   101    1
   112    93    95   ar
   113    93    92    1
   114   104   106    1
   115   104   101    1
   116   104   105    1
   117    70    71    1
   118   100   101    1
   119   100    90   am
   120    71    72    1
   121   105   107    1
   122    32    29    1
   123    28    29    1
   124    92    89    1
   125    89    90    1
   126    89    88    1
   127    73    72    2
   128    90    91    2
   129    72    79   am
   130    82    81    2
   131    29    30    1
   132    88    81   am
   133    31    30    2
   134    81    80    1
   135    79    80    1
   136    80    83    1
   137    83    84    1
   138    84    85    1
   139    85    86    1
   140    86    87    1
