@<TRIPOS>MOLECULE
tmp/3r5yD00.pdb
 240 238 0 0 0
SMALL
GASTEIGER

@<TRIPOS>ATOM
      1  N          0.2920   45.8410   25.2100 N.3     8  SER8       -0.1203
      2  CA        -1.0910   45.6960   24.7990 C.3     8  SER8        0.2005
      3  C         -1.8290   44.7470   25.7250 C.2     8  SER8        0.2461
      4  O         -1.2870   43.7260   26.1370 O.2     8  SER8       -0.2732
      5  CB        -1.1310   45.1270   23.3790 C.3     8  SER8        0.2103
      6  OG        -2.4650   44.9540   22.9200 O.3     8  SER8       -0.2182
      7  N         -3.0870   45.0740   26.0380 N.am    9  PRO9       -0.2717
      8  CA        -3.9570   44.1570   26.7850 C.3     9  PRO9        0.1535
      9  C         -4.2190   42.8680   26.0030 C.2     9  PRO9        0.2599
     10  O         -4.5130   41.8510   26.6200 O.2     9  PRO9       -0.2715
     11  CB        -5.2540   44.9620   26.9440 C.3     9  PRO9        0.0310
     12  CG        -5.2040   45.9650   25.8050 C.3     9  PRO9        0.0237
     13  CD        -3.7510   46.3540   25.7610 C.3     9  PRO9        0.0939
     14  N         -4.1170   42.8970   24.6730 N.am   10  SER10      -0.1950
     15  CA        -4.2370   41.6610   23.9090 C.3    10  SER10       0.1924
     16  C         -3.0330   40.7840   24.2130 C.2    10  SER10       0.2314
     17  O         -1.8960   41.1490   23.9070 O.2    10  SER10      -0.2863
     18  CB        -4.3240   41.9310   22.4060 C.3    10  SER10       0.2116
     19  OG        -4.1120   40.7320   21.6770 O.3    10  SER10      -0.2180
     20  N         -2.1210   38.0670   22.8590 N.3    12  TRP12      -0.1227
     21  CA        -1.4760   37.6090   21.6440 C.3    12  TRP12       0.1737
     22  C         -0.5080   38.6860   21.1450 C.2    12  TRP12       0.2595
     23  O          0.6530   38.4040   20.8510 O.2    12  TRP12      -0.2718
     24  CB        -2.5090   37.2560   20.5690 C.3    12  TRP12       0.0564
     25  CG        -1.8620   36.6660   19.3740 C.ar   12  TRP12       0.0003
     26  CD1       -1.3930   35.3930   19.2350 C.ar   12  TRP12       0.0946
     27  CD2       -1.5730   37.3350   18.1480 C.ar   12  TRP12       0.0152
     28  NE1       -0.8350   35.2270   17.9940 N.ar   12  TRP12      -0.2442
     29  CE2       -0.9340   36.4060   17.3050 C.ar   12  TRP12       0.0810
     30  CE3       -1.7930   38.6290   17.6820 C.ar   12  TRP12       0.0012
     31  CZ2       -0.5150   36.7300   16.0210 C.ar   12  TRP12       0.0191
     32  CZ3       -1.3830   38.9460   16.4060 C.ar   12  TRP12       0.0001
     33  CH2       -0.7490   38.0000   15.5900 C.ar   12  TRP12       0.0015
     34  N         -0.9710   39.9250   21.0940 N.am   13  ILE13      -0.1980
     35  CA        -0.1040   41.0080   20.6330 C.3    13  ILE13       0.1595
     36  C          1.1000   41.1860   21.5560 C.2    13  ILE13       0.2287
     37  O          2.2360   41.3420   21.0970 O.2    13  ILE13      -0.2864
     38  CB        -0.8370   42.3540   20.5630 C.3    13  ILE13       0.0276
     39  CG1       -1.9460   42.3280   19.4980 C.3    13  ILE13       0.0022
     40  CG2        0.1830   43.4810   20.3350 C.3    13  ILE13       0.0022
     41  CD1       -1.4570   42.1400   18.0420 C.3    13  ILE13       0.0001
     42  N          3.5520   38.5040   20.9570 N.3    16  GLN16      -0.1245
     43  CA         4.2450   38.6280   19.6780 C.3    16  GLN16       0.1566
     44  C          5.3600   39.6640   19.7640 C.2    16  GLN16       0.2260
     45  O          6.4450   39.4550   19.2240 O.2    16  GLN16      -0.2867
     46  CB         3.2570   39.0020   18.5690 C.3    16  GLN16       0.0367
     47  CG         2.2630   37.8900   18.2600 C.3    16  GLN16       0.0905
     48  CD         2.9520   36.6520   17.6940 C.2    16  GLN16       0.2608
     49  OE1        3.3610   36.6330   16.5290 O.2    16  GLN16      -0.2717
     50  NE2        3.1050   35.6260   18.5220 N.am   16  GLN16      -0.0878
     51  N          3.9610   37.5860    9.4310 N.3    31  PHE31      -0.1241
     52  CA         2.5290   37.3500    9.4910 C.3    31  PHE31       0.1605
     53  C          2.0190   37.1930    8.0700 C.2    31  PHE31       0.2264
     54  O          2.3580   37.9910    7.2050 O.2    31  PHE31      -0.2867
     55  CB         1.8030   38.5190   10.1470 C.3    31  PHE31       0.0534
     56  CG         0.3080   38.3790   10.1280 C.ar   31  PHE31      -0.0203
     57  CD1       -0.3410   37.6160   11.0890 C.ar   31  PHE31      -0.0042
     58  CD2       -0.4510   38.9950    9.1400 C.ar   31  PHE31      -0.0042
     59  CE1       -1.7190   37.4790   11.0740 C.ar   31  PHE31      -0.0003
     60  CE2       -1.8310   38.8530    9.1120 C.ar   31  PHE31      -0.0003
     61  CZ        -2.4670   38.0910   10.0890 C.ar   31  PHE31      -0.0000
     62  N          7.4140   41.4220    9.5110 N.3    36  LEU36      -0.1245
     63  CA         6.8710   42.4280   10.4190 C.3    36  LEU36       0.1561
     64  C          7.9560   43.3430   10.9790 C.2    36  LEU36       0.2260
     65  O          9.1440   43.0090   10.9700 O.2    36  LEU36      -0.2867
     66  CB         6.1920   41.7240   11.5950 C.3    36  LEU36       0.0270
     67  CG         5.0970   40.7210   11.2710 C.3    36  LEU36       0.0019
     68  CD1        4.5740   40.1370   12.5810 C.3    36  LEU36       0.0001
     69  CD2        3.9830   41.4180   10.4960 C.3    36  LEU36       0.0001
     70  N          2.4390   56.8880   24.4640 N.3    43  GLY43      -0.1210
     71  CA         1.0220   57.0360   24.7620 C.3    43  GLY43       0.1956
     72  C          0.6730   58.5040   24.9610 C.2    43  GLY43       0.2612
     73  O          1.2540   59.1710   25.8170 O.2    43  GLY43      -0.2717
     74  N         -0.2560   59.0300   24.1660 N.am   44  ARG44      -0.1965
     75  CA        -0.5530   60.4620   24.2570 C.3    44  ARG44       0.1729
     76  C         -1.3100   60.8190   25.5470 C.2    44  ARG44       0.2616
     77  O         -1.2870   61.9720   25.9880 O.2    44  ARG44      -0.2715
     78  CB        -1.3160   60.9570   23.0210 C.3    44  ARG44       0.0348
     79  CG        -2.7330   60.4590   22.9660 C.3    44  ARG44       0.0492
     80  CD        -3.5290   61.1720   21.8830 C.3    44  ARG44       0.2205
     81  NE        -4.9320   60.7630   21.8900 N.pl3  44  ARG44      -0.0865
     82  CZ        -5.8910   61.3620   21.1840 C.cat  44  ARG44       0.5346
     83  NH1       -5.6080   62.4080   20.4120 N.pl3  44  ARG44       0.1354
     84  NH2       -7.1350   60.9160   21.2490 N.pl3  44  ARG44       0.1354
     85  N         -1.9650   59.8330   26.1540 N.am   45  LYS45      -0.1963
     86  CA        -2.5890   60.0170   27.4700 C.3    45  LYS45       0.1728
     87  C         -1.7050   59.6190   28.6590 C.2    45  LYS45       0.2616
     88  O         -1.6300   60.3380   29.6630 O.2    45  LYS45      -0.2715
     89  CB        -3.8910   59.2240   27.5560 C.3    45  LYS45       0.0311
     90  CG        -5.0230   59.7710   26.7100 C.3    45  LYS45       0.0038
     91  CD        -6.2930   58.9580   26.9330 C.3    45  LYS45       0.0206
     92  CE        -7.4810   59.5530   26.1970 C.3    45  LYS45       0.1093
     93  NZ        -8.6530   58.6400   26.2520 N.3    45  LYS45      -0.1314
     94  N         -1.0530   58.4650   28.5540 N.am   46  THR46      -0.1951
     95  CA        -0.3540   57.8760   29.6870 C.3    46  THR46       0.1897
     96  C          1.1400   58.1840   29.7290 C.2    46  THR46       0.2313
     97  O          1.7740   58.0730   30.7810 O.2    46  THR46      -0.2863
     98  CB        -0.5030   56.3480   29.6780 C.3    46  THR46       0.1794
     99  OG1        0.1810   55.8170   28.5330 O.3    46  THR46      -0.2208
    100  CG2       -1.9760   55.9420   29.6350 C.3    46  THR46       0.0378
    101  N          4.4260   52.3210   23.9920 N.3    50  ARG50      -0.1245
    102  CA         3.5210   51.2820   23.4920 C.3    50  ARG50       0.1563
    103  C          4.1720   50.6060   22.3110 C.2    50  ARG50       0.2260
    104  O          4.8010   51.2800   21.5050 O.2    50  ARG50      -0.2867
    105  CB         2.2150   51.9230   23.0230 C.3    50  ARG50       0.0307
    106  CG         1.5120   52.6790   24.1320 C.3    50  ARG50       0.0489
    107  CD         1.1130   51.7430   25.2280 C.3    50  ARG50       0.2205
    108  NE         0.0390   52.3110   26.0470 N.pl3  50  ARG50      -0.0865
    109  CZ        -0.6960   51.5940   26.8870 C.cat  50  ARG50       0.5346
    110  NH1       -0.4430   50.3020   27.0390 N.pl3  50  ARG50       0.1354
    111  NH2       -1.6750   52.1610   27.5830 N.pl3  50  ARG50       0.1354
    112  N          3.7890   47.8150   18.9930 N.3    52  THR52      -0.1204
    113  CA         2.7730   47.3530   18.0580 C.3    52  THR52       0.1979
    114  C          3.4470   46.7090   16.8620 C.2    52  THR52       0.2460
    115  O          4.2200   47.3730   16.1780 O.2    52  THR52      -0.2732
    116  CB         1.9990   48.5900   17.5150 C.3    52  THR52       0.1783
    117  OG1        1.4700   49.3570   18.6040 O.3    52  THR52      -0.2211
    118  CG2        0.8760   48.1760   16.6030 C.3    52  THR52       0.0376
    119  N          3.1550   45.4210   16.5930 N.am   53  PRO53      -0.2717
    120  CA         3.6500   44.8530   15.3350 C.3    53  PRO53       0.1535
    121  C          2.8340   45.4070   14.1630 C.2    53  PRO53       0.2598
    122  O          1.6260   45.5920   14.3020 O.2    53  PRO53      -0.2715
    123  CB         3.3910   43.3450   15.4840 C.3    53  PRO53       0.0310
    124  CG         3.0650   43.1410   16.9970 C.3    53  PRO53       0.0237
    125  CD         2.4600   44.4240   17.4320 C.3    53  PRO53       0.0939
    126  N          3.4960   45.6930   13.0430 N.am   54  VAL54      -0.1964
    127  CA         2.8010   46.1240   11.8310 C.3    54  VAL54       0.1727
    128  C          3.5730   45.5610   10.6430 C.2    54  VAL54       0.2616
    129  O          4.7320   45.1480   10.7960 O.2    54  VAL54      -0.2715
    130  CB         2.6880   47.6880   11.7330 C.3    54  VAL54       0.0290
    131  CG1        1.9080   48.2660   12.9080 C.3    54  VAL54       0.0023
    132  CG2        4.0720   48.3430   11.6280 C.3    54  VAL54       0.0023
    133  N          2.9680   45.5400    9.4530 N.am   55  MET55      -0.1977
    134  CA         3.6690   44.9960    8.3050 C.3    55  MET55       0.1605
    135  C          4.8700   45.8730    7.9590 C.2    55  MET55       0.2287
    136  O          4.8030   47.0940    8.0790 O.2    55  MET55      -0.2864
    137  CB         2.7390   44.8920    7.0800 C.3    55  MET55       0.0413
    138  CG         1.4200   44.1260    7.3280 C.3    55  MET55       0.0598
    139  SD         1.6470   42.4660    8.0610 S.3    55  MET55      -0.1393
    140  CE         2.6390   41.6220    6.8240 C.3    55  MET55       0.0692
    141  N          0.8190   51.4800    8.0780 N.3    66  VAL66      -0.1231
    142  CA        -0.5680   51.6490    7.6530 C.3    66  VAL66       0.1692
    143  C         -1.4860   51.3620    8.8300 C.2    66  VAL66       0.2592
    144  O         -1.4640   50.2650    9.3910 O.2    66  VAL66      -0.2718
    145  CB        -0.9080   50.6980    6.5010 C.3    66  VAL66       0.0266
    146  CG1       -2.3170   50.9480    5.9840 C.3    66  VAL66       0.0020
    147  CG2        0.1140   50.8450    5.3800 C.3    66  VAL66       0.0020
    148  N         -2.2930   52.3480    9.1880 N.am   67  ALA67      -0.1966
    149  CA        -3.1310   52.2510   10.3780 C.3    67  ALA67       0.1728
    150  C         -4.4800   51.6400   10.0340 C.2    67  ALA67       0.2617
    151  O         -5.5020   52.3220   10.0240 O.2    67  ALA67      -0.2715
    152  CB        -3.3080   53.6210   11.0100 C.3    67  ALA67       0.0334
    153  N         -4.4720   50.3390    9.7790 N.am   68  SER68      -0.1936
    154  CA        -5.6490   49.6590    9.2650 C.3    68  SER68       0.2055
    155  C         -6.2930   48.7440   10.2970 C.2    68  SER68       0.2643
    156  O         -7.4370   48.3240   10.1240 O.2    68  SER68      -0.2714
    157  CB        -5.2390   48.8200    8.0540 C.3    68  SER68       0.2130
    158  OG        -4.1890   47.9300    8.4150 O.3    68  SER68      -0.2179
    159  N         -5.5530   48.4480   11.3640 N.am   69  GLN69      -0.1963
    160  CA        -5.9100   47.3960   12.3320 C.3    69  GLN69       0.1733
    161  C         -6.9800   46.3970   11.8520 C.2    69  GLN69       0.2616
    162  O         -8.0960   46.3320   12.3860 O.2    69  GLN69      -0.2715
    163  CB        -6.2420   47.9710   13.7190 C.3    69  GLN69       0.0408
    164  CG        -7.4950   48.8070   13.8070 C.3    69  GLN69       0.0908
    165  CD        -7.8800   49.0920   15.2560 C.2    69  GLN69       0.2608
    166  OE1       -7.6410   48.2730   16.1480 O.2    69  GLN69      -0.2717
    167  NE2       -8.4730   50.2520   15.4920 N.am   69  GLN69      -0.0878
    168  N         -6.6150   45.6240   10.8330 N.am   70  GLY70      -0.1955
    169  CA        -7.4530   44.5500   10.3310 C.3    70  GLY70       0.1869
    170  C         -8.7800   44.9750    9.7300 C.2    70  GLY70       0.2309
    171  O         -9.7300   44.1910    9.7240 O.2    70  GLY70      -0.2863
    172  N         -6.3540   52.9210   15.1470 N.3    76  PRO76      -0.2102
    173  CA        -5.6940   52.3060   16.3100 C.3    76  PRO76       0.1504
    174  C         -5.1280   53.3520   17.2610 C.2    76  PRO76       0.2576
    175  O         -4.8490   54.4770   16.8440 O.2    76  PRO76      -0.2718
    176  CB        -4.5370   51.5000   15.6980 C.3    76  PRO76       0.0282
    177  CG        -4.5030   51.8050   14.2550 C.3    76  PRO76       0.0208
    178  CD        -5.5690   52.8040   13.9070 C.3    76  PRO76       0.0893
    179  N         -4.9340   52.9720   18.5210 N.am   77  ALA77      -0.1966
    180  CA        -4.3520   53.8640   19.5140 C.3    77  ALA77       0.1728
    181  C         -2.9990   54.4320   19.0690 C.2    77  ALA77       0.2616
    182  O         -2.6910   55.6030   19.2960 O.2    77  ALA77      -0.2715
    183  CB        -4.2020   53.1280   20.8500 C.3    77  ALA77       0.0334
    184  N         -2.1780   53.5940   18.4560 N.am   78  TRP78      -0.1974
    185  CA        -0.8550   54.0560   18.0330 C.3    78  TRP78       0.1640
    186  C         -0.8920   55.1900   17.0120 C.2    78  TRP78       0.2290
    187  O          0.0090   56.0320   16.9510 O.2    78  TRP78      -0.2864
    188  CB         0.0180   52.8850   17.5700 C.3    78  TRP78       0.0576
    189  CG        -0.4420   52.1110   16.3520 C.ar   78  TRP78       0.0006
    190  CD1       -1.1470   50.9420   16.3460 C.ar   78  TRP78       0.0946
    191  CD2       -0.1840   52.4290   14.9750 C.ar   78  TRP78       0.0152
    192  NE1       -1.3550   50.5170   15.0540 N.ar   78  TRP78      -0.2442
    193  CE2       -0.7750   51.4110   14.1930 C.ar   78  TRP78       0.0810
    194  CE3        0.4760   53.4790   14.3290 C.ar   78  TRP78       0.0012
    195  CZ2       -0.7190   51.4100   12.7970 C.ar   78  TRP78       0.0191
    196  CZ3        0.5380   53.4760   12.9330 C.ar   78  TRP78       0.0001
    197  CH2       -0.0550   52.4410   12.1860 C.ar   78  TRP78       0.0015
    198  N         -3.2050   57.6780   17.0080 N.3    80  PHE80      -0.1227
    199  CA        -3.4020   58.8690   17.8230 C.3    80  PHE80       0.1736
    200  C         -2.1040   59.2590   18.5350 C.2    80  PHE80       0.2595
    201  O         -1.7860   60.4460   18.6380 O.2    80  PHE80      -0.2718
    202  CB        -4.5430   58.6780   18.8270 C.3    80  PHE80       0.0547
    203  CG        -5.8990   58.4950   18.1800 C.ar   80  PHE80      -0.0202
    204  CD1       -6.5930   59.5850   17.6730 C.ar   80  PHE80      -0.0042
    205  CD2       -6.4730   57.2390   18.0790 C.ar   80  PHE80      -0.0042
    206  CE1       -7.8360   59.4230   17.0830 C.ar   80  PHE80      -0.0003
    207  CE2       -7.7100   57.0700   17.4850 C.ar   80  PHE80      -0.0003
    208  CZ        -8.3920   58.1630   16.9870 C.ar   80  PHE80      -0.0000
    209  N         -1.3650   58.2630   19.0260 N.am   81  ASN81      -0.1974
    210  CA        -0.0630   58.5140   19.6480 C.3    81  ASN81       0.1688
    211  C          0.8750   59.2790   18.7140 C.2    81  ASN81       0.2292
    212  O          1.4710   60.2830   19.1050 O.2    81  ASN81      -0.2864
    213  CB         0.6150   57.2020   20.0800 C.3    81  ASN81       0.1181
    214  CG        -0.0840   56.5320   21.2580 C.2    81  ASN81       0.2629
    215  OD1       -0.8860   57.1480   21.9720 O.2    81  ASN81      -0.2716
    216  ND2        0.2200   55.2530   21.4630 N.am   81  ASN81      -0.0877
    217  N          1.6290   43.7650    1.1660 N.3   120  TYR120     -0.1241
    218  CA         0.5200   43.1280    1.8660 C.3   120  TYR120      0.1605
    219  C         -0.7640   43.4830    1.1340 C.2   120  TYR120      0.2264
    220  O         -1.3820   44.5070    1.4230 O.2   120  TYR120     -0.2867
    221  CB         0.4320   43.6610    3.3040 C.3   120  TYR120      0.0534
    222  CG        -0.5850   42.9600    4.1740 C.ar  120  TYR120     -0.0201
    223  CD1       -0.5730   41.5650    4.3240 C.ar  120  TYR120     -0.0009
    224  CD2       -1.5370   43.6890    4.8750 C.ar  120  TYR120     -0.0009
    225  CE1       -1.5100   40.9220    5.1340 C.ar  120  TYR120      0.0417
    226  CE2       -2.4580   43.0590    5.6900 C.ar  120  TYR120      0.0417
    227  CZ        -2.4400   41.6830    5.8160 C.ar  120  TYR120      0.1957
    228  OH        -3.3730   41.0790    6.6360 O.3   120  TYR120     -0.2866
    229  N         -4.1990   44.9630    2.3440 N.3   123  TYR123     -0.1241
    230  CA        -4.4370   46.3810    2.5750 C.3   123  TYR123      0.1605
    231  C         -5.4830   46.9380    1.5970 C.2   123  TYR123      0.2264
    232  O         -6.2930   47.7960    1.9680 O.2   123  TYR123     -0.2867
    233  CB        -3.1440   47.1880    2.4410 C.3   123  TYR123      0.0534
    234  CG        -2.2200   47.1710    3.6500 C.ar  123  TYR123     -0.0201
    235  CD1       -2.7250   47.2470    4.9460 C.ar  123  TYR123     -0.0009
    236  CD2       -0.8500   47.1300    3.4880 C.ar  123  TYR123     -0.0009
    237  CE1       -1.8860   47.2620    6.0480 C.ar  123  TYR123      0.0417
    238  CE2        0.0090   47.1450    4.5910 C.ar  123  TYR123      0.0417
    239  CZ        -0.5180   47.2010    5.8540 C.ar  123  TYR123      0.1957
    240  OH         0.3280   47.2210    6.9330 O.3   123  TYR123     -0.2866
@<TRIPOS>BOND
     1   219   220    2
     2   219   218    1
     3   217   218    1
     4   231   232    2
     5   231   230    1
     6   218   221    1
     7   229   230    1
     8   233   230    1
     9   233   234    1
    10   221   222    1
    11   236   234   ar
    12   236   238   ar
    13   234   235   ar
    14   222   223   ar
    15   222   224   ar
    16   223   225   ar
    17   238   239   ar
    18   224   226   ar
    19   235   237   ar
    20   225   227   ar
    21   147   145    1
    22   226   227   ar
    23   227   228    1
    24   239   237   ar
    25   239   240    1
    26   146   145    1
    27   145   142    1
    28   140   139    1
    29   137   138    1
    30   137   134    1
    31    54    53    2
    32   138   139    1
    33   142   141    1
    34   142   143    1
    35   135   136    2
    36   135   134    1
    37   157   158    1
    38   157   154    1
    39    53    52    1
    40   134   133    1
    41   143   148   am
    42   143   144    2
    43    60    58   ar
    44    60    61   ar
    45    58    56   ar
    46   148   149    1
    47   154   153    1
    48   154   155    1
    49    51    52    1
    50   133   128   am
    51    52    55    1
    52    62    63    1
    53   171   170    2
    54   170   169    1
    55   153   150   am
    56   151   150    2
    57   150   149    1
    58    61    59   ar
    59   156   155    2
    60    56    55    1
    61    56    57   ar
    62   155   159   am
    63   169   168    1
    64   149   152    1
    65    63    64    1
    66    63    66    1
    67    69    67    1
    68   128   129    2
    69   128   127    1
    70   168   161   am
    71    65    64    2
    72    59    57   ar
    73    67    66    1
    74    67    68    1
    75   159   160    1
    76   132   130    1
    77   130   127    1
    78   130   131    1
    79   127   126    1
    80   161   160    1
    81   161   162    2
    82   197   195   ar
    83   197   196   ar
    84   160   163    1
    85   195   193   ar
    86   196   194   ar
    87   126   121   am
    88   163   164    1
    89   164   165    1
    90   178   177    1
    91   178   172    1
    92   121   122    2
    93   121   120    1
    94   193   191   ar
    95   193   192   ar
    96   177   176    1
    97   194   191   ar
    98   191   189   ar
    99   192   190   ar
   100   172   173    1
   101   165   167   am
   102   165   166    2
   103   120   123    1
   104   120   119    1
   105   123   124    1
   106    33    31   ar
   107    33    32   ar
   108   176   173    1
   109    31    29   ar
   110   115   114    2
   111   173   174    1
   112   190   189   ar
   113   189   188    1
   114    32    30   ar
   115    49    48    2
   116   119   114   am
   117   119   125    1
   118   118   116    1
   119   175   174    2
   120   114   113    1
   121   187   186    2
   122   208   206   ar
   123   208   207   ar
   124   124   125    1
   125   198   199    1
   126   186   185    1
   127   206   204   ar
   128   174   179   am
   129    29    28   ar
   130    29    27   ar
   131   207   205   ar
   132   116   113    1
   133   116   117    1
   134   188   185    1
   135   204   203   ar
   136    30    27   ar
   137    48    47    1
   138    48    50   am
   139   199   200    1
   140   199   202    1
   141    28    26   ar
   142   185   184    1
   143    41    39    1
   144   113   112    1
   145   205   203   ar
   146    27    25   ar
   147   203   202    1
   148    47    46    1
   149   184   181   am
   150   179   180    1
   151   200   201    2
   152   200   209   am
   153    46    43    1
   154   211   212    2
   155   211   210    1
   156   209   210    1
   157   181   182    2
   158   181   180    1
   159    45    44    2
   160    26    25   ar
   161    25    24    1
   162    39    38    1
   163   180   183    1
   164   210   213    1
   165    43    44    1
   166    43    42    1
   167   213   214    1
   168    40    38    1
   169    83    82    1
   170    38    35    1
   171    24    21    1
   172    35    34    1
   173    35    36    1
   174    23    22    2
   175    34    22   am
   176    37    36    2
   177    22    21    1
   178    82    84    1
   179    82    81    2
   180   214   216   am
   181   214   215    2
   182   104   103    2
   183    21    20    1
   184    19    18    1
   185    80    81    1
   186    80    79    1
   187   103   102    1
   188    18    15    1
   189     6     5    1
   190    79    78    1
   191    78    75    1
   192   105   102    1
   193   105   106    1
   194     5     2    1
   195   102   101    1
   196    17    16    2
   197    15    16    1
   198    15    14    1
   199   106   107    1
   200    74    75    1
   201    74    72   am
   202    75    76    1
   203    70    71    1
   204    14     9   am
   205    71    72    1
   206     2     1    1
   207     2     3    1
   208    72    73    2
   209   107   108    1
   210    76    77    2
   211    76    85   am
   212     3     7   am
   213     3     4    2
   214    13    12    1
   215    13     7    1
   216    12    11    1
   217     9    10    2
   218     9     8    1
   219     7     8    1
   220   108   109    2
   221    85    86    1
   222    92    93    1
   223    92    91    1
   224    90    91    1
   225    90    89    1
   226     8    11    1
   227   109   110    1
   228   109   111    1
   229    86    89    1
   230    86    87    1
   231    99    98    1
   232    94    87   am
   233    94    95    1
   234    87    88    2
   235   100    98    1
   236    98    95    1
   237    95    96    1
   238    96    97    2
