@<TRIPOS>MOLECULE
tmp/3r5zA00.pdb
 206 203 0 0 0
SMALL
GASTEIGER

@<TRIPOS>ATOM
      1  N         -9.5880    9.5290   18.0950 N.3     7  PRO7       -0.2102
      2  CA        -8.1400    9.3660   18.2180 C.3     7  PRO7        0.1504
      3  C         -7.7170    8.2720   17.2330 C.2     7  PRO7        0.2576
      4  O         -6.6480    8.4340   16.6540 O.2     7  PRO7       -0.2718
      5  CB        -7.9470    8.9140   19.6630 C.3     7  PRO7        0.0282
      6  CG        -9.1180    9.4890   20.3910 C.3     7  PRO7        0.0208
      7  CD       -10.2750    9.4210   19.4000 C.3     7  PRO7        0.0893
      8  N         -8.5300    7.2320   17.0290 N.am    8  SER8       -0.1953
      9  CA        -8.1390    6.1660   16.0980 C.3     8  SER8        0.1924
     10  C         -8.1270    6.6380   14.6460 C.2     8  SER8        0.2314
     11  O         -7.2450    6.2710   13.8850 O.2     8  SER8       -0.2863
     12  CB        -9.0060    4.9180   16.2700 C.3     8  SER8        0.2116
     13  OG       -10.3070    5.0820   15.7230 O.3     8  SER8       -0.2180
     14  N         -7.6690    9.7730   13.7840 N.3    10  TRP10      -0.1227
     15  CA        -6.5200   10.6640   13.6940 C.3    10  TRP10       0.1737
     16  C         -5.2230    9.8470   13.4840 C.2    10  TRP10       0.2595
     17  O         -4.3660   10.2360   12.7040 O.2    10  TRP10      -0.2718
     18  CB        -6.3710   11.5550   14.9610 C.3    10  TRP10       0.0564
     19  CG        -5.0190   12.1780   15.0000 C.ar   10  TRP10       0.0003
     20  CD1       -4.0090   11.8290   15.8260 C.ar   10  TRP10       0.0946
     21  CD2       -4.5090   13.2230   14.1650 C.ar   10  TRP10       0.0152
     22  NE1       -2.8870   12.5640   15.5450 N.ar   10  TRP10      -0.2442
     23  CE2       -3.1630   13.4360   14.5450 C.ar   10  TRP10       0.0810
     24  CE3       -5.0370   13.9810   13.1280 C.ar   10  TRP10       0.0012
     25  CZ2       -2.3450   14.3860   13.9390 C.ar   10  TRP10       0.0191
     26  CZ3       -4.2210   14.9070   12.5220 C.ar   10  TRP10       0.0001
     27  CH2       -2.8830   15.1040   12.9280 C.ar   10  TRP10       0.0015
     28  N         -5.0610    8.7580   14.2290 N.am   11  ALA11      -0.1980
     29  CA        -3.8110    7.9840   14.1160 C.3    11  ALA11       0.1597
     30  C         -3.6900    7.4450   12.6970 C.2    11  ALA11       0.2287
     31  O         -2.6170    7.4690   12.1200 O.2    11  ALA11      -0.2864
     32  CB        -3.8270    6.8010   15.0960 C.3    11  ALA11       0.0319
     33  N         -2.7210   10.3180   10.3830 N.3    14  GLN14      -0.1245
     34  CA        -1.3360   10.7490   10.5680 C.3    14  GLN14       0.1566
     35  C         -0.3430    9.7870    9.9450 C.2    14  GLN14       0.2260
     36  O          0.6050   10.2270    9.2670 O.2    14  GLN14      -0.2867
     37  CB        -1.0420   10.8970   12.0610 C.3    14  GLN14       0.0367
     38  CG         0.4210   11.2200   12.3780 C.3    14  GLN14       0.0905
     39  CD         0.5530   12.0930   13.6070 C.2    14  GLN14       0.2608
     40  OE1       -0.1040   11.8580   14.6300 O.2    14  GLN14      -0.2717
     41  NE2        1.4450   13.0780   13.5270 N.am   14  GLN14      -0.0878
     42  N          3.0170   16.0010   16.8090 N.3    29  LEU29      -0.1245
     43  CA         1.7250   15.9680   17.5100 C.3    29  LEU29       0.1561
     44  C          1.8260   16.9970   18.6470 C.2    29  LEU29       0.2260
     45  O          2.6940   16.8460   19.5250 O.2    29  LEU29      -0.2867
     46  CB         1.4360   14.5610   18.0950 C.3    29  LEU29       0.0270
     47  CG         0.1770   14.4580   18.9460 C.3    29  LEU29       0.0019
     48  CD1       -0.9890   14.7700   18.0250 C.3    29  LEU29       0.0001
     49  CD2       -0.0240   13.1030   19.6670 C.3    29  LEU29       0.0001
     50  N          7.0140   12.7570   16.2670 N.3    34  VAL34      -0.1245
     51  CA         6.4290   11.4080   16.1550 C.3    34  VAL34       0.1561
     52  C          7.3060   10.5480   15.2350 C.2    34  VAL34       0.2260
     53  O          7.9600   11.0710   14.3290 O.2    34  VAL34      -0.2867
     54  CB         4.9990   11.5550   15.5960 C.3    34  VAL34       0.0252
     55  CG1        4.4050   10.2360   15.2030 C.3    34  VAL34       0.0019
     56  CG2        4.1150   12.2830   16.6180 C.3    34  VAL34       0.0019
     57  N          2.7130   -8.2890   11.6170 N.3    41  GLY41      -0.1210
     58  CA         1.4570   -8.6730   12.2480 C.3    41  GLY41       0.1956
     59  C          1.4830  -10.0880   12.8260 C.2    41  GLY41       0.2612
     60  O          1.7820  -11.0170   12.0950 O.2    41  GLY41      -0.2717
     61  N          1.1890  -10.2250   14.1250 N.am   42  ALA42      -0.1965
     62  CA         1.2850  -11.5110   14.8200 C.3    42  ALA42       0.1728
     63  C          0.4060  -12.5850   14.1670 C.2    42  ALA42       0.2616
     64  O          0.7900  -13.7630   14.0810 O.2    42  ALA42      -0.2715
     65  CB         0.9010  -11.3440   16.2630 C.3    42  ALA42       0.0334
     66  N         -0.7750  -12.1860   13.7110 N.am   43  LYS43      -0.1963
     67  CA        -1.7260  -13.1580   13.1570 C.3    43  LYS43       0.1728
     68  C         -1.6210  -13.1900   11.6450 C.2    43  LYS43       0.2616
     69  O         -1.4620  -14.2550   11.0320 O.2    43  LYS43      -0.2715
     70  CB        -3.1590  -12.8130   13.5690 C.3    43  LYS43       0.0311
     71  CG        -3.4000  -12.7830   15.0750 C.3    43  LYS43       0.0038
     72  CD        -3.2850  -14.1560   15.6890 C.3    43  LYS43       0.0206
     73  CE        -3.5690  -14.1210   17.1860 C.3    43  LYS43       0.1093
     74  NZ        -3.2500  -15.4340   17.8110 N.3    43  LYS43      -0.1314
     75  N         -1.7060  -12.0190   11.0320 N.am   44  THR44      -0.1951
     76  CA        -1.7820  -11.9450    9.5830 C.3    44  THR44       0.1897
     77  C         -0.4360  -12.0270    8.8580 C.2    44  THR44       0.2313
     78  O         -0.4020  -12.3560    7.6840 O.2    44  THR44      -0.2863
     79  CB        -2.5120  -10.6510    9.0980 C.3    44  THR44       0.1794
     80  OG1       -1.6690   -9.5080    9.3070 O.3    44  THR44      -0.2208
     81  CG2       -3.8160  -10.4420    9.8530 C.3    44  THR44       0.0378
     82  N          2.5930   -3.7800    9.6680 N.3    48  ARG48      -0.1245
     83  CA         1.6580   -2.8270   10.2670 C.3    48  ARG48       0.1563
     84  C          2.4430   -1.6110   10.6950 C.2    48  ARG48       0.2260
     85  O          3.5430   -1.7540   11.2430 O.2    48  ARG48      -0.2867
     86  CB         0.9710   -3.4370   11.4980 C.3    48  ARG48       0.0307
     87  CG         0.1300   -4.7130   11.1990 C.3    48  ARG48       0.0489
     88  CD        -0.9570   -4.4510   10.1940 C.3    48  ARG48       0.2205
     89  NE        -1.9860   -5.4900   10.2840 N.pl3  48  ARG48      -0.0865
     90  CZ        -3.0340   -5.5850    9.4720 C.cat  48  ARG48       0.5346
     91  NH1       -3.1940   -4.7040    8.4870 N.pl3  48  ARG48       0.1354
     92  NH2       -3.9210   -6.5710    9.6440 N.pl3  48  ARG48       0.1354
     93  N          2.5440    2.0870   12.7880 N.3    50  THR50      -0.1204
     94  CA         1.9540    2.7420   13.9680 C.3    50  THR50       0.1979
     95  C          2.6980    4.0330   14.3090 C.2    50  THR50       0.2460
     96  O          3.9180    4.0090   14.5090 O.2    50  THR50      -0.2732
     97  CB         2.0930    1.7960   15.1870 C.3    50  THR50       0.1783
     98  OG1        1.4660    0.5280   14.8960 O.3    50  THR50      -0.2211
     99  CG2        1.3940    2.4130   16.4040 C.3    50  THR50       0.0376
    100  N          1.9870    5.1810   14.3910 N.am   51  PRO51      -0.2717
    101  CA         2.6550    6.4080   14.8370 C.3    51  PRO51       0.1535
    102  C          2.7550    6.4100   16.3740 C.2    51  PRO51       0.2598
    103  O          1.7900    6.0100   17.0800 O.2    51  PRO51      -0.2715
    104  CB         1.7410    7.5130   14.3020 C.3    51  PRO51       0.0310
    105  CG         0.3480    6.8680   14.3100 C.3    51  PRO51       0.0237
    106  CD         0.5760    5.3910   14.0320 C.3    51  PRO51       0.0939
    107  N          3.9530    6.7660   16.8610 N.am   52  LEU52      -0.1964
    108  CA         4.2750    6.7340   18.3100 C.3    52  LEU52       0.1728
    109  C          5.1240    7.9500   18.6540 C.2    52  LEU52       0.2616
    110  O          5.7340    8.5740   17.7500 O.2    52  LEU52      -0.2715
    111  CB         4.9760    5.4270   18.7320 C.3    52  LEU52       0.0311
    112  CG         4.1980    4.1480   18.4280 C.3    52  LEU52       0.0022
    113  CD1        5.1170    2.9540   18.5880 C.3    52  LEU52       0.0001
    114  CD2        3.0320    4.0330   19.4000 C.3    52  LEU52       0.0001
    115  N          5.1830    8.3320   19.9240 N.am   53  MET53      -0.1977
    116  CA         6.0200    9.4890   20.2580 C.3    53  MET53       0.1605
    117  C          7.4860    9.1580   20.0800 C.2    53  MET53       0.2287
    118  O          7.9100    8.0440   20.3820 O.2    53  MET53      -0.2864
    119  CB         5.8130    9.9840   21.6900 C.3    53  MET53       0.0413
    120  CG         4.3860   10.4120   22.0010 C.3    53  MET53       0.0598
    121  SD         3.6030   11.5430   20.8260 S.3    53  MET53      -0.1393
    122  CE         4.7010   12.9680   20.8020 C.3    53  MET53       0.0692
    123  N          6.5240    3.7400   24.1430 N.3    64  VAL64      -0.1231
    124  CA         5.6360    3.4500   25.2610 C.3    64  VAL64       0.1692
    125  C          4.3170    2.9080   24.7560 C.2    64  VAL64       0.2592
    126  O          3.6920    3.5320   23.8980 O.2    64  VAL64      -0.2718
    127  CB         5.3410    4.7360   26.0250 C.3    64  VAL64       0.0266
    128  CG1        4.3080    4.4880   27.1270 C.3    64  VAL64       0.0020
    129  CG2        6.6360    5.2830   26.6580 C.3    64  VAL64       0.0020
    130  N          3.8780    1.7650   25.2790 N.am   65  ALA65      -0.1966
    131  CA         2.6100    1.1670   24.8430 C.3    65  ALA65       0.1728
    132  C          1.5660    1.5450   25.8810 C.2    65  ALA65       0.2617
    133  O          1.4670    0.8770   26.8920 O.2    65  ALA65      -0.2715
    134  CB         2.7140   -0.3450   24.7230 C.3    65  ALA65       0.0334
    135  N          0.8190    2.6330   25.6530 N.am   66  SER66      -0.1936
    136  CA        -0.1980    3.0580   26.6430 C.3    66  SER66       0.2055
    137  C         -1.2810    3.9190   26.0330 C.2    66  SER66       0.2642
    138  O         -0.9910    5.0140   25.5460 O.2    66  SER66      -0.2714
    139  CB         0.4390    3.8480   27.7990 C.3    66  SER66       0.2130
    140  OG        -0.5290    4.1120   28.8180 O.3    66  SER66      -0.2179
    141  N         -2.5300    3.4400   26.0920 N.am   67  LEU67      -0.1977
    142  CA        -3.6690    4.2300   25.6290 C.3    67  LEU67       0.1596
    143  C         -4.1340    5.0360   26.8330 C.2    67  LEU67       0.2287
    144  O         -5.1430    4.7010   27.4630 O.2    67  LEU67      -0.2864
    145  CB        -4.8040    3.2960   25.1560 C.3    67  LEU67       0.0297
    146  CG        -4.3510    2.3190   24.0590 C.3    67  LEU67       0.0022
    147  CD1       -5.3890    1.2080   23.7860 C.3    67  LEU67       0.0001
    148  CD2       -3.9910    3.1050   22.7970 C.3    67  LEU67       0.0001
    149  N         -2.2940   -2.0650   23.2770 N.3    74  PRO74      -0.2102
    150  CA        -2.3890   -1.8710   21.8150 C.3    74  PRO74       0.1504
    151  C         -2.0140   -3.1460   21.0640 C.2    74  PRO74       0.2576
    152  O         -1.1460   -3.9010   21.4760 O.2    74  PRO74      -0.2718
    153  CB        -1.3050   -0.8320   21.5190 C.3    74  PRO74       0.0282
    154  CG        -1.0250   -0.1360   22.8350 C.3    74  PRO74       0.0208
    155  CD        -1.3150   -1.1620   23.9100 C.3    74  PRO74       0.0893
    156  N         -2.5970   -3.3470   19.8890 N.am   75  VAL75      -0.1966
    157  CA        -2.2990   -4.5610   19.1300 C.3    75  VAL75       0.1727
    158  C         -0.8380   -4.6520   18.7280 C.2    75  VAL75       0.2616
    159  O         -0.2690   -5.7360   18.7220 O.2    75  VAL75      -0.2715
    160  CB        -3.2030   -4.6910   17.8640 C.3    75  VAL75       0.0290
    161  CG1       -2.8080   -5.9070   17.0460 C.3    75  VAL75       0.0023
    162  CG2       -4.6390   -4.7920   18.2570 C.3    75  VAL75       0.0023
    163  N         -0.1900   -3.5170   18.3940 N.am   76  TRP76      -0.1974
    164  CA         1.2420   -3.5830   18.0650 C.3    76  TRP76       0.1640
    165  C          2.1540   -4.1240   19.1780 C.2    76  TRP76       0.2290
    166  O          3.2610   -4.6000   18.8930 O.2    76  TRP76      -0.2864
    167  CB         1.7860   -2.2170   17.5820 C.3    76  TRP76       0.0576
    168  CG         1.6810   -1.1010   18.5660 C.ar   76  TRP76       0.0006
    169  CD1        0.6340   -0.2280   18.7100 C.ar   76  TRP76       0.0946
    170  CD2        2.6730   -0.7030   19.5190 C.ar   76  TRP76       0.0152
    171  NE1        0.9050    0.6700   19.7210 N.ar   76  TRP76      -0.2442
    172  CE2        2.1480    0.4000   20.2300 C.ar   76  TRP76       0.0810
    173  CE3        3.9450   -1.1960   19.8660 C.ar   76  TRP76       0.0012
    174  CZ2        2.8640    1.0560   21.2530 C.ar   76  TRP76       0.0191
    175  CZ3        4.6610   -0.5440   20.8680 C.ar   76  TRP76       0.0001
    176  CH2        4.1030    0.5560   21.5710 C.ar   76  TRP76       0.0015
    177  N          1.5210   -6.7950   20.7830 N.3    78  HIS78      -0.1226
    178  CA         1.5930   -8.2320   20.5080 C.3    78  HIS78       0.1752
    179  C          2.4830   -8.5540   19.3210 C.2    78  HIS78       0.2596
    180  O          3.1750   -9.5780   19.3080 O.2    78  HIS78      -0.2718
    181  CB         0.1970   -8.8270   20.3010 C.3    78  HIS78       0.0759
    182  CG        -0.7280   -8.5920   21.4540 C.ar   78  HIS78       0.0818
    183  ND1       -0.6020   -9.2460   22.6600 N.ar   78  HIS78      -0.2268
    184  CD2       -1.7860   -7.7550   21.5880 C.ar   78  HIS78       0.1154
    185  CE1       -1.5560   -8.8370   23.4820 C.ar   78  HIS78       0.1986
    186  NE2       -2.2870   -7.9310   22.8520 N.ar   78  HIS78      -0.2212
    187  N          2.4980   -7.6680   18.3310 N.am   79  ASN79      -0.1974
    188  CA         3.3740   -7.8900   17.1760 C.3    79  ASN79       0.1688
    189  C          4.8460   -7.8970   17.6260 C.2    79  ASN79       0.2292
    190  O          5.6230   -8.7680   17.2180 O.2    79  ASN79      -0.2864
    191  CB         3.1460   -6.8280   16.1080 C.3    79  ASN79       0.1181
    192  CG         1.7480   -6.8750   15.5310 C.2    79  ASN79       0.2629
    193  OD1        1.0300   -7.8550   15.7370 O.2    79  ASN79      -0.2716
    194  ND2        1.3420   -5.8220   14.8290 N.am   79  ASN79      -0.0877
    195  N          2.4940   11.4820   29.6080 N.3   121  TYR121     -0.1241
    196  CA         2.7960   10.0950   30.0520 C.3   121  TYR121      0.1605
    197  C          2.7910    9.9870   31.5790 C.2   121  TYR121      0.2264
    198  O          2.3220    8.9920   32.1540 O.2   121  TYR121     -0.2867
    199  CB         4.1670    9.6220   29.5760 C.3   121  TYR121      0.0534
    200  CG         4.3070    9.1790   28.1150 C.ar  121  TYR121     -0.0201
    201  CD1        3.3760    8.3240   27.5230 C.ar  121  TYR121     -0.0009
    202  CD2        5.4310    9.5580   27.3580 C.ar  121  TYR121     -0.0009
    203  CE1        3.5400    7.9040   26.2140 C.ar  121  TYR121      0.0417
    204  CE2        5.6130    9.1380   26.0790 C.ar  121  TYR121      0.0417
    205  CZ         4.6590    8.3180   25.4870 C.ar  121  TYR121      0.1957
    206  OH         4.8960    7.9180   24.1750 O.3   121  TYR121     -0.2866
@<TRIPOS>BOND
     1    78    77    2
     2    91    90    1
     3    77    76    1
     4    79    80    1
     5    79    76    1
     6    79    81    1
     7    36    35    2
     8    90    92    1
     9    90    89    2
    10    76    75    1
    11    82    83    1
    12    35    34    1
    13    88    89    1
    14    88    87    1
    15    83    84    1
    16    83    86    1
    17    33    34    1
    18    34    37    1
    19    84    85    2
    20    69    68    2
    21    75    68   am
    22    87    86    1
    23    57    58    1
    24    68    67    1
    25    37    38    1
    26    60    59    2
    27    31    30    2
    28    58    59    1
    29    38    39    1
    30    26    27   ar
    31    26    24   ar
    32    30    29    1
    33    17    16    2
    34    93    94    1
    35    59    61   am
    36    27    25   ar
    37    24    21   ar
    38    67    70    1
    39    67    66    1
    40    16    15    1
    41    16    28   am
    42    41    39   am
    43    70    71    1
    44    39    40    2
    45    15    14    1
    46    15    18    1
    47    66    63   am
    48    11    10    2
    49    25    23   ar
    50    94    95    1
    51    94    97    1
    52   106   105    1
    53   106   100    1
    54    64    63    2
    55    29    28    1
    56    29    32    1
    57    61    62    1
    58    21    23   ar
    59    21    19   ar
    60    63    62    1
    61   104   105    1
    62   104   101    1
    63    95   100   am
    64    95    96    2
    65    53    52    2
    66   100   101    1
    67    23    22   ar
    68    10     9    1
    69    62    65    1
    70   194   192   am
    71   101   102    1
    72    98    97    1
    73    18    19    1
    74    19    20   ar
    75    71    72    1
    76    97    99    1
    77    55    54    1
    78    52    51    1
    79   192   193    2
    80   192   191    1
    81    22    20   ar
    82    54    51    1
    83    54    56    1
    84    72    73    1
    85    13    12    1
    86     9    12    1
    87     9     8    1
    88   191   188    1
    89    51    50    1
    90   102   107   am
    91   102   103    2
    92     4     3    2
    93    42    43    1
    94   107   108    1
    95     8     3   am
    96   161   160    1
    97   188   189    1
    98   188   187    1
    99    73    74    1
   100   190   189    2
   101     3     2    1
   102    43    46    1
   103    43    44    1
   104   167   164    1
   105   167   168    1
   106   110   109    2
   107   160   162    1
   108   160   157    1
   109    48    47    1
   110   164   163    1
   111   164   165    1
   112     1     2    1
   113     1     7    1
   114    46    47    1
   115     2     5    1
   116   108   109    1
   117   108   111    1
   118   187   179   am
   119   163   158   am
   120   112   113    1
   121   112   111    1
   122   112   114    1
   123   168   169   ar
   124   168   170   ar
   125    44    45    2
   126   109   115   am
   127   169   171   ar
   128   159   158    2
   129   158   157    1
   130   166   165    2
   131    47    49    1
   132   157   156    1
   133   180   179    2
   134   179   178    1
   135     7     6    1
   136   170   173   ar
   137   170   172   ar
   138     5     6    1
   139   171   172   ar
   140   173   175   ar
   141   156   151   am
   142   115   116    1
   143   117   116    1
   144   117   118    2
   145   172   174   ar
   146   116   119    1
   147   181   178    1
   148   181   182    1
   149   178   177    1
   150   122   121    1
   151   121   120    1
   152   175   176   ar
   153   151   152    2
   154   151   150    1
   155   174   176   ar
   156   182   184   ar
   157   182   183   ar
   158   153   150    1
   159   153   154    1
   160   184   186   ar
   161   119   120    1
   162   150   149    1
   163   183   185   ar
   164   148   146    1
   165   154   155    1
   166   186   185   ar
   167   149   155    1
   168   147   146    1
   169   126   125    2
   170   146   145    1
   171   123   124    1
   172   206   205    1
   173   134   131    1
   174   125   124    1
   175   125   130   am
   176   131   130    1
   177   131   132    1
   178   145   142    1
   179   124   127    1
   180   205   204   ar
   181   205   203   ar
   182   138   137    2
   183   142   141    1
   184   142   143    1
   185   135   132   am
   186   135   136    1
   187   132   133    2
   188   127   129    1
   189   127   128    1
   190   137   141   am
   191   137   136    1
   192   204   202   ar
   193   203   201   ar
   194   136   139    1
   195   143   144    2
   196   202   200   ar
   197   201   200   ar
   198   139   140    1
   199   200   199    1
   200   199   196    1
   201   195   196    1
   202   196   197    1
   203   197   198    2
