@<TRIPOS>MOLECULE
tmp/3r6cB01.pdb
 119 114 0 0 0
SMALL
GASTEIGER

@<TRIPOS>ATOM
      1  N        -29.5990  -31.9600    2.8470 N.3   216  SER216     -0.1202
      2  CA       -30.2660  -33.0230    3.5640 C.3   216  SER216      0.2020
      3  C        -29.2220  -33.7990    4.3560 C.2   216  SER216      0.2619
      4  O        -28.4770  -34.6000    3.8010 O.2   216  SER216     -0.2717
      5  CB       -31.0150  -33.9600    2.6230 C.3   216  SER216      0.2103
      6  OG       -31.5680  -35.0150    3.3890 O.3   216  SER216     -0.2182
      7  N        -29.1820  -33.5560    5.6580 N.am  217  VAL217     -0.1965
      8  CA       -28.1280  -34.0690    6.4920 C.3   217  VAL217      0.1727
      9  C        -28.7020  -34.6490    7.7890 C.2   217  VAL217      0.2616
     10  O        -29.7220  -34.1820    8.2960 O.2   217  VAL217     -0.2715
     11  CB       -27.0590  -32.9550    6.7590 C.3   217  VAL217      0.0290
     12  CG1      -26.2640  -33.2350    7.9940 C.3   217  VAL217      0.0023
     13  CG2      -26.1230  -32.8300    5.5500 C.3   217  VAL217      0.0023
     14  N        -28.0670  -35.7070    8.2770 N.am  218  LEU218     -0.1977
     15  CA       -28.2980  -36.1870    9.6260 C.3   218  LEU218      0.1596
     16  C        -27.0080  -35.8890   10.3610 C.2   218  LEU218      0.2287
     17  O        -25.9650  -36.4490   10.0220 O.2   218  LEU218     -0.2864
     18  CB       -28.6030  -37.6930    9.6410 C.3   218  LEU218      0.0297
     19  CG       -29.8380  -38.1880    8.8690 C.3   218  LEU218      0.0022
     20  CD1      -30.0700  -39.6890    9.1210 C.3   218  LEU218      0.0001
     21  CD2      -31.0930  -37.3860    9.1960 C.3   218  LEU218      0.0001
     22  N        -31.7610  -33.8370   12.5560 N.3   239  ARG239     -0.1231
     23  CA       -32.1800  -34.0500   11.1780 C.3   239  ARG239      0.1694
     24  C        -32.3160  -32.7090   10.4990 C.2   239  ARG239      0.2592
     25  O        -32.9720  -31.8110   11.0220 O.2   239  ARG239     -0.2718
     26  CB       -33.5370  -34.7400   11.1040 C.3   239  ARG239      0.0321
     27  CG       -33.6080  -36.1310   11.6680 C.3   239  ARG239      0.0489
     28  CD       -34.9360  -36.7360   11.2750 C.3   239  ARG239      0.2205
     29  NE       -36.0820  -36.0470   11.8680 N.pl3 239  ARG239     -0.0865
     30  CZ       -37.3470  -36.4310   11.7120 C.cat 239  ARG239      0.5346
     31  NH1      -37.6390  -37.4920   10.9740 N.pl3 239  ARG239      0.1354
     32  NH2      -38.3260  -35.7530   12.2920 N.pl3 239  ARG239      0.1354
     33  N        -31.7180  -32.5930    9.3240 N.am  240  VAL240     -0.1966
     34  CA       -31.7610  -31.3570    8.5640 C.3   240  VAL240      0.1727
     35  C        -32.4610  -31.6230    7.2380 C.2   240  VAL240      0.2616
     36  O        -31.9870  -32.4120    6.4210 O.2   240  VAL240     -0.2715
     37  CB       -30.3450  -30.7990    8.3190 C.3   240  VAL240      0.0290
     38  CG1      -30.4220  -29.4510    7.6490 C.3   240  VAL240      0.0023
     39  CG2      -29.5670  -30.7160    9.6280 C.3   240  VAL240      0.0023
     40  N        -33.5970  -30.9600    7.0560 N.am  241  ALA241     -0.1977
     41  CA       -34.4030  -31.0550    5.8480 C.3   241  ALA241      0.1597
     42  C        -35.1780  -29.7550    5.6510 C.2   241  ALA241      0.2287
     43  O        -35.5740  -29.1070    6.6270 O.2   241  ALA241     -0.2864
     44  CB       -35.3690  -32.2240    5.9520 C.3   241  ALA241      0.0319
     45  N        -34.6360  -26.7020    7.7540 N.3   244  SER244     -0.1202
     46  CA       -35.0150  -26.7660    9.1720 C.3   244  SER244      0.2020
     47  C        -34.3650  -27.9440    9.8920 C.2   244  SER244      0.2619
     48  O        -34.1440  -29.0080    9.2970 O.2   244  SER244     -0.2717
     49  CB       -36.5410  -26.8230    9.3250 C.3   244  SER244      0.2103
     50  OG       -37.0660  -28.0210    8.7680 O.3   244  SER244     -0.2182
     51  N        -34.0540  -27.7350   11.1700 N.am  245  VAL245     -0.1965
     52  CA       -33.4370  -28.7490   12.0120 C.3   245  VAL245      0.1727
     53  C        -34.4520  -29.2420   13.0440 C.2   245  VAL245      0.2616
     54  O        -35.1820  -28.4440   13.6390 O.2   245  VAL245     -0.2715
     55  CB       -32.2020  -28.1860   12.7720 C.3   245  VAL245      0.0290
     56  CG1      -31.5380  -29.2670   13.6160 C.3   245  VAL245      0.0023
     57  CG2      -31.1900  -27.5810   11.8060 C.3   245  VAL245      0.0023
     58  N        -34.5150  -30.5520   13.2420 N.am  246  ASP246     -0.1971
     59  CA       -35.1550  -31.0830   14.4420 C.3   246  ASP246      0.1709
     60  C        -34.2810  -32.1540   15.0750 C.2   246  ASP246      0.2293
     61  O        -33.4050  -32.7270   14.4250 O.2   246  ASP246     -0.2864
     62  CB       -36.6150  -31.5260   14.2010 C.3   246  ASP246      0.1436
     63  CG       -36.7330  -32.8740   13.5250 C.2   246  ASP246      0.3671
     64  OD1      -35.8040  -33.2940   12.8100 O.co2 246  ASP246     -0.2456
     65  OD2      -37.7890  -33.5170   13.7020 O.co2 246  ASP246     -0.2456
     66  N        -30.4070  -42.8150    4.2430 N.3   301  VAL301     -0.1231
     67  CA       -31.5570  -42.0430    4.7370 C.3   301  VAL301      0.1692
     68  C        -31.3750  -40.5540    4.4350 C.2   301  VAL301      0.2591
     69  O        -32.2880  -39.9010    3.9190 O.2   301  VAL301     -0.2718
     70  CB       -31.8320  -42.3150    6.2360 C.3   301  VAL301      0.0266
     71  CG1      -32.8780  -41.3590    6.8050 C.3   301  VAL301      0.0020
     72  CG2      -32.3180  -43.7640    6.4060 C.3   301  VAL301      0.0020
     73  N        -30.1800  -40.0330    4.7150 N.am  302  ALA302     -0.1980
     74  CA       -29.8510  -38.6360    4.3680 C.3   302  ALA302      0.1597
     75  C        -30.0490  -38.3700    2.8770 C.2   302  ALA302      0.2287
     76  O        -30.5750  -37.3250    2.4840 O.2   302  ALA302     -0.2864
     77  CB       -28.4060  -38.3100    4.7780 C.3   302  ALA302      0.0319
     78  N        -32.0670  -40.0350    0.8940 N.3   304  ALA304     -0.1231
     79  CA       -33.5080  -40.1010    0.6340 C.3   304  ALA304      0.1694
     80  C        -34.1740  -38.7810    0.9740 C.2   304  ALA304      0.2592
     81  O        -35.0660  -38.3370    0.2580 O.2   304  ALA304     -0.2718
     82  CB       -34.1510  -41.2390    1.4230 C.3   304  ALA304      0.0304
     83  N        -33.7140  -38.1500    2.0540 N.am  305  GLY305     -0.1957
     84  CA       -34.1870  -36.8300    2.4690 C.3   305  GLY305      0.1869
     85  C        -34.0590  -35.7340    1.4190 C.2   305  GLY305      0.2309
     86  O        -34.6970  -34.6830    1.5420 O.2   305  GLY305     -0.2863
     87  N        -39.9970  -38.2020    1.1060 N.3   310  ALA310     -0.1231
     88  CA       -39.3440  -39.2390    1.9180 C.3   310  ALA310      0.1694
     89  C        -39.9710  -39.3740    3.3050 C.2   310  ALA310      0.2592
     90  O        -40.3000  -38.3730    3.9410 O.2   310  ALA310     -0.2718
     91  CB       -37.8510  -38.9650    2.0400 C.3   310  ALA310      0.0304
     92  N        -40.1490  -40.6150    3.7560 N.am  311  GLU311     -0.1966
     93  CA       -40.6980  -40.8980    5.0850 C.3   311  GLU311      0.1733
     94  C        -39.6380  -41.6040    5.9200 C.2   311  GLU311      0.2616
     95  O        -38.9850  -42.5250    5.4300 O.2   311  GLU311     -0.2715
     96  CB       -41.9470  -41.7810    4.9830 C.3   311  GLU311      0.0429
     97  CG       -43.0670  -41.2050    4.1080 C.3   311  GLU311      0.1163
     98  CD       -44.2780  -42.1260    3.9940 C.2   311  GLU311      0.3649
     99  OE1      -44.3530  -43.1450    4.7220 O.co2 311  GLU311     -0.2457
    100  OE2      -45.1670  -41.8250    3.1660 O.co2 311  GLU311     -0.2457
    101  N        -39.5020  -41.1910    7.1800 N.am  312  TRP312     -0.1974
    102  CA       -38.4240  -41.6360    8.0940 C.3   312  TRP312      0.1640
    103  C        -38.2130  -43.1580    8.2360 C.2   312  TRP312      0.2290
    104  O        -37.1340  -43.6800    7.9180 O.2   312  TRP312     -0.2864
    105  CB       -38.6500  -40.9970    9.4680 C.3   312  TRP312      0.0576
    106  CG       -37.5650  -41.1940   10.4820 C.ar  312  TRP312      0.0006
    107  CD1      -37.6640  -41.8750   11.6570 C.ar  312  TRP312      0.0946
    108  CD2      -36.2310  -40.6630   10.4360 C.ar  312  TRP312      0.0152
    109  NE1      -36.4710  -41.8150   12.3440 N.ar  312  TRP312     -0.2442
    110  CE2      -35.5760  -41.0770   11.6170 C.ar  312  TRP312      0.0810
    111  CE3      -35.5240  -39.8830    9.5070 C.ar  312  TRP312      0.0012
    112  CZ2      -34.2480  -40.7320   11.9020 C.ar  312  TRP312      0.0191
    113  CZ3      -34.1990  -39.5480    9.7860 C.ar  312  TRP312      0.0001
    114  CH2      -33.5760  -39.9740   10.9760 C.ar  312  TRP312      0.0015
    115  N        -37.5710  -45.0610    4.9460 N.3   315  ALA315     -0.1245
    116  CA       -36.2260  -44.7490    4.4480 C.3   315  ALA315      0.1562
    117  C        -35.1870  -45.6000    5.1650 C.2   315  ALA315      0.2260
    118  O        -34.3040  -46.1660    4.5290 O.2   315  ALA315     -0.2867
    119  CB       -35.9040  -43.2720    4.6000 C.3   315  ALA315      0.0290
@<TRIPOS>BOND
     1    81    80    2
     2    79    78    1
     3    79    80    1
     4    79    82    1
     5    80    83   am
     6    87    88    1
     7    85    86    2
     8    85    84    1
     9    88    91    1
    10    88    89    1
    11    83    84    1
    12    76    75    2
    13     5     6    1
    14     5     2    1
    15     1     2    1
    16    75    74    1
    17   100    98   ar
    18    89    92   am
    19    89    90    2
    20     2     3    1
    21    92    93    1
    22     4     3    2
    23    69    68    2
    24    98    97    1
    25    98    99   ar
    26    97    96    1
    27    66    67    1
    28     3     7   am
    29    74    73    1
    30    74    77    1
    31    68    73   am
    32    68    67    1
    33   116   119    1
    34   116   115    1
    35   116   117    1
    36   118   117    2
    37    67    70    1
    38    96    93    1
    39    93    94    1
    40    95    94    2
    41    13    11    1
    42    42    41    1
    43    42    43    2
    44     7     8    1
    45    41    44    1
    46    41    40    1
    47    94   101   am
    48    70    72    1
    49    70    71    1
    50    36    35    2
    51     8    11    1
    52     8     9    1
    53    11    12    1
    54    40    35   am
    55   101   102    1
    56    35    34    1
    57    38    37    1
    58    45    46    1
    59     9    14   am
    60     9    10    2
    61   104   103    2
    62   102   103    1
    63   102   105    1
    64    14    15    1
    65    37    34    1
    66    37    39    1
    67    34    33    1
    68    50    49    1
    69    19    20    1
    70    19    21    1
    71    19    18    1
    72    46    49    1
    73    46    47    1
    74    48    47    2
    75    33    24   am
    76   105   106    1
    77   111   113   ar
    78   111   108   ar
    79    15    18    1
    80    15    16    1
    81   113   114   ar
    82    47    51   am
    83    17    16    2
    84   108   106   ar
    85   108   110   ar
    86   106   107   ar
    87    24    25    2
    88    24    23    1
    89    31    30    1
    90   114   112   ar
    91    26    23    1
    92    26    27    1
    93    51    52    1
    94    23    22    1
    95    28    27    1
    96    28    29    1
    97   110   112   ar
    98   110   109   ar
    99   107   109   ar
   100    30    29    2
   101    30    32    1
   102    57    55    1
   103    52    55    1
   104    52    53    1
   105    55    56    1
   106    64    63   ar
   107    53    58   am
   108    53    54    2
   109    58    59    1
   110    63    65   ar
   111    63    62    1
   112    62    59    1
   113    61    60    2
   114    59    60    1
