@<TRIPOS>MOLECULE
tmp/3r6cA01.pdb
 173 167 0 0 0
SMALL
GASTEIGER

@<TRIPOS>ATOM
      1  N          7.6090  -15.0200   36.6830 N.3    62  MET62      -0.1245
      2  CA         8.3420  -13.8950   36.1130 C.3    62  MET62       0.1570
      3  C          9.3490  -13.3470   37.1080 C.2    62  MET62       0.2261
      4  O         10.5020  -13.0970   36.7490 O.2    62  MET62      -0.2867
      5  CB         7.3850  -12.7960   35.6680 C.3    62  MET62       0.0387
      6  CG         6.6250  -13.1790   34.4380 C.3    62  MET62       0.0595
      7  SD         5.3990  -11.9370   34.0390 S.3    62  MET62      -0.1393
      8  CE         6.4440  -10.6580   33.4110 C.3    62  MET62       0.0692
      9  N         -1.3960   -0.8010   34.2890 N.3    84  THR84      -0.1218
     10  CA        -1.4410   -1.7110   33.1700 C.3    84  THR84       0.1862
     11  C         -1.2550   -0.9910   31.8450 C.2    84  THR84       0.2287
     12  O         -0.8330   -1.6080   30.8570 O.2    84  THR84      -0.2866
     13  CB        -2.8060   -2.4120   33.0920 C.3    84  THR84       0.1770
     14  OG1       -3.8340   -1.4250   33.0040 O.3    84  THR84      -0.2211
     15  CG2       -3.0400   -3.2550   34.3220 C.3    84  THR84       0.0375
     16  N          8.4890    0.6330   38.4460 N.3   112  HIS112     -0.1241
     17  CA         8.5870   -0.2830   37.3340 C.3   112  HIS112      0.1621
     18  C          7.9390    0.4180   36.1590 C.2   112  HIS112      0.2264
     19  O          6.9910    1.1960   36.3290 O.2   112  HIS112     -0.2867
     20  CB         7.8230   -1.5570   37.6860 C.3   112  HIS112      0.0745
     21  CG         8.1840   -2.7450   36.8520 C.ar  112  HIS112      0.0817
     22  ND1        7.3240   -3.8070   36.6790 N.ar  112  HIS112     -0.2268
     23  CD2        9.3030   -3.0480   36.1550 C.ar  112  HIS112      0.1154
     24  CE1        7.9020   -4.7190   35.9180 C.ar  112  HIS112      0.1986
     25  NE2        9.1050   -4.2860   35.5910 N.ar  112  HIS112     -0.2212
     26  N          7.5160    0.8300   31.4750 N.3   114  ASN114     -0.1225
     27  CA         7.7610    0.4270   30.1120 C.3   114  ASN114      0.1785
     28  C          7.3980    1.5460   29.1680 C.2   114  ASN114      0.2597
     29  O          6.7890    2.5560   29.5580 O.2   114  ASN114     -0.2718
     30  CB         6.9460   -0.8200   29.7590 C.3   114  ASN114      0.1169
     31  CG         7.7200   -1.7840   28.8740 C.2   114  ASN114      0.2627
     32  OD1        8.4320   -1.3750   27.9360 O.2   114  ASN114     -0.2716
     33  ND2        7.6130   -3.0700   29.1860 N.am  114  ASN114     -0.0877
     34  N          7.7890    1.3620   27.9140 N.am  115  ARG115     -0.1979
     35  CA         7.3850    2.2640   26.8650 C.3   115  ARG115      0.1597
     36  C          5.9020    2.0660   26.5900 C.2   115  ARG115      0.2287
     37  O          5.2560    1.1760   27.1640 O.2   115  ARG115     -0.2864
     38  CB         8.2210    2.0040   25.6100 C.3   115  ARG115      0.0334
     39  CG         9.7400    2.1160   25.8550 C.3   115  ARG115      0.0492
     40  CD        10.4620    2.2010   24.5230 C.3   115  ARG115      0.2205
     41  NE        11.9160    2.3060   24.6550 N.pl3 115  ARG115     -0.0865
     42  CZ        12.5900    3.4530   24.6940 C.cat 115  ARG115      0.5346
     43  NH1       11.9470    4.6070   24.6490 N.pl3 115  ARG115      0.1354
     44  NH2       13.9160    3.4420   24.7890 N.pl3 115  ARG115      0.1354
     45  N          2.4740    1.0250   24.7170 N.3   117  ALA117     -0.1245
     46  CA         1.9940   -0.1290   23.9660 C.3   117  ALA117      0.1562
     47  C          0.9570    0.3220   22.9380 C.2   117  ALA117      0.2260
     48  O          1.0070   -0.1040   21.7760 O.2   117  ALA117     -0.2867
     49  CB         1.4160   -1.1760   24.9150 C.3   117  ALA117      0.0290
     50  N         11.1330   -2.4670   32.4420 N.3   155  ALA155     -0.1231
     51  CA        10.7330   -3.8860   32.4300 C.3   155  ALA155      0.1679
     52  C         11.6200   -4.7460   31.5100 C.2   155  ALA155      0.2434
     53  O         12.0800   -5.7960   31.9370 O.2   155  ALA155     -0.2733
     54  CB         9.2280   -4.0480   32.1040 C.3   155  ALA155      0.0304
     55  N         11.8780   -4.2930   30.2630 N.am  156  PRO156     -0.2729
     56  CA        12.7510   -5.0650   29.3620 C.3   156  PRO156      0.1401
     57  C         14.1590   -5.3610   29.8890 C.2   156  PRO156      0.2269
     58  O         14.7010   -6.4390   29.6290 O.2   156  PRO156     -0.2865
     59  CB        12.7920   -4.2000   28.0970 C.3   156  PRO156      0.0296
     60  CG        11.4630   -3.5390   28.0750 C.3   156  PRO156      0.0237
     61  CD        11.1720   -3.2240   29.5270 C.3   156  PRO156      0.0939
     62  N         13.4300   -8.0800   32.8420 N.3   159  HIS159     -0.1227
     63  CA        12.6400   -9.2580   32.4540 C.3   159  HIS159      0.1737
     64  C         12.9380   -9.7030   31.0150 C.2   159  HIS159      0.2438
     65  O         12.0070   -9.8600   30.2100 O.2   159  HIS159     -0.2733
     66  CB        11.1390   -8.9370   32.5680 C.3   159  HIS159      0.0758
     67  CG        10.6650   -8.7350   33.9710 C.ar  159  HIS159      0.0818
     68  ND1       10.3880   -7.4880   34.4890 N.ar  159  HIS159     -0.2268
     69  CD2       10.4150   -9.6210   34.9630 C.ar  159  HIS159      0.1154
     70  CE1        9.9940   -7.6150   35.7460 C.ar  159  HIS159      0.1986
     71  NE2        9.9980   -8.8990   36.0560 N.ar  159  HIS159     -0.2212
     72  N         14.2260   -9.9370   30.6850 N.am  160  PRO160     -0.2729
     73  CA        14.5670  -10.2790   29.2990 C.3   160  PRO160      0.1401
     74  C         13.8420  -11.5220   28.7950 C.2   160  PRO160      0.2269
     75  O         13.5070  -11.5900   27.6100 O.2   160  PRO160     -0.2865
     76  CB        16.0720  -10.5790   29.3710 C.3   160  PRO160      0.0296
     77  CG        16.3280  -10.9350   30.8010 C.3   160  PRO160      0.0237
     78  CD        15.4070  -10.0250   31.5630 C.3   160  PRO160      0.0939
     79  N         10.9200  -12.4750   29.2610 N.3   162  TYR162     -0.1227
     80  CA         9.5110  -12.2240   28.9290 C.3   162  TYR162      0.1736
     81  C          9.3100  -11.8050   27.4710 C.2   162  TYR162      0.2595
     82  O          8.1750  -11.6640   27.0140 O.2   162  TYR162     -0.2718
     83  CB         8.9180  -11.1830   29.8930 C.3   162  TYR162      0.0548
     84  CG         7.4410  -10.8490   29.6880 C.ar  162  TYR162     -0.0200
     85  CD1        6.4340  -11.6000   30.3000 C.ar  162  TYR162     -0.0009
     86  CD2        7.0600   -9.7730   28.8910 C.ar  162  TYR162     -0.0009
     87  CE1        5.0650  -11.2670   30.1230 C.ar  162  TYR162      0.0417
     88  CE2        5.7010   -9.4400   28.7020 C.ar  162  TYR162      0.0417
     89  CZ         4.7180  -10.1870   29.3180 C.ar  162  TYR162      0.1957
     90  OH         3.3820   -9.8330   29.1200 O.3   162  TYR162     -0.2866
     91  N         10.4020  -11.6420   26.7270 N.am  163  ARG163     -0.1980
     92  CA        10.3270  -11.1590   25.3420 C.3   163  ARG163      0.1597
     93  C          9.3810  -11.9640   24.4370 C.2   163  ARG163      0.2287
     94  O          8.7250  -11.3980   23.5600 O.2   163  ARG163     -0.2864
     95  CB        11.7260  -11.0600   24.7200 C.3   163  ARG163      0.0334
     96  CG        12.4610  -12.3840   24.5870 C.3   163  ARG163      0.0492
     97  CD        13.8020  -12.1870   23.8800 C.3   163  ARG163      0.2205
     98  NE        14.5130  -13.4460   23.6990 N.pl3 163  ARG163     -0.0865
     99  CZ        15.2500  -14.0270   24.6410 C.cat 163  ARG163      0.5346
    100  NH1       15.3670  -13.4660   25.8380 N.pl3 163  ARG163      0.1354
    101  NH2       15.8690  -15.1740   24.3880 N.pl3 163  ARG163      0.1354
    102  N          5.8750  -10.9680   25.3760 N.3   166  ALA166     -0.1245
    103  CA         5.7110   -9.5880   24.9230 C.3   166  ALA166      0.1562
    104  C          5.3730   -9.4940   23.4430 C.2   166  ALA166      0.2260
    105  O          4.4570   -8.7590   23.0560 O.2   166  ALA166     -0.2867
    106  CB         6.9740   -8.7710   25.2350 C.3   166  ALA166      0.0290
    107  N          1.7960  -10.6570   23.0050 N.3   169  ARG169     -0.1231
    108  CA         0.9640   -9.5970   23.5790 C.3   169  ARG169      0.1694
    109  C          0.7170   -8.4900   22.5420 C.2   169  ARG169      0.2591
    110  O         -0.4240   -8.0630   22.3290 O.2   169  ARG169     -0.2718
    111  CB         1.6810   -9.0370   24.8160 C.3   169  ARG169      0.0321
    112  CG         0.8290   -8.3450   25.8600 C.3   169  ARG169      0.0489
    113  CD         0.6820   -6.8610   25.5500 C.3   169  ARG169      0.2205
    114  NE         0.8880   -6.0250   26.7300 N.pl3 169  ARG169     -0.0865
    115  CZ         0.5350   -4.7460   26.8140 C.cat 169  ARG169      0.5346
    116  NH1        0.7650   -4.0680   27.9240 N.pl3 169  ARG169      0.1354
    117  NH2       -0.0550   -4.1440   25.7950 N.pl3 169  ARG169      0.1354
    118  N          1.7920   -8.0460   21.8950 N.am  170  ARG170     -0.1980
    119  CA         1.7290   -7.0070   20.8690 C.3   170  ARG170      0.1597
    120  C          1.0550   -7.4940   19.5800 C.2   170  ARG170      0.2287
    121  O          0.3130   -6.7430   18.9450 O.2   170  ARG170     -0.2864
    122  CB         3.1350   -6.4520   20.5880 C.3   170  ARG170      0.0334
    123  CG         3.2230   -5.4890   19.3910 C.3   170  ARG170      0.0492
    124  CD         4.6750   -5.1720   18.9780 C.3   170  ARG170      0.2205
    125  NE         5.4990   -6.3800   18.8600 N.pl3 170  ARG170     -0.0865
    126  CZ         5.4450   -7.2520   17.8500 C.cat 170  ARG170      0.5346
    127  NH1        4.6060   -7.0700   16.8300 N.pl3 170  ARG170      0.1354
    128  NH2        6.2340   -8.3170   17.8590 N.pl3 170  ARG170      0.1354
    129  N         -2.1110  -11.1930   30.4520 N.3   178  PHE178     -0.1227
    130  CA        -0.7220  -10.7330   30.3620 C.3   178  PHE178      0.1736
    131  C         -0.5950   -9.2360   30.6540 C.2   178  PHE178      0.2595
    132  O          0.4200   -8.7950   31.1830 O.2   178  PHE178     -0.2718
    133  CB        -0.1160  -11.0260   28.9880 C.3   178  PHE178      0.0547
    134  CG         0.2620  -12.4810   28.7780 C.ar  178  PHE178     -0.0202
    135  CD1       -0.2340  -13.4760   29.6080 C.ar  178  PHE178     -0.0042
    136  CD2        1.0640  -12.8440   27.7020 C.ar  178  PHE178     -0.0042
    137  CE1        0.1070  -14.8180   29.4020 C.ar  178  PHE178     -0.0003
    138  CE2        1.4110  -14.1810   27.4850 C.ar  178  PHE178     -0.0003
    139  CZ         0.9330  -15.1650   28.3390 C.ar  178  PHE178     -0.0000
    140  N         -1.6340   -8.4750   30.3210 N.am  179  ASN179     -0.1974
    141  CA        -1.6150   -7.0100   30.5240 C.3   179  ASN179      0.1688
    142  C         -1.5640   -6.6200   31.9950 C.2   179  ASN179      0.2292
    143  O         -1.2340   -5.4760   32.3270 O.2   179  ASN179     -0.2864
    144  CB        -2.8120   -6.3190   29.8400 C.3   179  ASN179      0.1181
    145  CG        -2.7400   -6.3890   28.3270 C.2   179  ASN179      0.2629
    146  OD1       -2.6340   -5.3600   27.6320 O.2   179  ASN179     -0.2716
    147  ND2       -2.7890   -7.5970   27.8010 N.am  179  ASN179     -0.0877
    148  N          0.4780   -8.1350   34.1550 N.3   181  LEU181     -0.1231
    149  CA         1.7110   -8.6400   34.7440 C.3   181  LEU181      0.1693
    150  C          2.7880   -7.5900   35.0260 C.2   181  LEU181      0.2593
    151  O          3.5270   -7.7190   35.9980 O.2   181  LEU181     -0.2718
    152  CB         2.2680   -9.8080   33.9250 C.3   181  LEU181      0.0284
    153  CG         1.3440  -11.0300   33.9260 C.3   181  LEU181      0.0019
    154  CD1        1.8190  -12.0990   32.9610 C.3   181  LEU181      0.0001
    155  CD2        1.1680  -11.5730   35.3400 C.3   181  LEU181      0.0001
    156  N          2.8750   -6.5620   34.1880 N.am  182  GLY182     -0.1943
    157  CA         3.8010   -5.4420   34.4510 C.3   182  GLY182      0.1998
    158  C          3.7510   -4.9090   35.8800 C.2   182  GLY182      0.2480
    159  O          4.7560   -4.9570   36.5930 O.2   182  GLY182     -0.2729
    160  N          2.5820   -4.4030   36.3190 N.am  183  PRO183     -0.2726
    161  CA         2.4900   -3.8550   37.6730 C.3   183  PRO183      0.1402
    162  C          2.7300   -4.8750   38.7700 C.2   183  PRO183      0.2269
    163  O          3.0510   -4.5060   39.8990 O.2   183  PRO183     -0.2865
    164  CB         1.0350   -3.3640   37.7480 C.3   183  PRO183      0.0296
    165  CG         0.7190   -2.9990   36.3390 C.3   183  PRO183      0.0237
    166  CD         1.3790   -4.0830   35.5240 C.3   183  PRO183      0.0939
    167  N          5.0520   -7.2830   38.6580 N.3   185  THR185     -0.1218
    168  CA         6.3790   -7.9070   38.5680 C.3   185  THR185      0.1862
    169  C          7.5290   -6.9140   38.7000 C.2   185  THR185      0.2287
    170  O          8.5950   -7.0960   38.1130 O.2   185  THR185     -0.2866
    171  CB         6.5370   -8.7440   37.2710 C.3   185  THR185      0.1770
    172  OG1        6.2690   -7.9270   36.1250 O.3   185  THR185     -0.2211
    173  CG2        5.5750   -9.9390   37.2840 C.3   185  THR185      0.0375
@<TRIPOS>BOND
     1   127   126    1
     2   126   128    1
     3   126   125    2
     4   125   124    1
     5   121   120    2
     6   124   123    1
     7   123   122    1
     8   120   119    1
     9   122   119    1
    10   119   118    1
    11    48    47    2
    12   118   109   am
    13   110   109    2
    14   109   108    1
    15    47    46    1
    16   107   108    1
    17   105   104    2
    18   104   103    1
    19    94    93    2
    20   108   111    1
    21    98    97    1
    22    98    99    2
    23    97    96    1
    24    46    45    1
    25    46    49    1
    26   101    99    1
    27    93    92    1
    28    40    41    1
    29    40    39    1
    30    96    95    1
    31    99   100    1
    32    43    42    1
    33    41    42    2
    34    42    44    1
    35    95    92    1
    36   111   112    1
    37   103   106    1
    38   103   102    1
    39    92    91    1
    40   113   112    1
    41   113   114    1
    42    38    39    1
    43    38    35    1
    44   117   115    1
    45    36    35    1
    46    36    37    2
    47    91    81   am
    48   114   115    2
    49   115   116    1
    50    35    34    1
    51    82    81    2
    52    81    80    1
    53   138   136   ar
    54   138   139   ar
    55    75    74    2
    56   146   145    2
    57   136   134   ar
    58   147   145   am
    59    34    28   am
    60    32    31    2
    61    60    59    1
    62    60    61    1
    63    59    56    1
    64   145   144    1
    65   139   137   ar
    66    88    86   ar
    67    88    89   ar
    68   134   133    1
    69   134   135   ar
    70    74    73    1
    71    31    33   am
    72    31    30    1
    73    86    84   ar
    74    80    79    1
    75    80    83    1
    76   133   130    1
    77    90    89    1
    78    28    29    2
    79    28    27    1
    80    73    76    1
    81    73    72    1
    82    89    87   ar
    83    56    57    1
    84    56    55    1
    85    76    77    1
    86   137   135   ar
    87    61    55    1
    88    58    57    2
    89    84    83    1
    90    84    85   ar
    91    30    27    1
    92   144   141    1
    93    27    26    1
    94    87    85   ar
    95    65    64    2
    96    55    52   am
    97   140   141    1
    98   140   131   am
    99   130   129    1
   100   130   131    1
   101   141   142    1
   102   131   132    2
   103    72    64   am
   104    72    78    1
   105    77    78    1
   106    12    11    2
   107    64    63    1
   108    52    53    2
   109    52    51    1
   110    11    10    1
   111   142   143    2
   112    54    51    1
   113    51    50    1
   114    63    66    1
   115    63    62    1
   116    66    67    1
   117   154   153    1
   118    14    13    1
   119    13    10    1
   120    13    15    1
   121    10     9    1
   122     8     7    1
   123   152   153    1
   124   152   149    1
   125   153   155    1
   126    67    68   ar
   127    67    69   ar
   128     7     6    1
   129   148   149    1
   130   156   157    1
   131   156   150   am
   132     6     5    1
   133   157   158    1
   134    68    70   ar
   135   149   150    1
   136    69    71   ar
   137   150   151    2
   138   166   160    1
   139   166   165    1
   140    25    24   ar
   141    25    23   ar
   142     5     2    1
   143    70    71   ar
   144   158   160   am
   145   158   159    2
   146    24    22   ar
   147     2     1    1
   148     2     3    1
   149   172   171    1
   150    23    21   ar
   151    18    19    2
   152    18    17    1
   153   160   161    1
   154   165   164    1
   155    22    21   ar
   156     4     3    2
   157    21    20    1
   158   171   173    1
   159   171   168    1
   160    17    20    1
   161    17    16    1
   162   161   164    1
   163   161   162    1
   164   170   169    2
   165   168   167    1
   166   168   169    1
   167   162   163    2
