@<TRIPOS>MOLECULE
tmp/3r6fA00.pdb
 108 105 0 0 0
SMALL
GASTEIGER

@<TRIPOS>ATOM
      1  N         25.0380   20.0240   38.7670 N.3     4  ILE4       -0.1231
      2  CA        24.2030   18.9140   39.2290 C.3     4  ILE4        0.1692
      3  C         24.7550   17.5540   38.8220 C.2     4  ILE4        0.2592
      4  O         24.7390   16.6260   39.6100 O.2     4  ILE4       -0.2718
      5  CB        22.6980   19.0620   38.8140 C.3     4  ILE4        0.0266
      6  CG1       21.8520   17.9050   39.3470 C.3     4  ILE4        0.0019
      7  CG2       22.5160   19.1620   37.2880 C.3     4  ILE4        0.0020
      8  CD1       21.7380   17.8800   40.8520 C.3     4  ILE4        0.0001
      9  N         25.2770   17.4410   37.5980 N.am    5  PHE5       -0.1976
     10  CA        25.7740   16.1520   37.1470 C.3     5  PHE5        0.1639
     11  C         27.0910   15.7520   37.8110 C.2     5  PHE5        0.2290
     12  O         27.2760   14.5790   38.1340 O.2     5  PHE5       -0.2864
     13  CB        25.8760   16.1140   35.6200 C.3     5  PHE5        0.0560
     14  CG        24.5330   16.1270   34.9500 C.ar    5  PHE5       -0.0200
     15  CD1       23.5360   15.2470   35.3620 C.ar    5  PHE5       -0.0042
     16  CD2       24.2670   17.0050   33.9120 C.ar    5  PHE5       -0.0042
     17  CE1       22.2670   15.2590   34.7480 C.ar    5  PHE5       -0.0003
     18  CE2       23.0020   17.0130   33.2820 C.ar    5  PHE5       -0.0003
     19  CZ        22.0070   16.1390   33.7180 C.ar    5  PHE5       -0.0000
     20  N         25.8620   14.7920   41.3330 N.3     8  LEU8       -0.1245
     21  CA        25.2640   13.4510   41.2960 C.3     8  LEU8        0.1561
     22  C         26.2790   12.3180   41.0830 C.2     8  LEU8        0.2260
     23  O         26.1400   11.2600   41.6640 O.2     8  LEU8       -0.2867
     24  CB        24.1130   13.3770   40.2670 C.3     8  LEU8        0.0270
     25  CG        22.8230   14.1090   40.6380 C.3     8  LEU8        0.0019
     26  CD1       21.7460   13.9880   39.5530 C.3     8  LEU8        0.0001
     27  CD2       22.2920   13.6160   41.9990 C.3     8  LEU8        0.0001
     28  N         22.0070    7.9560   34.2060 N.3    25  LEU25      -0.1231
     29  CA        20.9740    8.2280   35.2010 C.3    25  LEU25       0.1693
     30  C         19.6420    8.1580   34.4990 C.2    25  LEU25       0.2592
     31  O         19.5420    8.5220   33.3250 O.2    25  LEU25      -0.2718
     32  CB        21.1150    9.6560   35.7130 C.3    25  LEU25       0.0284
     33  CG        22.3530   10.0710   36.4950 C.3    25  LEU25       0.0019
     34  CD1       22.1540   11.4970   36.8300 C.3    25  LEU25       0.0001
     35  CD2       22.5480    9.2260   37.7750 C.3    25  LEU25       0.0001
     36  N         18.6280    7.7040   35.2300 N.am   26  ILE26      -0.1966
     37  CA        17.2310    7.8160   34.8150 C.3    26  ILE26       0.1727
     38  C         16.8410    9.2650   35.0600 C.2    26  ILE26       0.2616
     39  O         17.2350    9.8350   36.0740 O.2    26  ILE26      -0.2715
     40  CB        16.3100    6.8330   35.6340 C.3    26  ILE26       0.0290
     41  CG1       16.6910    5.3670   35.3730 C.3    26  ILE26       0.0022
     42  CG2       14.8030    7.0850   35.3730 C.3    26  ILE26       0.0023
     43  CD1       16.5840    4.9060   33.8980 C.3    26  ILE26       0.0001
     44  N         16.1360    9.8830   34.1110 N.am   27  ASP27      -0.1957
     45  CA        15.7760   11.2910   34.2140 C.3    27  ASP27       0.1840
     46  C         14.6940   11.4520   35.2990 C.2    27  ASP27       0.2622
     47  O         13.7050   10.7140   35.3070 O.2    27  ASP27      -0.2715
     48  CB        15.3010   11.8520   32.8570 C.3    27  ASP27       0.1450
     49  CG        15.3440   13.3770   32.7930 C.2    27  ASP27       0.3671
     50  OD1       14.6400   14.0540   33.5710 O.co2  27  ASP27      -0.2456
     51  OD2       16.0780   13.9330   31.9440 O.co2  27  ASP27      -0.2456
     52  N         14.9250   12.3900   36.2200 N.am   28  ARG28      -0.1963
     53  CA        14.0210   12.6400   37.3440 C.3    28  ARG28       0.1729
     54  C         12.7320   13.3560   36.8890 C.2    28  ARG28       0.2616
     55  O         11.7150   13.3170   37.6020 O.2    28  ARG28      -0.2715
     56  CB        14.7840   13.4050   38.4570 C.3    28  ARG28       0.0348
     57  CG        14.0190   13.7730   39.7470 C.3    28  ARG28       0.0492
     58  CD        13.7380   12.5730   40.6350 C.3    28  ARG28       0.2205
     59  NE        12.9890   12.9330   41.8500 N.pl3  28  ARG28      -0.0865
     60  CZ        11.6660   13.1220   41.9030 C.cat  28  ARG28       0.5346
     61  NH1       10.9210   13.0010   40.8020 N.pl3  28  ARG28       0.1354
     62  NH2       11.0770   13.4470   43.0580 N.pl3  28  ARG28       0.1354
     63  N         12.7950   13.9980   35.7080 N.am   29  TYR29      -0.1974
     64  CA        11.6860   14.7440   35.1020 C.3    29  TYR29       0.1639
     65  C         11.4700   14.2820   33.6420 C.2    29  TYR29       0.2290
     66  O         11.7120   15.0350   32.6880 O.2    29  TYR29      -0.2864
     67  CB        11.9020   16.2840   35.1820 C.3    29  TYR29       0.0560
     68  CG        11.9600   16.8280   36.5980 C.ar   29  TYR29      -0.0198
     69  CD1       10.7930   17.2000   37.2650 C.ar   29  TYR29      -0.0009
     70  CD2       13.1710   16.9090   37.2940 C.ar   29  TYR29      -0.0009
     71  CE1       10.8310   17.6740   38.5820 C.ar   29  TYR29       0.0417
     72  CE2       13.2190   17.3630   38.6250 C.ar   29  TYR29       0.0417
     73  CZ        12.0370   17.7640   39.2590 C.ar   29  TYR29       0.1957
     74  OH        12.0310   18.2400   40.5740 O.3    29  TYR29      -0.2866
     75  N         19.7190    9.3350   30.6020 N.3    37  LEU37      -0.1245
     76  CA        20.7910   10.2620   30.2660 C.3    37  LEU37       0.1561
     77  C         22.1100    9.5060   30.2540 C.2    37  LEU37       0.2260
     78  O         22.3800    8.7190   31.1650 O.2    37  LEU37      -0.2867
     79  CB        20.9130   11.3500   31.3390 C.3    37  LEU37       0.0270
     80  CG        19.6260   12.1400   31.6400 C.3    37  LEU37       0.0019
     81  CD1       19.8350   13.0420   32.8360 C.3    37  LEU37       0.0001
     82  CD2       19.3560   12.9670   30.4030 C.3    37  LEU37       0.0001
     83  N         19.5640   23.4330   29.8460 N.3    85  GLU85      -0.1231
     84  CA        19.3930   23.8540   31.2410 C.3    85  GLU85       0.1699
     85  C         20.6850   23.6880   32.0580 C.2    85  GLU85       0.2592
     86  O         21.0290   24.5430   32.8950 O.2    85  GLU85      -0.2718
     87  CB        18.2410   23.0710   31.8970 C.3    85  GLU85       0.0402
     88  CG        16.8540   23.3820   31.3730 C.3    85  GLU85       0.1161
     89  CD        16.5850   22.9030   29.9690 C.2    85  GLU85       0.3649
     90  OE1       17.2270   21.9230   29.5140 O.co2  85  GLU85      -0.2457
     91  OE2       15.7170   23.4580   29.2550 O.co2  85  GLU85      -0.2457
     92  N         21.4010   22.5950   31.7980 N.am   86  VAL86      -0.1980
     93  CA        22.5850   22.2380   32.5990 C.3    86  VAL86       0.1595
     94  C         23.8850   22.2210   31.7660 C.2    86  VAL86       0.2287
     95  O         23.9900   21.5010   30.7460 O.2    86  VAL86      -0.2864
     96  CB        22.4190   20.8770   33.2890 C.3    86  VAL86       0.0276
     97  CG1       23.6230   20.6010   34.1830 C.3    86  VAL86       0.0022
     98  CG2       21.1020   20.8120   34.0890 C.3    86  VAL86       0.0022
     99  N         25.3030   16.2490   28.2890 N.3    90  HIS90      -0.1241
    100  CA        24.5540   15.0300   28.5900 C.3    90  HIS90       0.1621
    101  C         23.6560   14.6470   27.4290 C.2    90  HIS90       0.2264
    102  O         23.0160   15.5030   26.8170 O.2    90  HIS90      -0.2867
    103  CB        23.7150   15.1840   29.8750 C.3    90  HIS90       0.0745
    104  CG        22.8420   16.4020   29.8920 C.ar   90  HIS90       0.0817
    105  ND1       23.3500   17.6800   29.9640 N.ar   90  HIS90      -0.2268
    106  CD2       21.4970   16.5360   29.8450 C.ar   90  HIS90       0.1154
    107  CE1       22.3550   18.5520   29.9720 C.ar   90  HIS90       0.1986
    108  NE2       21.2200   17.8820   29.8950 N.ar   90  HIS90      -0.2212
@<TRIPOS>BOND
     1   102   101    2
     2   101   100    1
     3    99   100    1
     4   100   103    1
     5    91    89   ar
     6    90    89   ar
     7   106   104   ar
     8   106   108   ar
     9    83    84    1
    10   103   104    1
    11   104   105   ar
    12   108   107   ar
    13   105   107   ar
    14    89    88    1
    15    77    76    1
    16    77    78    2
    17    76    75    1
    18    76    79    1
    19    82    80    1
    20    95    94    2
    21    84    87    1
    22    84    85    1
    23    79    80    1
    24    88    87    1
    25    80    81    1
    26    94    93    1
    27    92    85   am
    28    92    93    1
    29    51    49   ar
    30    85    86    2
    31    93    96    1
    32    66    65    2
    33    49    48    1
    34    49    50   ar
    35    48    45    1
    36    18    19   ar
    37    18    16   ar
    38    96    98    1
    39    96    97    1
    40    31    30    2
    41    65    64    1
    42    19    17   ar
    43    43    41    1
    44    16    14   ar
    45    44    45    1
    46    44    38   am
    47    28    29    1
    48    45    46    1
    49    30    29    1
    50    30    36   am
    51    17    15   ar
    52    37    38    1
    53    37    36    1
    54    37    40    1
    55    14    15   ar
    56    14    13    1
    57    38    39    2
    58    64    67    1
    59    64    63    1
    60    67    68    1
    61    29    32    1
    62    46    47    2
    63    46    52   am
    64    41    40    1
    65    42    40    1
    66    13    10    1
    67    63    54   am
    68    32    33    1
    69    52    53    1
    70    33    34    1
    71    33    35    1
    72    68    69   ar
    73    68    70   ar
    74    54    53    1
    75    54    55    2
    76    10     9    1
    77    10    11    1
    78    69    71   ar
    79     7     5    1
    80    70    72   ar
    81    53    56    1
    82     9     3   am
    83    11    12    2
    84    56    57    1
    85    71    73   ar
    86    72    73   ar
    87     1     2    1
    88     5     2    1
    89     5     6    1
    90     3     2    1
    91     3     4    2
    92    73    74    1
    93     6     8    1
    94    26    25    1
    95    57    58    1
    96    24    25    1
    97    24    21    1
    98    58    59    1
    99    25    27    1
   100    61    60    1
   101    22    21    1
   102    22    23    2
   103    21    20    1
   104    59    60    2
   105    60    62    1
