@<TRIPOS>MOLECULE
tmp/3r6lB00.pdb
 137 137 0 0 0
SMALL
GASTEIGER

@<TRIPOS>ATOM
      1  N        -21.6260    2.1230   33.9830 N.3    21  ALA21      -0.1231
      2  CA       -22.6360    2.7700   33.1620 C.3    21  ALA21       0.1694
      3  C        -21.9950    3.7980   32.2380 C.2    21  ALA21       0.2592
      4  O        -21.0070    4.4480   32.6040 O.2    21  ALA21      -0.2718
      5  CB       -23.6660    3.4480   34.0560 C.3    21  ALA21       0.0304
      6  N        -22.5500    3.9250   31.0340 N.am   22  ALA22      -0.1966
      7  CA       -22.1810    5.0050   30.1220 C.3    22  ALA22       0.1728
      8  C        -23.1850    6.1500   30.2700 C.2    22  ALA22       0.2616
      9  O        -24.3620    5.9070   30.5300 O.2    22  ALA22      -0.2715
     10  CB       -22.1660    4.4940   28.7020 C.3    22  ALA22       0.0334
     11  N        -22.7400    7.3870   30.0760 N.am   23  MET23      -0.1963
     12  CA       -23.5910    8.5440   30.3470 C.3    23  MET23       0.1736
     13  C        -24.1570    9.2030   29.0840 C.2    23  MET23       0.2616
     14  O        -23.5380    9.2030   28.0140 O.2    23  MET23      -0.2715
     15  CB       -22.8440    9.5830   31.1880 C.3    23  MET23       0.0427
     16  CG       -22.2970    9.0520   32.5170 C.3    23  MET23       0.0599
     17  SD       -23.6040    8.3560   33.5540 S.3    23  MET23      -0.1393
     18  CE       -24.5300    9.8630   33.9120 C.3    23  MET23       0.0692
     19  N        -25.3380    9.7910   29.2380 N.am   24  ARG24      -0.1963
     20  CA       -26.0540   10.3770   28.1340 C.3    24  ARG24       0.1729
     21  C        -26.8060   11.6000   28.6370 C.2    24  ARG24       0.2616
     22  O        -27.3630   11.6030   29.7380 O.2    24  ARG24      -0.2715
     23  CB       -27.0180    9.3550   27.5420 C.3    24  ARG24       0.0348
     24  CG       -27.9050    9.8490   26.3920 C.3    24  ARG24       0.0492
     25  CD       -28.6220    8.6660   25.6950 C.3    24  ARG24       0.2205
     26  NE       -28.9590    7.5860   26.6300 N.pl3  24  ARG24      -0.0865
     27  CZ       -29.9280    7.6280   27.5520 C.cat  24  ARG24       0.5346
     28  NH1      -30.7000    8.7040   27.7000 N.pl3  24  ARG24       0.1354
     29  NH2      -30.1120    6.5810   28.3490 N.pl3  24  ARG24       0.1354
     30  N        -26.7800   12.6290   27.8120 N.am   25  ASN25      -0.1958
     31  CA       -27.4900   13.8620   28.0420 C.3    25  ASN25       0.1819
     32  C        -28.7190   13.9420   27.1340 C.2    25  ASN25       0.2621
     33  O        -28.6470   13.6460   25.9390 O.2    25  ASN25      -0.2715
     34  CB       -26.5400   15.0170   27.7490 C.3    25  ASN25       0.1195
     35  CG       -27.1780   16.3380   27.9560 C.2    25  ASN25       0.2630
     36  OD1      -27.6590   16.9580   27.0150 O.2    25  ASN25      -0.2716
     37  ND2      -27.2060   16.7880   29.2050 N.am   25  ASN25      -0.0877
     38  N        -29.8450   14.3480   27.7120 N.am   26  ALA26      -0.1963
     39  CA       -31.0820   14.6350   26.9690 C.3    26  ALA26       0.1728
     40  C        -30.8790   15.4330   25.6800 C.2    26  ALA26       0.2616
     41  O        -31.3700   15.0470   24.6150 O.2    26  ALA26      -0.2715
     42  CB       -32.0850   15.3670   27.8960 C.3    26  ALA26       0.0334
     43  N        -30.1420   16.5350   25.7600 N.am   27  LYS27      -0.1977
     44  CA       -29.9840   17.4430   24.6250 C.3    27  LYS27       0.1596
     45  C        -28.7640   17.1910   23.7210 C.2    27  LYS27       0.2287
     46  O        -28.8390   17.3840   22.5050 O.2    27  LYS27      -0.2864
     47  CB       -29.9690   18.9040   25.1150 C.3    27  LYS27       0.0298
     48  CG       -31.2300   19.3430   25.8260 C.3    27  LYS27       0.0038
     49  CD       -32.4330   19.2180   24.9130 C.3    27  LYS27       0.0206
     50  CE       -33.6150   20.0010   25.4580 C.3    27  LYS27       0.1093
     51  NZ       -33.8480   19.6380   26.8830 N.3    27  LYS27      -0.1314
     52  N        -25.1180   11.0410   23.9240 N.3    30  SER30      -0.1202
     53  CA       -24.1880   10.3080   24.7650 C.3    30  SER30       0.2020
     54  C        -22.8460   11.0000   24.7410 C.2    30  SER30       0.2618
     55  O        -22.4270   11.5390   23.7110 O.2    30  SER30      -0.2717
     56  CB       -24.0500    8.8710   24.2760 C.3    30  SER30       0.2103
     57  OG       -25.3200    8.2220   24.1940 O.3    30  SER30      -0.2182
     58  N        -22.1610   11.0070   25.8840 N.am   31  TRP31      -0.1975
     59  CA       -20.8250   11.6200   25.9540 C.3    31  TRP31       0.1640
     60  C        -19.8990   10.9920   24.8910 C.2    31  TRP31       0.2290
     61  O        -19.1400   11.6770   24.2230 O.2    31  TRP31      -0.2864
     62  CB       -20.1910   11.3510   27.3200 C.3    31  TRP31       0.0576
     63  CG       -20.9330   11.9410   28.5110 C.ar   31  TRP31       0.0006
     64  CD1      -22.1970   12.5440   28.5310 C.ar   31  TRP31       0.0946
     65  CD2      -20.4700   11.9430   29.8590 C.ar   31  TRP31       0.0152
     66  NE1      -22.5060   12.9380   29.8230 N.ar   31  TRP31      -0.2442
     67  CE2      -21.4690   12.5780   30.6540 C.ar   31  TRP31       0.0810
     68  CE3      -19.3010   11.4720   30.4820 C.ar   31  TRP31       0.0012
     69  CZ2      -21.3220   12.7580   32.0480 C.ar   31  TRP31       0.0191
     70  CZ3      -19.1510   11.6700   31.8800 C.ar   31  TRP31       0.0001
     71  CH2      -20.1780   12.2870   32.6380 C.ar   31  TRP31       0.0015
     72  N        -14.6110   14.6050   31.3520 N.3    63  ARG63      -0.1231
     73  CA       -15.9880   15.0650   31.5770 C.3    63  ARG63       0.1694
     74  C        -16.5960   14.6060   32.9050 C.2    63  ARG63       0.2592
     75  O        -16.2170   13.5650   33.4360 O.2    63  ARG63      -0.2718
     76  CB       -16.9380   14.6610   30.4700 C.3    63  ARG63       0.0321
     77  CG       -18.0490   15.7060   30.4030 C.3    63  ARG63       0.0489
     78  CD       -19.3930   15.2400   29.9460 C.3    63  ARG63       0.2205
     79  NE       -19.4470   15.1840   28.5120 N.pl3  63  ARG63      -0.0865
     80  CZ       -20.5040   15.4510   27.7460 C.cat  63  ARG63       0.5346
     81  NH1      -21.6750   15.8650   28.2260 N.pl3  63  ARG63       0.1354
     82  NH2      -20.3590   15.3030   26.4510 N.pl3  63  ARG63       0.1354
     83  N        -17.5740   15.3640   33.4030 N.am   64  GLU64      -0.1966
     84  CA       -18.3250   14.9230   34.5770 C.3    64  GLU64       0.1733
     85  C        -19.8190   15.2040   34.4990 C.2    64  GLU64       0.2617
     86  O        -20.2580   16.1330   33.8050 O.2    64  GLU64      -0.2715
     87  CB       -17.7200   15.4890   35.8680 C.3    64  GLU64       0.0429
     88  CG       -17.8860   16.9910   36.0680 C.3    64  GLU64       0.1163
     89  CD       -17.4780   17.4380   37.4700 C.2    64  GLU64       0.3649
     90  OE1      -16.2770   17.3100   37.8320 O.co2  64  GLU64      -0.2457
     91  OE2      -18.3640   17.9370   38.2070 O.co2  64  GLU64      -0.2457
     92  N        -20.5730   14.3820   35.2200 N.am   65  GLY65      -0.1940
     93  CA       -22.0270   14.4500   35.2580 C.3    65  GLY65       0.2014
     94  C        -22.5380   15.7580   35.8260 C.2    65  GLY65       0.2639
     95  O        -21.9620   16.3340   36.7520 O.2    65  GLY65      -0.2714
     96  N        -23.6220   16.2270   35.2410 N.am   66  TYR66      -0.1959
     97  CA       -24.3560   17.3560   35.7630 C.3    66  TYR66       0.1771
     98  C        -25.7730   16.8570   35.9580 C.2    66  TYR66       0.2619
     99  O        -26.5030   16.6390   34.9830 O.2    66  TYR66      -0.2715
    100  CB       -24.3300   18.5430   34.8060 C.3    66  TYR66       0.0574
    101  CG       -25.1090   19.7110   35.3730 C.ar   66  TYR66      -0.0198
    102  CD1      -24.4970   20.6270   36.2300 C.ar   66  TYR66      -0.0009
    103  CD2      -26.4680   19.8740   35.0890 C.ar   66  TYR66      -0.0009
    104  CE1      -25.2180   21.6990   36.7750 C.ar   66  TYR66       0.0417
    105  CE2      -27.1970   20.9390   35.6320 C.ar   66  TYR66       0.0417
    106  CZ       -26.5640   21.8380   36.4690 C.ar   66  TYR66       0.1957
    107  OH       -27.2810   22.8850   37.0070 O.3    66  TYR66      -0.2866
    108  N        -26.1300   16.6210   37.2160 N.am   67  ALA67      -0.1964
    109  CA       -27.4550   16.1200   37.5730 C.3    67  ALA67       0.1713
    110  C        -27.7320   16.3790   39.0660 C.2    67  ALA67       0.2458
    111  O        -27.8710   15.4230   39.8480 O.2    67  ALA67      -0.2730
    112  CB       -27.5720   14.6360   37.2470 C.3    67  ALA67       0.0333
    113  N        -27.8170   17.6700   39.4620 N.am   68  PRO68      -0.2727
    114  CA       -27.9470   18.0340   40.8950 C.3    68  PRO68       0.1402
    115  C        -29.0900   17.2800   41.5600 C.2    68  PRO68       0.2269
    116  O        -30.1520   17.1230   40.9530 O.2    68  PRO68      -0.2865
    117  CB       -28.2540   19.5400   40.8630 C.3    68  PRO68       0.0296
    118  CG       -27.7750   20.0160   39.5320 C.3    68  PRO68       0.0237
    119  CD       -27.9440   18.8500   38.5830 C.3    68  PRO68       0.0939
    120  N        -29.1750   14.0160   42.4060 N.3    70  THR70      -0.1218
    121  CA       -29.2060   12.5700   42.1300 C.3    70  THR70       0.1862
    122  C        -27.7970   11.9430   42.1350 C.2    70  THR70       0.2287
    123  O        -26.7940   12.6580   42.0610 O.2    70  THR70      -0.2866
    124  CB       -29.9520   12.2470   40.7930 C.3    70  THR70       0.1770
    125  OG1      -30.4260   10.8920   40.8220 O.3    70  THR70      -0.2211
    126  CG2      -29.0380   12.4390   39.5710 C.3    70  THR70       0.0375
    127  N        -26.0190   10.8160   40.0440 N.3    72  PHE72      -0.1241
    128  CA       -25.2170   11.0820   38.8520 C.3    72  PHE72       0.1605
    129  C        -24.4710   12.4170   38.8860 C.2    72  PHE72       0.2264
    130  O        -23.6260   12.6790   38.0150 O.2    72  PHE72      -0.2867
    131  CB       -26.0680   10.9350   37.5740 C.3    72  PHE72       0.0534
    132  CG       -26.6150    9.5470   37.3730 C.ar   72  PHE72      -0.0203
    133  CD1      -25.7540    8.4580   37.2080 C.ar   72  PHE72      -0.0042
    134  CD2      -27.9930    9.3190   37.3660 C.ar   72  PHE72      -0.0042
    135  CE1      -26.2540    7.1650   37.0330 C.ar   72  PHE72      -0.0003
    136  CE2      -28.5030    8.0290   37.1970 C.ar   72  PHE72      -0.0003
    137  CZ       -27.6280    6.9510   37.0310 C.ar   72  PHE72      -0.0000
@<TRIPOS>BOND
     1    46    45    2
     2    55    54    2
     3    45    44    1
     4    52    53    1
     5    57    56    1
     6    61    60    2
     7    56    53    1
     8    41    40    2
     9    44    47    1
    10    44    43    1
    11    54    53    1
    12    54    58   am
    13    60    59    1
    14    49    50    1
    15    49    48    1
    16    47    48    1
    17    50    51    1
    18    40    43   am
    19    40    39    1
    20    25    24    1
    21    25    26    1
    22    58    59    1
    23    33    32    2
    24    59    62    1
    25    24    23    1
    26    82    80    1
    27    26    27    2
    28    39    38    1
    29    39    42    1
    30    36    35    2
    31    32    38   am
    32    32    31    1
    33    62    63    1
    34    23    20    1
    35    27    28    1
    36    27    29    1
    37    80    81    1
    38    80    79    2
    39    34    35    1
    40    34    31    1
    41    30    31    1
    42    30    21   am
    43    35    37   am
    44    14    13    2
    45    20    21    1
    46    20    19    1
    47    63    64   ar
    48    63    65   ar
    49    79    78    1
    50    64    66   ar
    51    21    22    2
    52    10     7    1
    53    13    19   am
    54    13    12    1
    55    66    67   ar
    56    65    68   ar
    57    65    67   ar
    58    78    77    1
    59    11     8   am
    60    11    12    1
    61     7     8    1
    62     7     6    1
    63     8     9    2
    64    12    15    1
    65    77    76    1
    66    76    73    1
    67    68    70   ar
    68    67    69   ar
    69     6     3   am
    70    15    16    1
    71    72    73    1
    72    73    74    1
    73    70    71   ar
    74    69    71   ar
    75     3     4    2
    76     3     2    1
    77    16    17    1
    78    74    83   am
    79    74    75    2
    80     2     1    1
    81     2     5    1
    82    83    84    1
    83    17    18    1
    84    86    85    2
    85    85    84    1
    86    85    92   am
    87    84    87    1
    88   100   101    1
    89   100    97    1
    90    99    98    2
    91   103   101   ar
    92   103   105   ar
    93    92    93    1
    94    96    97    1
    95    96    94   am
    96    93    94    1
    97   101   102   ar
    98   105   106   ar
    99    97    98    1
   100    94    95    2
   101    87    88    1
   102    98   108   am
   103    88    89    1
   104   102   104   ar
   105   106   104   ar
   106   106   107    1
   107   137   135   ar
   108   137   136   ar
   109   135   133   ar
   110   136   134   ar
   111   133   132   ar
   112   108   109    1
   113   112   109    1
   114   134   132   ar
   115   132   131    1
   116    89    90   ar
   117    89    91   ar
   118   109   110    1
   119   131   128    1
   120   130   129    2
   121   119   113    1
   122   119   118    1
   123   128   129    1
   124   128   127    1
   125   110   113   am
   126   110   111    2
   127   113   114    1
   128   118   117    1
   129   126   124    1
   130   124   125    1
   131   124   121    1
   132   117   114    1
   133   114   115    1
   134   116   115    2
   135   123   122    2
   136   121   122    1
   137   121   120    1
