@<TRIPOS>MOLECULE
tmp/3r6pA00.pdb
 181 169 0 0 0
SMALL
GASTEIGER

@<TRIPOS>ATOM
      1  N        -14.9350   22.3230   -9.4460 N.3    32  LYS32      -0.1245
      2  CA       -15.4100   23.5420  -10.1130 C.3    32  LYS32       0.1561
      3  C        -14.2980   24.5930  -10.0170 C.2    32  LYS32       0.2260
      4  O        -13.9470   25.0420   -8.9260 O.2    32  LYS32      -0.2867
      5  CB       -16.7400   24.0450   -9.5300 C.3    32  LYS32       0.0271
      6  CG       -17.9190   23.1200   -9.7860 C.3    32  LYS32       0.0035
      7  CD       -19.2180   23.7310   -9.2870 C.3    32  LYS32       0.0206
      8  CE       -20.2740   22.6640   -9.0500 C.3    32  LYS32       0.1093
      9  NZ       -21.6340   23.2520   -8.8980 N.3    32  LYS32      -0.1314
     10  N        -13.8700   27.6750  -10.7640 N.3    34  PHE34      -0.1227
     11  CA       -14.1000   29.1160  -10.5550 C.3    34  PHE34       0.1736
     12  C        -14.4090   29.4550   -9.1020 C.2    34  PHE34       0.2595
     13  O        -14.4630   30.6310   -8.7220 O.2    34  PHE34      -0.2718
     14  CB       -15.1910   29.6530  -11.5030 C.3    34  PHE34       0.0547
     15  CG       -14.9090   29.3850  -12.9670 C.ar   34  PHE34      -0.0202
     16  CD1      -13.6720   29.7480  -13.5370 C.ar   34  PHE34      -0.0042
     17  CD2      -15.8630   28.7680  -13.7680 C.ar   34  PHE34      -0.0042
     18  CE1      -13.3980   29.4860  -14.8770 C.ar   34  PHE34      -0.0003
     19  CE2      -15.6010   28.5050  -15.1180 C.ar   34  PHE34      -0.0003
     20  CZ       -14.3730   28.8680  -15.6700 C.ar   34  PHE34      -0.0000
     21  N        -14.5900   28.4120   -8.2980 N.am   35  ILE35      -0.1980
     22  CA       -14.8890   28.5480   -6.8860 C.3    35  ILE35       0.1595
     23  C        -13.6040   28.5850   -6.0590 C.2    35  ILE35       0.2287
     24  O        -12.6480   27.8480   -6.3230 O.2    35  ILE35      -0.2864
     25  CB       -15.8430   27.4270   -6.4100 C.3    35  ILE35       0.0276
     26  CG1      -17.2050   27.5760   -7.1100 C.3    35  ILE35       0.0022
     27  CG2      -15.9850   27.4290   -4.8750 C.3    35  ILE35       0.0022
     28  CD1      -18.1610   26.3960   -6.9490 C.3    35  ILE35       0.0001
     29  N        -21.0730   30.0600   -1.5440 N.3    53  VAL53      -0.1245
     30  CA       -19.9040   29.9120   -2.4030 C.3    53  VAL53       0.1561
     31  C        -19.1950   31.2710   -2.5890 C.2    53  VAL53       0.2260
     32  O        -19.8420   32.2920   -2.8270 O.2    53  VAL53      -0.2867
     33  CB       -20.2950   29.2230   -3.7540 C.3    53  VAL53       0.0252
     34  CG1      -19.2190   29.3730   -4.8030 C.3    53  VAL53       0.0019
     35  CG2      -20.5620   27.7500   -3.5340 C.3    53  VAL53       0.0019
     36  N        -16.2570   33.0630   -4.9810 N.3    55  LEU55      -0.1245
     37  CA       -15.6660   32.8670   -6.3060 C.3    55  LEU55       0.1561
     38  C        -14.3380   33.5690   -6.3750 C.2    55  LEU55       0.2260
     39  O        -14.1690   34.6280   -5.7700 O.2    55  LEU55      -0.2867
     40  CB       -16.5720   33.4230   -7.3980 C.3    55  LEU55       0.0270
     41  CG       -17.9330   32.7570   -7.4840 C.3    55  LEU55       0.0019
     42  CD1      -18.9770   33.7970   -7.7470 C.3    55  LEU55       0.0001
     43  CD2      -17.9070   31.7180   -8.5580 C.3    55  LEU55       0.0001
     44  N        -13.7020   37.5720  -11.4670 N.3    59  LEU59      -0.1231
     45  CA       -14.9460   37.0790  -12.0470 C.3    59  LEU59       0.1678
     46  C        -16.0200   38.1600  -11.9620 C.2    59  LEU59       0.2434
     47  O        -15.9300   39.0560  -11.1160 O.2    59  LEU59      -0.2733
     48  CB       -15.4150   35.7900  -11.3560 C.3    59  LEU59       0.0284
     49  CG       -15.0980   34.4710  -12.0840 C.3    59  LEU59       0.0019
     50  CD1      -13.6290   34.0490  -11.9390 C.3    59  LEU59       0.0001
     51  CD2      -16.0430   33.3390  -11.6580 C.3    59  LEU59       0.0001
     52  N        -17.0410   38.0880  -12.8420 N.am   60  PRO60      -0.2718
     53  CA       -18.1180   39.0860  -12.8190 C.3    60  PRO60       0.1535
     54  C        -18.8850   39.0700  -11.4840 C.2    60  PRO60       0.2598
     55  O        -19.3700   40.1110  -11.0340 O.2    60  PRO60      -0.2715
     56  CB       -19.0230   38.6550  -13.9840 C.3    60  PRO60       0.0310
     57  CG       -18.7360   37.1850  -14.1860 C.3    60  PRO60       0.0237
     58  CD       -17.2730   37.0420  -13.8630 C.3    60  PRO60       0.0939
     59  N        -18.9610   37.8950  -10.8630 N.am   61  ALA61      -0.1978
     60  CA       -19.6000   37.7010   -9.5660 C.3    61  ALA61       0.1597
     61  C        -18.5440   37.4950   -8.4870 C.2    61  ALA61       0.2287
     62  O        -17.3710   37.2450   -8.7990 O.2    61  ALA61      -0.2864
     63  CB       -20.5250   36.5060   -9.6290 C.3    61  ALA61       0.0319
     64  N        -22.1690   33.4430   -4.1990 N.3    64  SER64      -0.1217
     65  CA       -23.3650   32.7040   -4.5960 C.3    64  SER64       0.1889
     66  C        -23.9160   31.7980   -3.5010 C.2    64  SER64       0.2288
     67  O        -23.1750   31.1000   -2.8070 O.2    64  SER64      -0.2866
     68  CB       -23.1130   31.9010   -5.8650 C.3    64  SER64       0.2089
     69  OG       -24.3320   31.4020   -6.3860 O.3    64  SER64      -0.2183
     70  N        -26.5440   28.7320   -2.8890 N.3    66  GLU66      -0.1245
     71  CA       -27.1950   27.6050   -3.5610 C.3    66  GLU66       0.1567
     72  C        -27.8170   26.6530   -2.5620 C.2    66  GLU66       0.2260
     73  O        -27.3640   26.5780   -1.4140 O.2    66  GLU66      -0.2867
     74  CB       -26.1660   26.8580   -4.3850 C.3    66  GLU66       0.0388
     75  CG       -25.8530   27.5680   -5.6620 C.3    66  GLU66       0.1160
     76  CD       -24.3800   27.6950   -5.9510 C.2    66  GLU66       0.3649
     77  OE1      -23.6410   26.6890   -5.8110 O.co2  66  GLU66      -0.2457
     78  OE2      -23.9690   28.8150   -6.3310 O.co2  66  GLU66      -0.2457
     79  N        -29.4500   21.0410   -7.7930 N.3    80  ILE80      -0.1245
     80  CA       -29.2140   22.2740   -7.0350 C.3    80  ILE80       0.1561
     81  C        -29.9920   23.4360   -7.6360 C.2    80  ILE80       0.2260
     82  O        -30.3630   23.4050   -8.8090 O.2    80  ILE80      -0.2867
     83  CB       -27.6840   22.6900   -6.9830 C.3    80  ILE80       0.0252
     84  CG1      -27.2190   23.2770   -8.3350 C.3    80  ILE80       0.0019
     85  CG2      -26.8060   21.5300   -6.5120 C.3    80  ILE80       0.0019
     86  CD1      -25.7570   23.6640   -8.4020 C.3    80  ILE80       0.0001
     87  N        -29.8140   27.8350   -7.5140 N.3    82  ILE82      -0.1245
     88  CA       -29.1390   29.0790   -7.0860 C.3    82  ILE82       0.1561
     89  C        -30.1600   30.1540   -6.6670 C.2    82  ILE82       0.2260
     90  O        -31.0730   30.5050   -7.4220 O.2    82  ILE82      -0.2867
     91  CB       -28.1970   29.6450   -8.1640 C.3    82  ILE82       0.0252
     92  CG1      -27.0370   28.6850   -8.4480 C.3    82  ILE82       0.0019
     93  CG2      -27.6320   30.9890   -7.7380 C.3    82  ILE82       0.0019
     94  CD1      -26.0450   29.1980   -9.5160 C.3    82  ILE82       0.0001
     95  N        -24.2090   37.6120   -9.1030 N.3    87  HIS87      -0.1241
     96  CA       -24.3180   37.3280  -10.5280 C.3    87  HIS87       0.1621
     97  C        -25.6650   37.7460  -11.0910 C.2    87  HIS87       0.2264
     98  O        -26.5250   38.2360  -10.3650 O.2    87  HIS87      -0.2867
     99  CB       -24.1420   35.8400  -10.7350 C.3    87  HIS87       0.0745
    100  CG       -25.0640   35.0270   -9.8920 C.ar   87  HIS87       0.0817
    101  ND1      -24.8130   34.7610   -8.5640 N.ar   87  HIS87      -0.2268
    102  CD2      -26.2600   34.4660  -10.1690 C.ar   87  HIS87       0.1154
    103  CE1      -25.8010   34.0410   -8.0680 C.ar   87  HIS87       0.1986
    104  NE2      -26.6910   33.8490   -9.0220 N.ar   87  HIS87      -0.2212
    105  N        -27.6350   35.4970  -12.8960 N.3    89  LEU89      -0.1245
    106  CA       -28.4750   34.2960  -13.0400 C.3    89  LEU89       0.1561
    107  C        -29.6430   34.2850  -12.0410 C.2    89  LEU89       0.2260
    108  O        -29.4440   34.2220  -10.8240 O.2    89  LEU89      -0.2867
    109  CB       -27.6560   32.9990  -12.8950 C.3    89  LEU89       0.0270
    110  CG       -26.3400   32.7630  -13.6460 C.3    89  LEU89       0.0019
    111  CD1      -25.8890   31.3410  -13.4480 C.3    89  LEU89       0.0001
    112  CD2      -26.4710   33.0510  -15.1250 C.3    89  LEU89       0.0001
    113  N        -32.0220   29.9900  -11.5490 N.3    92  TYR92      -0.1241
    114  CA       -31.1790   28.9540  -12.0600 C.3    92  TYR92       0.1605
    115  C        -31.4030   27.7100  -11.2370 C.2    92  TYR92       0.2264
    116  O        -31.3990   27.7550  -10.0080 O.2    92  TYR92      -0.2867
    117  CB       -29.7090   29.3750  -11.9530 C.3    92  TYR92       0.0534
    118  CG       -28.7320   28.3200  -12.4310 C.ar   92  TYR92      -0.0201
    119  CD1      -28.1840   28.3910  -13.7060 C.ar   92  TYR92      -0.0009
    120  CD2      -28.3700   27.2320  -11.6100 C.ar   92  TYR92      -0.0009
    121  CE1      -27.2940   27.4280  -14.1590 C.ar   92  TYR92       0.0417
    122  CE2      -27.4910   26.2580  -12.0580 C.ar   92  TYR92       0.0417
    123  CZ       -26.9490   26.3720  -13.3320 C.ar   92  TYR92       0.1957
    124  OH       -26.0620   25.4330  -13.8020 O.3    92  TYR92      -0.2866
    125  N        -30.0830   23.3600  -11.7090 N.3    94  SER94      -0.1217
    126  CA       -29.4200   22.3760  -12.5470 C.3    94  SER94       0.1889
    127  C        -29.4440   21.0340  -11.8780 C.2    94  SER94       0.2288
    128  O        -29.5700   20.9300  -10.6670 O.2    94  SER94      -0.2866
    129  CB       -27.9740   22.7560  -12.7900 C.3    94  SER94       0.2089
    130  OG       -27.2750   22.7290  -11.5680 O.3    94  SER94      -0.2183
    131  N        -25.4220   17.0990  -17.4640 N.3   113  GLU113     -0.1245
    132  CA       -25.8410   18.2120  -16.6450 C.3   113  GLU113      0.1567
    133  C        -26.7810   19.0960  -17.4340 C.2   113  GLU113      0.2260
    134  O        -26.4120   19.6080  -18.4910 O.2   113  GLU113     -0.2867
    135  CB       -24.6260   19.0080  -16.1710 C.3   113  GLU113      0.0388
    136  CG       -24.9970   20.2300  -15.3720 C.3   113  GLU113      0.1160
    137  CD       -23.9840   20.5680  -14.3080 C.2   113  GLU113      0.3649
    138  OE1      -23.1350   19.6950  -13.9970 O.co2 113  GLU113     -0.2457
    139  OE2      -24.0470   21.7030  -13.7720 O.co2 113  GLU113     -0.2457
    140  N        -23.3010   31.5630  -22.4280 N.3   131  PHE131     -0.1227
    141  CA       -22.4760   31.8430  -21.2730 C.3   131  PHE131      0.1736
    142  C        -22.4910   30.6800  -20.2600 C.2   131  PHE131      0.2595
    143  O        -21.4350   30.2380  -19.8180 O.2   131  PHE131     -0.2718
    144  CB       -22.9840   33.1700  -20.6880 C.3   131  PHE131      0.0547
    145  CG       -22.4620   33.5150  -19.3190 C.ar  131  PHE131     -0.0202
    146  CD1      -21.2990   34.2790  -19.1730 C.ar  131  PHE131     -0.0042
    147  CD2      -23.1840   33.1560  -18.1750 C.ar  131  PHE131     -0.0042
    148  CE1      -20.8300   34.6460  -17.9010 C.ar  131  PHE131     -0.0003
    149  CE2      -22.7290   33.5140  -16.9030 C.ar  131  PHE131     -0.0003
    150  CZ       -21.5380   34.2600  -16.7670 C.ar  131  PHE131     -0.0000
    151  N        -23.6740   30.1620  -19.9220 N.am  132  VAL132     -0.1980
    152  CA       -23.7840   29.0680  -18.9400 C.3   132  VAL132      0.1595
    153  C        -23.2540   27.7240  -19.4520 C.2   132  VAL132      0.2287
    154  O        -22.6450   26.9680  -18.6900 O.2   132  VAL132     -0.2864
    155  CB       -25.2290   28.8830  -18.4380 C.3   132  VAL132      0.0276
    156  CG1      -25.2740   27.8360  -17.3290 C.3   132  VAL132      0.0022
    157  CG2      -25.7970   30.1970  -17.9490 C.3   132  VAL132      0.0022
    158  N        -19.5280   27.7330  -19.3480 N.3   135  LEU135     -0.1231
    159  CA       -19.1640   27.5890  -17.9410 C.3   135  LEU135      0.1693
    160  C        -19.2760   26.1470  -17.4790 C.2   135  LEU135      0.2591
    161  O        -18.3000   25.5800  -17.0230 O.2   135  LEU135     -0.2718
    162  CB       -20.0110   28.5190  -17.0540 C.3   135  LEU135      0.0284
    163  CG       -19.5170   29.9660  -16.8900 C.3   135  LEU135      0.0019
    164  CD1      -19.5700   30.7620  -18.1960 C.3   135  LEU135      0.0001
    165  CD2      -20.2740   30.7020  -15.8070 C.3   135  LEU135      0.0001
    166  N        -20.4600   25.5560  -17.6180 N.am  136  ILE136     -0.1980
    167  CA       -20.6850   24.1770  -17.2310 C.3   136  ILE136      0.1595
    168  C        -19.7170   23.2360  -17.9430 C.2   136  ILE136      0.2287
    169  O        -19.1930   22.3040  -17.3210 O.2   136  ILE136     -0.2864
    170  CB       -22.1360   23.7600  -17.5210 C.3   136  ILE136      0.0276
    171  CG1      -23.0730   24.2990  -16.4410 C.3   136  ILE136      0.0022
    172  CG2      -22.2760   22.2410  -17.6250 C.3   136  ILE136      0.0022
    173  CD1      -24.5050   24.1710  -16.8330 C.3   136  ILE136      0.0001
    174  N        -16.5940   23.2470  -16.2340 N.3   139  ASN139     -0.1240
    175  CA       -16.7090   22.4820  -15.0160 C.3   139  ASN139      0.1653
    176  C        -16.6170   20.9840  -15.2820 C.2   139  ASN139      0.2266
    177  O        -15.9480   20.2610  -14.5380 O.2   139  ASN139     -0.2867
    178  CB       -18.0230   22.8230  -14.2990 C.3   139  ASN139      0.1155
    179  CG       -17.9850   24.1870  -13.5950 C.2   139  ASN139      0.2627
    180  OD1      -19.0020   24.6510  -13.0870 O.2   139  ASN139     -0.2716
    181  ND2      -16.8230   24.8190  -13.5570 N.am  139  ASN139     -0.0877
@<TRIPOS>BOND
     1   140   141    1
     2   141   144    1
     3   141   142    1
     4   144   145    1
     5   142   151   am
     6   142   143    2
     7   151   152    1
     8   153   152    1
     9   153   154    2
    10   158   159    1
    11   145   146   ar
    12   145   147   ar
    13   146   148   ar
    14   152   155    1
    15   134   133    2
    16   155   157    1
    17   155   156    1
    18   164   163    1
    19   147   149   ar
    20   168   169    2
    21   168   167    1
    22   159   160    1
    23   159   162    1
    24   148   150   ar
    25   172   170    1
    26   166   160   am
    27   166   167    1
    28   170   167    1
    29   170   171    1
    30   160   161    2
    31   131   132    1
    32   133   132    1
    33   162   163    1
    34   149   150   ar
    35   163   165    1
    36   173   171    1
    37   132   135    1
    38   174   175    1
    39   135   136    1
    40    20    19   ar
    41    20    18   ar
    42   136   137    1
    43   176   175    1
    44   176   177    2
    45   112   110    1
    46    19    17   ar
    47   175   178    1
    48    18    16   ar
    49   137   138   ar
    50   137   139   ar
    51   178   179    1
    52    57    56    1
    53    57    58    1
    54   121   119   ar
    55   121   123   ar
    56    56    53    1
    57    58    52    1
    58   124   123    1
    59    17    15   ar
    60   119   118   ar
    61   110   111    1
    62   110   109    1
    63   179   181   am
    64   179   180    2
    65    16    15   ar
    66   123   122   ar
    67   106   105    1
    68   106   109    1
    69   106   107    1
    70    15    14    1
    71    52    53    1
    72    52    46   am
    73    53    54    1
    74   129   126    1
    75   129   130    1
    76   126   127    1
    77   126   125    1
    78   118   117    1
    79   118   120   ar
    80    49    50    1
    81    49    51    1
    82    49    48    1
    83   114   117    1
    84   114   113    1
    85   114   115    1
    86   122   120   ar
    87    45    46    1
    88    45    44    1
    89    45    48    1
    90   107   108    2
    91    46    47    2
    92   127   128    2
    93    14    11    1
    94    54    55    2
    95    54    59   am
    96   115   116    2
    97    97    96    1
    98    97    98    2
    99    59    60    1
   100    10    11    1
   101    99    96    1
   102    99   100    1
   103    11    12    1
   104    96    95    1
   105   102   100   ar
   106   102   104   ar
   107     2     3    1
   108     2     5    1
   109     2     1    1
   110     3     4    2
   111   100   101   ar
   112     6     5    1
   113     6     7    1
   114    63    60    1
   115    60    61    1
   116    94    92    1
   117     7     8    1
   118    12    13    2
   119    12    21   am
   120     8     9    1
   121   104   103   ar
   122    82    81    2
   123    62    61    2
   124   101   103   ar
   125    43    41    1
   126    92    91    1
   127    86    84    1
   128    84    83    1
   129    21    22    1
   130    91    93    1
   131    91    88    1
   132    79    80    1
   133    42    41    1
   134    81    80    1
   135    87    88    1
   136    41    40    1
   137    90    89    2
   138    40    37    1
   139    26    28    1
   140    26    25    1
   141    88    89    1
   142    80    83    1
   143    83    85    1
   144    22    25    1
   145    22    23    1
   146    25    27    1
   147    69    68    1
   148    38    37    1
   149    38    39    2
   150    78    76   ar
   151    24    23    2
   152    37    36    1
   153    76    77   ar
   154    76    75    1
   155    68    65    1
   156    75    74    1
   157    34    33    1
   158    65    64    1
   159    65    66    1
   160    74    71    1
   161    33    35    1
   162    33    30    1
   163    71    70    1
   164    71    72    1
   165    66    67    2
   166    32    31    2
   167    31    30    1
   168    72    73    2
   169    30    29    1
