@<TRIPOS>MOLECULE
tmp/3r6sE00.pdb
 122 116 0 0 0
SMALL
GASTEIGER

@<TRIPOS>ATOM
      1  N         13.2640   48.4700  -42.8510 N.3    39  PHE39      -0.1241
      2  CA        13.3130   47.1960  -43.5210 C.3    39  PHE39       0.1605
      3  C         11.9670   46.5130  -43.3310 C.2    39  PHE39       0.2264
      4  O         11.2640   46.7890  -42.3560 O.2    39  PHE39      -0.2867
      5  CB        14.4990   46.3190  -43.0500 C.3    39  PHE39       0.0534
      6  CG        14.5720   46.0780  -41.5550 C.ar   39  PHE39      -0.0203
      7  CD1       13.5840   45.3280  -40.8830 C.ar   39  PHE39      -0.0042
      8  CD2       15.6580   46.5360  -40.8260 C.ar   39  PHE39      -0.0042
      9  CE1       13.6560   45.1060  -39.5160 C.ar   39  PHE39      -0.0003
     10  CE2       15.7650   46.2900  -39.4360 C.ar   39  PHE39      -0.0003
     11  CZ        14.7700   45.5780  -38.7860 C.ar   39  PHE39      -0.0000
     12  N          7.9830   47.9160  -34.4870 N.3    58  LEU58      -0.1245
     13  CA         8.3400   46.6410  -35.1050 C.3    58  LEU58       0.1561
     14  C          7.1060   45.7860  -35.2510 C.2    58  LEU58       0.2260
     15  O          6.3450   45.6220  -34.2840 O.2    58  LEU58      -0.2867
     16  CB         9.3710   45.9100  -34.2250 C.3    58  LEU58       0.0270
     17  CG        10.6130   46.7210  -33.8110 C.3    58  LEU58       0.0019
     18  CD1       11.5050   45.9460  -32.8080 C.3    58  LEU58       0.0001
     19  CD2       11.3920   47.0790  -35.0530 C.3    58  LEU58       0.0001
     20  N          4.4970   44.4160  -32.4950 N.3    70  LEU70      -0.1231
     21  CA         5.2870   43.8640  -31.3850 C.3    70  LEU70       0.1693
     22  C          5.7360   44.8600  -30.3040 C.2    70  LEU70       0.2592
     23  O          5.6080   44.5830  -29.1180 O.2    70  LEU70      -0.2718
     24  CB         6.5170   43.1200  -31.9340 C.3    70  LEU70       0.0284
     25  CG         6.2360   42.2560  -33.1530 C.3    70  LEU70       0.0019
     26  CD1        7.5270   41.7110  -33.6550 C.3    70  LEU70       0.0001
     27  CD2        5.2330   41.1100  -32.8270 C.3    70  LEU70       0.0001
     28  N          6.2990   45.9910  -30.7100 N.am   71  THR71      -0.1953
     29  CA         6.8030   46.9790  -29.7410 C.3    71  THR71       0.1897
     30  C          7.1960   48.3240  -30.3300 C.2    71  THR71       0.2313
     31  O          7.3660   48.4770  -31.5270 O.2    71  THR71      -0.2863
     32  CB         7.9970   46.4360  -28.9170 C.3    71  THR71       0.1794
     33  OG1        8.3640   47.4050  -27.9330 O.3    71  THR71      -0.2208
     34  CG2        9.1910   46.1530  -29.8090 C.3    71  THR71       0.0378
     35  N         10.1660   51.1440  -30.1030 N.3    73  MET73      -0.1245
     36  CA        11.5010   51.4730  -29.5700 C.3    73  MET73       0.1570
     37  C         11.8390   52.9380  -29.6990 C.2    73  MET73       0.2261
     38  O         11.4070   53.5850  -30.6240 O.2    73  MET73      -0.2867
     39  CB        12.5640   50.5650  -30.1790 C.3    73  MET73       0.0387
     40  CG        12.4720   49.1090  -29.6130 C.3    73  MET73       0.0595
     41  SD        13.5880   47.9490  -30.4030 S.3    73  MET73      -0.1393
     42  CE        13.3400   46.4380  -29.4650 C.3    73  MET73       0.0692
     43  N         17.8900   47.1650  -32.3050 N.3    79  PHE79      -0.1227
     44  CA        17.1550   46.1890  -33.0530 C.3    79  PHE79       0.1736
     45  C         17.9710   45.8300  -34.2510 C.2    79  PHE79       0.2596
     46  O         18.8550   46.5800  -34.6490 O.2    79  PHE79      -0.2718
     47  CB        15.7380   46.6890  -33.4240 C.3    79  PHE79       0.0547
     48  CG        15.6980   47.9400  -34.3040 C.ar   79  PHE79      -0.0202
     49  CD1       15.5120   47.8390  -35.6750 C.ar   79  PHE79      -0.0042
     50  CD2       15.8260   49.2130  -33.7440 C.ar   79  PHE79      -0.0042
     51  CE1       15.4880   49.0110  -36.5150 C.ar   79  PHE79      -0.0003
     52  CE2       15.7560   50.3880  -34.5490 C.ar   79  PHE79      -0.0003
     53  CZ        15.5990   50.2910  -35.9380 C.ar   79  PHE79      -0.0000
     54  N         17.6620   44.6820  -34.8440 N.am   80  GLY80      -0.1942
     55  CA        18.3780   44.2220  -36.0140 C.3    80  GLY80       0.2014
     56  C         19.4240   43.1680  -35.7180 C.2    80  GLY80       0.2639
     57  O         19.9950   42.6290  -36.6370 O.2    80  GLY80      -0.2714
     58  N         19.6740   42.8660  -34.4470 N.am   81  GLU81      -0.1963
     59  CA        20.7740   41.9400  -34.1110 C.3    81  GLU81       0.1733
     60  C         20.5910   40.4680  -34.5520 C.2    81  GLU81       0.2616
     61  O         21.5810   39.7980  -34.8470 O.2    81  GLU81      -0.2715
     62  CB        21.1460   42.0560  -32.6230 C.3    81  GLU81       0.0429
     63  CG        20.1300   41.4290  -31.6440 C.3    81  GLU81       0.1163
     64  CD        18.7170   42.0980  -31.6330 C.2    81  GLU81       0.3649
     65  OE1       18.6080   43.3160  -31.9090 O.co2  81  GLU81      -0.2457
     66  OE2       17.7090   41.4090  -31.3120 O.co2  81  GLU81      -0.2457
     67  N         19.3430   39.9910  -34.6210 N.am   82  LEU82      -0.1963
     68  CA        19.0120   38.5890  -35.0440 C.3    82  LEU82       0.1728
     69  C         19.5610   38.1980  -36.4110 C.2    82  LEU82       0.2616
     70  O         20.1260   37.0960  -36.6000 O.2    82  LEU82      -0.2715
     71  CB        17.5060   38.3250  -35.0460 C.3    82  LEU82       0.0311
     72  CG        16.9310   37.6090  -33.8320 C.3    82  LEU82       0.0022
     73  CD1       17.6500   38.1060  -32.5990 C.3    82  LEU82       0.0001
     74  CD2       15.4260   37.8190  -33.6600 C.3    82  LEU82       0.0001
     75  N         19.4220   39.0920  -37.3650 N.am   83  SER83      -0.1950
     76  CA        19.9930   38.8310  -38.6810 C.3    83  SER83       0.1924
     77  C         21.5060   38.8630  -38.6730 C.2    83  SER83       0.2314
     78  O         22.1210   38.3970  -39.5990 O.2    83  SER83      -0.2863
     79  CB        19.4300   39.7960  -39.7180 C.3    83  SER83       0.2116
     80  OG        18.0070   39.6310  -39.7070 O.3    83  SER83      -0.2180
     81  N         14.6640   39.2090  -41.9740 N.3    90  ARG90      -0.1231
     82  CA        14.3200   39.9990  -40.8350 C.3    90  ARG90       0.1694
     83  C         13.0450   39.3670  -40.2920 C.2    90  ARG90       0.2593
     84  O         12.2520   38.8210  -41.0650 O.2    90  ARG90      -0.2718
     85  CB        14.0900   41.4610  -41.2450 C.3    90  ARG90       0.0321
     86  CG        15.3050   42.2200  -41.7520 C.3    90  ARG90       0.0489
     87  CD        16.3810   42.3840  -40.6410 C.3    90  ARG90       0.2205
     88  NE        17.4110   43.3420  -41.0240 N.pl3  90  ARG90      -0.0865
     89  CZ        18.4220   43.7500  -40.2500 C.cat  90  ARG90       0.5346
     90  NH1       18.5970   43.2570  -39.0240 N.pl3  90  ARG90       0.1354
     91  NH2       19.2860   44.6490  -40.7350 N.pl3  90  ARG90       0.1354
     92  N         12.8620   39.4320  -38.9680 N.am   91  THR91      -0.1939
     93  CA        11.7890   38.6940  -38.3050 C.3    91  THR91       0.2028
     94  C         10.6900   39.6970  -37.9660 C.2    91  THR91       0.2642
     95  O          9.7320   39.3660  -37.2520 O.2    91  THR91      -0.2714
     96  CB        12.2820   37.9950  -37.0010 C.3    91  THR91       0.1808
     97  OG1       12.7060   38.9760  -36.0490 O.3    91  THR91      -0.2208
     98  CG2       13.4370   37.0310  -37.2590 C.3    91  THR91       0.0379
     99  N         10.8400   40.9330  -38.4430 N.am   92  SER92      -0.1949
    100  CA         9.7970   41.9130  -38.3600 C.3    92  SER92       0.1924
    101  C         10.1380   43.0220  -39.3290 C.2    92  SER92       0.2314
    102  O         11.1770   42.9910  -39.9910 O.2    92  SER92      -0.2863
    103  CB         9.6620   42.4670  -36.9290 C.3    92  SER92       0.2116
    104  OG        10.5420   43.5700  -36.6760 O.3    92  SER92      -0.2180
    105  N         15.4750   38.7280  -23.6720 N.3   131  ARG131     -0.1245
    106  CA        14.4620   38.8310  -24.7210 C.3   131  ARG131      0.1563
    107  C         13.7840   37.4670  -24.8220 C.2   131  ARG131      0.2260
    108  O         12.5720   37.3890  -24.7420 O.2   131  ARG131     -0.2867
    109  CB        15.0280   39.3120  -26.0700 C.3   131  ARG131      0.0307
    110  CG        14.7210   40.7620  -26.4110 C.3   131  ARG131      0.0489
    111  CD        15.5330   41.3830  -27.6450 C.3   131  ARG131      0.2205
    112  NE        15.9520   42.7830  -27.4020 N.pl3 131  ARG131     -0.0865
    113  CZ        16.5240   43.6220  -28.2820 C.cat 131  ARG131      0.5346
    114  NH1       16.7710   43.2680  -29.5350 N.pl3 131  ARG131      0.1354
    115  NH2       16.8650   44.8500  -27.8920 N.pl3 131  ARG131      0.1354
    116  N         10.0150   36.5740  -24.2240 N.3   135  THR135     -0.1218
    117  CA         9.2220   36.0230  -25.3250 C.3   135  THR135      0.1862
    118  C          8.4680   34.7220  -24.9620 C.2   135  THR135      0.2287
    119  O          7.3540   34.4960  -25.4520 O.2   135  THR135     -0.2866
    120  CB        10.0580   35.8520  -26.5850 C.3   135  THR135      0.1770
    121  OG1       10.7900   37.0710  -26.8270 O.3   135  THR135     -0.2211
    122  CG2        9.1810   35.5340  -27.7970 C.3   135  THR135      0.0375
@<TRIPOS>BOND
     1     2     3    1
     2     2     5    1
     3     2     1    1
     4     3     4    2
     5     5     6    1
     6    81    82    1
     7    86    85    1
     8    86    87    1
     9     6     7   ar
    10     6     8   ar
    11    85    82    1
    12    84    83    2
    13    88    87    1
    14    88    89    2
    15     7     9   ar
    16    82    83    1
    17     8    10   ar
    18    91    89    1
    19    83    92   am
    20    89    90    1
    21   102   101    2
    22    79    80    1
    23    79    76    1
    24    78    77    2
    25     9    11   ar
    26    10    11   ar
    27   101   100    1
    28    92    93    1
    29    76    77    1
    30    76    75    1
    31    99   100    1
    32    99    94   am
    33   100   103    1
    34    93    94    1
    35    93    96    1
    36    94    95    2
    37    75    69   am
    38    98    96    1
    39    96    97    1
    40   103   104    1
    41    57    56    2
    42    70    69    2
    43    51    53   ar
    44    51    49   ar
    45    69    68    1
    46    55    56    1
    47    55    54    1
    48    53    52   ar
    49    56    58   am
    50    49    48   ar
    51    14    13    1
    52    14    15    2
    53    13    12    1
    54    13    16    1
    55    19    17    1
    56    71    68    1
    57    71    72    1
    58    68    67    1
    59    61    60    2
    60    54    45   am
    61    46    45    2
    62    67    60   am
    63    60    59    1
    64    52    50   ar
    65    58    59    1
    66    48    50   ar
    67    48    47    1
    68    45    44    1
    69    16    17    1
    70    59    62    1
    71    72    74    1
    72    72    73    1
    73    17    18    1
    74    26    25    1
    75    47    44    1
    76    25    27    1
    77    25    24    1
    78    44    43    1
    79    62    63    1
    80    20    21    1
    81    24    21    1
    82    65    64   ar
    83    63    64    1
    84    64    66   ar
    85    31    30    2
    86    21    22    1
    87    28    22   am
    88    28    29    1
    89    38    37    2
    90    41    40    1
    91    41    42    1
    92    30    29    1
    93    22    23    2
    94    39    40    1
    95    39    36    1
    96    35    36    1
    97    34    32    1
    98    29    32    1
    99    37    36    1
   100   114   113    1
   101    32    33    1
   102   113   115    1
   103   113   112    2
   104   122   120    1
   105   111   112    1
   106   111   110    1
   107   121   120    1
   108   120   117    1
   109   110   109    1
   110   109   106    1
   111   119   118    2
   112   117   118    1
   113   117   116    1
   114   107   108    2
   115   107   106    1
   116   106   105    1
