@<TRIPOS>MOLECULE
tmp/3r6tA01.pdb
 90 86 0 0 0
SMALL
GASTEIGER

@<TRIPOS>ATOM
      1  N         -6.0390    7.7690   39.4640 N.3   149  THR149     -0.1203
      2  CA        -5.2580    7.7370   40.7010 C.3   149  THR149      0.1994
      3  C         -6.1560    7.4180   41.8790 C.2   149  THR149      0.2617
      4  O         -5.8700    6.5810   42.7230 O.2   149  THR149     -0.2717
      5  CB        -4.5010    9.0640   40.9050 C.3   149  THR149      0.1784
      6  OG1       -3.5270    9.2090   39.8710 O.3   149  THR149     -0.2211
      7  CG2       -3.7790    9.0900   42.2150 C.3   149  THR149      0.0376
      8  N         -7.3170    8.0990   41.9320 N.am  150  LEU150     -0.1979
      9  CA        -8.2780    7.8600   42.9810 C.3   150  LEU150      0.1596
     10  C         -8.8350    6.4600   42.9280 C.2   150  LEU150      0.2287
     11  O         -9.0380    5.8100   43.9850 O.2   150  LEU150     -0.2864
     12  CB        -9.4300    8.9140   42.8720 C.3   150  LEU150      0.0297
     13  CG        -9.0030   10.3490   43.0450 C.3   150  LEU150      0.0022
     14  CD1      -10.1920   11.2390   42.7260 C.3   150  LEU150      0.0001
     15  CD2       -8.4880   10.6400   44.4470 C.3   150  LEU150      0.0001
     16  N         -6.2480    3.9170   44.2840 N.3   153  GLU153     -0.1245
     17  CA        -6.2730    3.9070   45.7270 C.3   153  GLU153      0.1567
     18  C         -7.4780    3.1310   46.2500 C.2   153  GLU153      0.2260
     19  O         -7.3600    2.3040   47.1490 O.2   153  GLU153     -0.2867
     20  CB        -6.2410    5.2960   46.3040 C.3   153  GLU153      0.0388
     21  CG        -5.9180    5.2210   47.7910 C.3   153  GLU153      0.1160
     22  CD        -7.0710    4.7990   48.6940 C.2   153  GLU153      0.3649
     23  OE1       -8.2380    5.0980   48.3370 O.co2 153  GLU153     -0.2457
     24  OE2       -6.8610    4.2300   49.8050 O.co2 153  GLU153     -0.2457
     25  N         -2.3450    0.6720   45.5880 N.3   158  LEU158     -0.1245
     26  CA        -1.1880    1.4710   45.9970 C.3   158  LEU158      0.1561
     27  C         -0.7040    1.0000   47.3260 C.2   158  LEU158      0.2260
     28  O         -1.5060    0.6980   48.2190 O.2   158  LEU158     -0.2867
     29  CB        -1.5650    2.9580   46.0820 C.3   158  LEU158      0.0270
     30  CG        -2.1890    3.5290   44.8270 C.3   158  LEU158      0.0019
     31  CD1       -2.4660    5.0270   45.0540 C.3   158  LEU158      0.0001
     32  CD2       -1.3120    3.2930   43.5770 C.3   158  LEU158      0.0001
     33  N         -3.8600   18.2660   42.8870 N.3   180  TYR180     -0.1241
     34  CA        -4.2680   17.3180   43.8660 C.3   180  TYR180      0.1605
     35  C         -3.0370   16.6660   44.5330 C.2   180  TYR180      0.2264
     36  O         -2.9200   16.6380   45.7750 O.2   180  TYR180     -0.2867
     37  CB        -5.1780   16.2710   43.2690 C.3   180  TYR180      0.0534
     38  CG        -5.6350   15.2940   44.2920 C.ar  180  TYR180     -0.0201
     39  CD1       -6.7290   15.5930   45.1210 C.ar  180  TYR180     -0.0009
     40  CD2       -4.9840   14.0990   44.5230 C.ar  180  TYR180     -0.0009
     41  CE1       -7.1690   14.7370   46.1100 C.ar  180  TYR180      0.0417
     42  CE2       -5.4050   13.2150   45.4760 C.ar  180  TYR180      0.0417
     43  CZ        -6.4890   13.5310   46.3020 C.ar  180  TYR180      0.1957
     44  OH        -6.8520   12.6350   47.2890 O.3   180  TYR180     -0.2866
     45  N         -1.7530   17.1860   48.5380 N.3   184  SER184     -0.1217
     46  CA        -2.1340   16.0740   49.3560 C.3   184  SER184      0.1889
     47  C         -1.0120   15.5770   50.2600 C.2   184  SER184      0.2288
     48  O          0.1010   15.2900   49.7820 O.2   184  SER184     -0.2866
     49  CB        -2.4860   14.9040   48.4900 C.3   184  SER184      0.2089
     50  OG        -2.6820   13.7380   49.2620 O.3   184  SER184     -0.2183
     51  N         -0.8220   12.7450   51.3260 N.3   186  SER186     -0.1202
     52  CA        -0.5800   11.3760   50.9660 C.3   186  SER186      0.2020
     53  C          0.3860   11.1960   49.8040 C.2   186  SER186      0.2618
     54  O          0.6200   10.0610   49.4080 O.2   186  SER186     -0.2717
     55  CB        -1.8500   10.6840   50.5990 C.3   186  SER186      0.2103
     56  OG        -2.6700   10.5040   51.7610 O.3   186  SER186     -0.2182
     57  N          0.9230   12.2770   49.2640 N.am  187  PHE187     -0.1975
     58  CA         1.9490   12.2000   48.2060 C.3   187  PHE187      0.1639
     59  C          3.1190   13.1070   48.5460 C.2   187  PHE187      0.2290
     60  O          2.9400   14.1780   49.0810 O.2   187  PHE187     -0.2864
     61  CB         1.3740   12.6000   46.8470 C.3   187  PHE187      0.0560
     62  CG         0.3590   11.6070   46.3410 C.ar  187  PHE187     -0.0200
     63  CD1        0.7760   10.4810   45.6660 C.ar  187  PHE187     -0.0042
     64  CD2       -1.0130   11.7620   46.5520 C.ar  187  PHE187     -0.0042
     65  CE1       -0.0660    9.5410   45.2000 C.ar  187  PHE187     -0.0003
     66  CE2       -1.8740   10.7840   46.0690 C.ar  187  PHE187     -0.0003
     67  CZ        -1.4100    9.7210   45.3560 C.ar  187  PHE187     -0.0000
     68  N          3.3610    7.7220   46.8560 N.3   210  TYR210     -0.1241
     69  CA         2.2310    7.5470   47.7680 C.3   210  TYR210      0.1605
     70  C          2.7540    7.2310   49.1800 C.2   210  TYR210      0.2264
     71  O          3.6530    6.4100   49.3700 O.2   210  TYR210     -0.2867
     72  CB         1.3640    6.4120   47.2700 C.3   210  TYR210      0.0534
     73  CG         0.0640    6.2150   48.0720 C.ar  210  TYR210     -0.0201
     74  CD1       -0.8650    7.2370   48.2140 C.ar  210  TYR210     -0.0009
     75  CD2       -0.2140    5.0370   48.6820 C.ar  210  TYR210     -0.0009
     76  CE1       -2.0110    7.0480   48.9310 C.ar  210  TYR210      0.0417
     77  CE2       -1.4120    4.8370   49.3580 C.ar  210  TYR210      0.0417
     78  CZ        -2.2920    5.8590   49.4850 C.ar  210  TYR210      0.1957
     79  OH        -3.4540    5.6450   50.1730 O.3   210  TYR210     -0.2866
     80  N          0.6170    6.3290   51.7840 N.3   212  GLY212     -0.1210
     81  CA        -0.3700    5.5750   52.5720 C.3   212  GLY212      0.1940
     82  C         -1.5450    6.4940   52.8760 C.2   212  GLY212      0.2453
     83  O         -1.4940    7.7000   52.6630 O.2   212  GLY212     -0.2732
     84  N         -2.6150    5.9550   53.4700 N.am  213  PRO213     -0.2728
     85  CA        -3.7850    6.7880   53.9650 C.3   213  PRO213      0.1401
     86  C         -3.3400    7.7090   55.1230 C.2   213  PRO213      0.2269
     87  O         -2.3580    7.3920   55.8300 O.2   213  PRO213     -0.2865
     88  CB        -4.7690    5.7560   54.4990 C.3   213  PRO213      0.0296
     89  CG        -4.3080    4.3800   53.9050 C.3   213  PRO213      0.0237
     90  CD        -2.8370    4.4980   53.6050 C.3   213  PRO213      0.0939
@<TRIPOS>BOND
     1     1     2    1
     2     6     5    1
     3     2     5    1
     4     2     3    1
     5     5     7    1
     6     3     8   am
     7     3     4    2
     8     8     9    1
     9    14    13    1
    10    12     9    1
    11    12    13    1
    12    33    34    1
    13    10     9    1
    14    10    11    2
    15    13    15    1
    16    37    34    1
    17    37    38    1
    18    32    30    1
    19    34    35    1
    20    16    17    1
    21    38    40   ar
    22    38    39   ar
    23    40    42   ar
    24    35    36    2
    25    30    31    1
    26    30    29    1
    27    39    41   ar
    28    65    67   ar
    29    65    63   ar
    30    67    66   ar
    31    42    43   ar
    32    25    26    1
    33    63    62   ar
    34    17    18    1
    35    17    20    1
    36    26    29    1
    37    26    27    1
    38    66    64   ar
    39    41    43   ar
    40    18    19    2
    41    43    44    1
    42    20    21    1
    43    62    64   ar
    44    62    61    1
    45    61    58    1
    46    68    69    1
    47    72    69    1
    48    72    73    1
    49    27    28    2
    50    69    70    1
    51    21    22    1
    52    73    74   ar
    53    73    75   ar
    54    58    59    1
    55    58    57    1
    56    74    76   ar
    57    23    22   ar
    58    49    50    1
    59    49    46    1
    60    45    46    1
    61    59    60    2
    62    75    77   ar
    63    22    24   ar
    64    76    78   ar
    65    70    71    2
    66    57    53   am
    67    46    47    1
    68    77    78   ar
    69    54    53    2
    70    78    79    1
    71    48    47    2
    72    53    52    1
    73    55    52    1
    74    55    56    1
    75    52    51    1
    76    80    81    1
    77    81    82    1
    78    83    82    2
    79    82    84   am
    80    84    90    1
    81    84    85    1
    82    90    89    1
    83    89    88    1
    84    85    88    1
    85    85    86    1
    86    86    87    2
