@<TRIPOS>MOLECULE
tmp/3r6uA00.pdb
 97 91 0 0 0
SMALL
GASTEIGER

@<TRIPOS>ATOM
      1  N         -2.2130    9.6950  -12.7220 N.3     8  GLN8       -0.1245
      2  CA        -1.4360    9.3010  -13.9030 C.3     8  GLN8        0.1566
      3  C         -1.1780   10.5720  -14.7680 C.2     8  GLN8        0.2260
      4  O         -1.8650   11.5850  -14.6320 O.2     8  GLN8       -0.2867
      5  CB        -2.2110    8.1740  -14.6360 C.3     8  GLN8        0.0367
      6  CG        -1.2740    7.3860  -15.5810 C.3     8  GLN8        0.0905
      7  CD        -1.8840    6.1740  -16.1370 C.2     8  GLN8        0.2608
      8  OE1       -2.3000    5.2750  -15.3610 O.2     8  GLN8       -0.2717
      9  NE2       -1.8840    6.0590  -17.4650 N.am    8  GLN8       -0.0878
     10  N         -2.1190   12.0060  -17.3900 N.3    10  MET10      -0.1245
     11  CA        -3.2360   12.3020  -18.3380 C.3    10  MET10       0.1570
     12  C         -4.0140   13.4630  -17.7510 C.2    10  MET10       0.2261
     13  O         -4.2110   13.4690  -16.5350 O.2    10  MET10      -0.2867
     14  CB        -4.2320   11.0890  -18.4800 C.3    10  MET10       0.0387
     15  CG        -3.6110    9.9100  -19.1570 C.3    10  MET10       0.0595
     16  SD        -4.7010    8.5130  -19.3280 S.3    10  MET10      -0.1393
     17  CE        -4.7900    7.9190  -17.7170 C.3    10  MET10       0.0692
     18  N         -0.2580    2.2990  -15.2160 N.3    41  ASN41      -0.1240
     19  CA        -0.9470    1.3500  -14.3160 C.3    41  ASN41       0.1653
     20  C         -0.0200    0.7100  -13.2640 C.2    41  ASN41       0.2266
     21  O         -0.3560    0.6900  -12.0800 O.2    41  ASN41      -0.2867
     22  CB        -1.6360    0.2760  -15.1840 C.3    41  ASN41       0.1155
     23  CG        -2.1850   -0.8400  -14.3810 C.2    41  ASN41       0.2627
     24  OD1       -3.3140   -0.7700  -13.8610 O.2    41  ASN41      -0.2716
     25  ND2       -1.4220   -1.9550  -14.2450 N.am   41  ASN41      -0.0877
     26  N         -8.0980    1.7050  -14.5460 N.3    60  TYR60      -0.1241
     27  CA        -8.8910    1.2410  -15.6880 C.3    60  TYR60       0.1605
     28  C         -8.9100   -0.2470  -15.7140 C.2    60  TYR60       0.2264
     29  O         -7.8360   -0.8720  -15.6050 O.2    60  TYR60      -0.2867
     30  CB        -8.3460    1.8510  -17.0040 C.3    60  TYR60       0.0534
     31  CG        -8.2990    3.3960  -16.9280 C.ar   60  TYR60      -0.0201
     32  CD1       -9.3510    4.1540  -17.4060 C.ar   60  TYR60      -0.0009
     33  CD2       -7.2370    4.0210  -16.3710 C.ar   60  TYR60      -0.0009
     34  CE1       -9.3160    5.5580  -17.3950 C.ar   60  TYR60       0.0417
     35  CE2       -7.1460    5.4320  -16.2950 C.ar   60  TYR60       0.0417
     36  CZ        -8.2370    6.1990  -16.8040 C.ar   60  TYR60       0.1957
     37  OH        -8.0920    7.6250  -16.6810 O.3    60  TYR60      -0.2866
     38  N         -6.4840   -2.0470  -18.1100 N.3    63  ASP63      -0.1239
     39  CA        -5.0310   -1.9050  -17.7810 C.3    63  ASP63       0.1674
     40  C         -4.6810   -2.8780  -16.6320 C.2    63  ASP63       0.2266
     41  O         -3.5330   -3.4140  -16.6470 O.2    63  ASP63      -0.2867
     42  CB        -4.7350   -0.4580  -17.2150 C.3    63  ASP63       0.1410
     43  CG        -4.6860    0.6310  -18.2570 C.2    63  ASP63       0.3668
     44  OD1       -4.6880    0.3580  -19.4470 O.co2  63  ASP63      -0.2456
     45  OD2       -4.6790    1.8400  -17.8700 O.co2  63  ASP63      -0.2456
     46  N        -12.3540    4.8040  -20.8380 N.3   104  ASN104     -0.1240
     47  CA       -11.4040    5.4450  -21.6670 C.3   104  ASN104      0.1653
     48  C        -10.5330    4.4310  -22.4050 C.2   104  ASN104      0.2266
     49  O         -9.5780    3.9500  -21.8720 O.2   104  ASN104     -0.2867
     50  CB       -10.5320    6.4060  -20.8070 C.3   104  ASN104      0.1155
     51  CG        -9.5590    7.2060  -21.6650 C.2   104  ASN104      0.2627
     52  OD1       -9.6410    7.1750  -22.9200 O.2   104  ASN104     -0.2716
     53  ND2       -8.6050    7.9280  -21.0210 N.am  104  ASN104     -0.0877
     54  N         -8.2640    2.7610  -25.6470 N.3   106  TYR106     -0.1241
     55  CA        -7.5110    2.9960  -26.8950 C.3   106  TYR106      0.1605
     56  C         -8.4980    2.8710  -28.0840 C.2   106  TYR106      0.2264
     57  O         -9.4140    2.0370  -28.0590 O.2   106  TYR106     -0.2867
     58  CB        -6.4790    1.8710  -27.0470 C.3   106  TYR106      0.0534
     59  CG        -5.4120    1.7740  -25.9970 C.ar  106  TYR106     -0.0201
     60  CD1       -4.4090    2.7580  -25.9000 C.ar  106  TYR106     -0.0009
     61  CD2       -5.3660    0.6790  -25.1240 C.ar  106  TYR106     -0.0009
     62  CE1       -3.4000    2.6180  -24.9000 C.ar  106  TYR106      0.0417
     63  CE2       -4.4040    0.5750  -24.1500 C.ar  106  TYR106      0.0417
     64  CZ        -3.4020    1.5370  -24.0640 C.ar  106  TYR106      0.1957
     65  OH        -2.3650    1.4210  -23.1030 O.3   106  TYR106     -0.2866
     66  N          1.1000    6.6740  -28.3580 N.3   138  ASP138     -0.1239
     67  CA         1.7220    7.1840  -27.1050 C.3   138  ASP138      0.1674
     68  C          3.1010    6.5320  -26.8840 C.2   138  ASP138      0.2266
     69  O          3.5160    5.5800  -27.5900 O.2   138  ASP138     -0.2867
     70  CB         0.7960    7.0310  -25.8460 C.3   138  ASP138      0.1410
     71  CG         0.5190    5.6010  -25.4430 C.2   138  ASP138      0.3668
     72  OD1        1.4190    4.7130  -25.4850 O.co2 138  ASP138     -0.2456
     73  OD2       -0.6320    5.3150  -25.0290 O.co2 138  ASP138     -0.2456
     74  N         -7.1780    8.1630  -27.2200 N.3   186  TYR186     -0.1241
     75  CA        -7.9190    7.7720  -26.0560 C.3   186  TYR186      0.1605
     76  C         -9.3530    8.2810  -26.2170 C.2   186  TYR186      0.2264
     77  O         -9.5750    9.4690  -26.5100 O.2   186  TYR186     -0.2867
     78  CB        -7.2720    8.3710  -24.7840 C.3   186  TYR186      0.0534
     79  CG        -5.8840    7.9050  -24.4430 C.ar  186  TYR186     -0.0201
     80  CD1       -5.2240    8.4530  -23.3420 C.ar  186  TYR186     -0.0009
     81  CD2       -5.2050    6.9200  -25.1690 C.ar  186  TYR186     -0.0009
     82  CE1       -3.9610    8.0520  -22.9580 C.ar  186  TYR186      0.0417
     83  CE2       -3.9230    6.5410  -24.8160 C.ar  186  TYR186      0.0417
     84  CZ        -3.2790    7.1030  -23.6950 C.ar  186  TYR186      0.1957
     85  OH        -1.9960    6.7180  -23.3220 O.3   186  TYR186     -0.2866
     86  N        -12.2340   -0.5450  -20.6990 N.3   210  TYR210     -0.1241
     87  CA       -11.3900    0.3330  -19.8280 C.3   210  TYR210      0.1605
     88  C        -12.2810    1.2560  -18.9510 C.2   210  TYR210      0.2264
     89  O        -12.0240    2.4420  -18.8080 O.2   210  TYR210     -0.2867
     90  CB       -10.3880    1.1750  -20.6730 C.3   210  TYR210      0.0534
     91  CG        -9.2940    0.3240  -21.3340 C.ar  210  TYR210     -0.0201
     92  CD1       -8.1040    0.0680  -20.6680 C.ar  210  TYR210     -0.0009
     93  CD2       -9.4590   -0.1170  -22.6550 C.ar  210  TYR210     -0.0009
     94  CE1       -7.1190   -0.6890  -21.2510 C.ar  210  TYR210      0.0417
     95  CE2       -8.4810   -0.8550  -23.2760 C.ar  210  TYR210      0.0417
     96  CZ        -7.3350   -1.1720  -22.5720 C.ar  210  TYR210      0.1957
     97  OH        -6.3460   -1.9360  -23.1980 O.3   210  TYR210     -0.2866
@<TRIPOS>BOND
     1    66    67    1
     2    56    57    2
     3    56    55    1
     4    69    68    2
     5    74    75    1
     6    67    68    1
     7    67    70    1
     8    58    55    1
     9    58    59    1
    10    55    54    1
    11    77    76    2
    12    76    75    1
    13    75    78    1
    14    59    60   ar
    15    59    61   ar
    16    60    62   ar
    17    70    71    1
    18    72    71   ar
    19    71    73   ar
    20    81    83   ar
    21    81    79   ar
    22    61    63   ar
    23    62    64   ar
    24    83    84   ar
    25    78    79    1
    26    79    80   ar
    27    63    64   ar
    28    64    65    1
    29    84    85    1
    30    84    82   ar
    31    80    82   ar
    32    95    93   ar
    33    95    96   ar
    34    97    96    1
    35    52    51    2
    36    93    91   ar
    37    96    94   ar
    38    48    49    2
    39    48    47    1
    40    47    46    1
    41    47    50    1
    42    51    53   am
    43    51    50    1
    44    91    90    1
    45    91    92   ar
    46    94    92   ar
    47    86    87    1
    48    90    87    1
    49    87    88    1
    50    44    43   ar
    51    16    15    1
    52    16    17    1
    53    15    14    1
    54    88    89    2
    55    14    11    1
    56    11    12    1
    57    11    10    1
    58    43    45   ar
    59    43    42    1
    60    38    39    1
    61    39    42    1
    62    39    40    1
    63    12    13    2
    64     9     7   am
    65    32    34   ar
    66    32    31   ar
    67    34    36   ar
    68    30    31    1
    69    30    27    1
    70    31    33   ar
    71    36    37    1
    72    36    35   ar
    73    41    40    2
    74    33    35   ar
    75     7     6    1
    76     7     8    2
    77    28    27    1
    78    28    29    2
    79    27    26    1
    80     6     5    1
    81    18    19    1
    82    22    23    1
    83    22    19    1
    84     3     4    2
    85     3     2    1
    86     5     2    1
    87    23    25   am
    88    23    24    2
    89    19    20    1
    90     2     1    1
    91    20    21    2
