@<TRIPOS>MOLECULE
tmp/3r6wA01.pdb
 81 77 0 0 0
SMALL
GASTEIGER

@<TRIPOS>ATOM
      1  N         56.5220  -12.5210   18.7930 N.3    97  MET97      -0.1245
      2  CA        57.4790  -13.4450   19.3730 C.3    97  MET97       0.1570
      3  C         58.7380  -12.6480   19.6770 C.2    97  MET97       0.2261
      4  O         59.3290  -12.0310   18.7850 O.2    97  MET97      -0.2867
      5  CB        57.8140  -14.6010   18.4250 C.3    97  MET97       0.0387
      6  CG        59.0050  -15.4250   18.9350 C.3    97  MET97       0.0595
      7  SD        59.3810  -16.9020   17.9720 S.3    97  MET97      -0.1393
      8  CE        58.1800  -18.0590   18.6400 C.3    97  MET97       0.0692
      9  N         62.3780  -13.1920   21.3670 N.3    99  ASN99      -0.1225
     10  CA        63.3360  -14.1590   21.8790 C.3    99  ASN99       0.1785
     11  C         62.7080  -15.5070   22.2320 C.2    99  ASN99       0.2597
     12  O         62.9250  -16.0520   23.3130 O.2    99  ASN99      -0.2718
     13  CB        64.1320  -13.5260   23.0270 C.3    99  ASN99       0.1169
     14  CG        64.9640  -12.3480   22.5380 C.2    99  ASN99       0.2627
     15  OD1       65.6880  -12.4720   21.5360 O.2    99  ASN99      -0.2716
     16  ND2       64.8230  -11.1950   23.1860 N.am   99  ASN99      -0.0877
     17  N         61.9280  -16.0300   21.2830 N.am  100  PHE100     -0.1976
     18  CA        61.3580  -17.3610   21.3760 C.3   100  PHE100      0.1639
     19  C         60.2860  -17.4640   22.4400 C.2   100  PHE100      0.2290
     20  O         59.7870  -18.5550   22.7300 O.2   100  PHE100     -0.2864
     21  CB        62.4640  -18.3890   21.5740 C.3   100  PHE100      0.0560
     22  CG        63.5680  -18.2400   20.5710 C.ar  100  PHE100     -0.0200
     23  CD1       63.3960  -18.6850   19.2700 C.ar  100  PHE100     -0.0042
     24  CD2       64.7560  -17.5980   20.9080 C.ar  100  PHE100     -0.0042
     25  CE1       64.3940  -18.5230   18.3290 C.ar  100  PHE100     -0.0003
     26  CE2       65.7620  -17.4360   19.9680 C.ar  100  PHE100     -0.0003
     27  CZ        65.5770  -17.8970   18.6790 C.ar  100  PHE100     -0.0000
     28  N         59.3910  -12.6130   13.3350 N.3   146  GLY146     -0.1210
     29  CA        60.3410  -12.0810   12.3720 C.3   146  GLY146      0.1956
     30  C         60.7760  -13.1480   11.3810 C.2   146  GLY146      0.2612
     31  O         60.8370  -12.8910   10.1820 O.2   146  GLY146     -0.2717
     32  N         61.0630  -14.3420   11.8890 N.am  147  GLY147     -0.1942
     33  CA        61.5090  -15.4560   11.0660 C.3   147  GLY147      0.2014
     34  C         60.4100  -16.3990   10.6160 C.2   147  GLY147      0.2638
     35  O         59.2300  -16.0550   10.6480 O.2   147  GLY147     -0.2714
     36  N         60.7930  -17.6000   10.1980 N.am  148  HIS148     -0.1973
     37  CA        59.8210  -18.5570    9.6890 C.3   148  HIS148      0.1656
     38  C         60.0010  -19.9230   10.3310 C.2   148  HIS148      0.2291
     39  O         61.0270  -20.2020   10.9550 O.2   148  HIS148     -0.2864
     40  CB        59.9280  -18.6730    8.1680 C.3   148  HIS148      0.0771
     41  CG        61.2400  -19.2160    7.6950 C.ar  148  HIS148      0.0820
     42  ND1       62.4340  -18.9290    8.3220 N.ar  148  HIS148     -0.2267
     43  CD2       61.5450  -20.0380    6.6650 C.ar  148  HIS148      0.1154
     44  CE1       63.4180  -19.5470    7.6930 C.ar  148  HIS148      0.1986
     45  NE2       62.9050  -20.2270    6.6840 N.ar  148  HIS148     -0.2212
     46  N         58.1720  -21.4700   12.8290 N.3   150  PHE150     -0.1241
     47  CA        57.8800  -21.6710   14.2480 C.3   150  PHE150      0.1605
     48  C         56.5290  -22.3480   14.5000 C.2   150  PHE150      0.2264
     49  O         56.2160  -22.7070   15.6350 O.2   150  PHE150     -0.2867
     50  CB        57.9890  -20.3560   15.0280 C.3   150  PHE150      0.0534
     51  CG        59.3930  -19.7960   15.0830 C.ar  150  PHE150     -0.0203
     52  CD1       60.2850  -20.2130   16.0620 C.ar  150  PHE150     -0.0042
     53  CD2       59.8180  -18.8460   14.1600 C.ar  150  PHE150     -0.0042
     54  CE1       61.5840  -19.6960   16.1150 C.ar  150  PHE150     -0.0003
     55  CE2       61.1170  -18.3240   14.2100 C.ar  150  PHE150     -0.0003
     56  CZ        61.9930  -18.7530   15.1850 C.ar  150  PHE150     -0.0000
     57  N         61.6320  -24.8570   12.9470 N.3   156  ASN156     -0.1240
     58  CA        61.9690  -24.2800   14.2410 C.3   156  ASN156      0.1653
     59  C         60.8450  -24.4410   15.2590 C.2   156  ASN156      0.2266
     60  O         60.7620  -23.6790   16.2280 O.2   156  ASN156     -0.2867
     61  CB        62.2870  -22.7890   14.0900 C.3   156  ASN156      0.1155
     62  CG        63.4420  -22.5260   13.1450 C.2   156  ASN156      0.2627
     63  OD1       64.5130  -23.1190   13.2730 O.2   156  ASN156     -0.2716
     64  ND2       63.2260  -21.6270   12.1850 N.am  156  ASN156     -0.0877
     65  N         61.5950  -24.5310   18.9870 N.3   159  MET159     -0.1245
     66  CA        62.0830  -23.2920   19.5980 C.3   159  MET159      0.1570
     67  C         60.9320  -22.3820   20.0170 C.2   159  MET159      0.2261
     68  O         61.1430  -21.3660   20.6900 O.2   159  MET159     -0.2867
     69  CB        62.9960  -22.5200   18.6370 C.3   159  MET159      0.0387
     70  CG        64.2250  -23.2740   18.1530 C.3   159  MET159      0.0595
     71  SD        65.2030  -22.2760   17.0010 S.3   159  MET159     -0.1393
     72  CE        66.1850  -21.2930   18.1360 C.3   159  MET159      0.0692
     73  N         60.7580  -10.1230    9.4360 N.3   187  GLU187     -0.1245
     74  CA        62.0720   -9.5040    9.3410 C.3   187  GLU187      0.1567
     75  C         62.5080   -9.3500    7.8950 C.2   187  GLU187      0.2260
     76  O         62.9940   -8.2920    7.4960 O.2   187  GLU187     -0.2867
     77  CB        63.1070  -10.2670   10.1670 C.3   187  GLU187      0.0388
     78  CG        63.2620   -9.6980   11.5670 C.3   187  GLU187      0.1160
     79  CD        63.6740  -10.7380   12.5920 C.2   187  GLU187      0.3649
     80  OE1       64.0430  -11.8660   12.1970 O.co2 187  GLU187     -0.2457
     81  OE2       63.6210  -10.4210   13.7970 O.co2 187  GLU187     -0.2457
@<TRIPOS>BOND
     1    43    45   ar
     2    43    41   ar
     3    45    44   ar
     4    76    75    2
     5    44    42   ar
     6    41    40    1
     7    41    42   ar
     8    75    74    1
     9    40    37    1
    10    74    73    1
    11    74    77    1
    12    37    36    1
    13    37    38    1
    14    77    78    1
    15    31    30    2
    16    36    34   am
    17    38    39    2
    18    34    35    2
    19    34    33    1
    20    33    32    1
    21    30    32   am
    22    30    29    1
    23    78    79    1
    24    64    62   am
    25    80    79   ar
    26    29    28    1
    27    79    81   ar
    28    46    47    1
    29    57    58    1
    30    62    63    2
    31    62    61    1
    32    61    58    1
    33    53    55   ar
    34    53    51   ar
    35    55    56   ar
    36    58    59    1
    37    47    48    1
    38    47    50    1
    39    48    49    2
    40    50    51    1
    41    51    52   ar
    42    56    54   ar
    43    59    60    2
    44    52    54   ar
    45    71    72    1
    46    71    70    1
    47     7     8    1
    48     7     6    1
    49    70    69    1
    50    25    27   ar
    51    25    23   ar
    52     5     6    1
    53     5     2    1
    54    69    66    1
    55    27    26   ar
    56     4     3    2
    57     1     2    1
    58    65    66    1
    59    23    22   ar
    60     2     3    1
    61    66    67    1
    62    26    24   ar
    63    67    68    2
    64    22    24   ar
    65    22    21    1
    66    17    18    1
    67    17    11   am
    68     9    10    1
    69    18    21    1
    70    18    19    1
    71    15    14    2
    72    10    11    1
    73    10    13    1
    74    11    12    2
    75    19    20    2
    76    14    13    1
    77    14    16   am
