@<TRIPOS>MOLECULE
tmp/3r6wA00.pdb
 138 135 0 0 0
SMALL
GASTEIGER

@<TRIPOS>ATOM
      1  N         52.3110   -6.1280   22.0090 N.3    10  SER10      -0.1217
      2  CA        53.4240   -5.4710   21.3210 C.3    10  SER10       0.1889
      3  C         53.6360   -4.0640   21.8680 C.2    10  SER10       0.2288
      4  O         52.6730   -3.3190   22.0420 O.2    10  SER10      -0.2866
      5  CB        53.1820   -5.3770   19.8190 C.3    10  SER10       0.2089
      6  OG        54.2510   -4.6840   19.1930 O.3    10  SER10      -0.2183
      7  N         54.9750   -1.9440   20.1020 N.3    12  ARG12      -0.1245
      8  CA        54.8670   -1.0860   18.9220 C.3    12  ARG12       0.1563
      9  C         53.4280   -0.6590   18.7090 C.2    12  ARG12       0.2260
     10  O         52.5030   -1.3700   19.1150 O.2    12  ARG12      -0.2867
     11  CB        55.4260   -1.7930   17.6850 C.3    12  ARG12       0.0307
     12  CG        56.9200   -2.1180   17.7880 C.3    12  ARG12       0.0489
     13  CD        57.5710   -2.1550   16.3810 C.3    12  ARG12       0.2205
     14  NE        57.0390   -3.2540   15.5770 N.pl3  12  ARG12      -0.0865
     15  CZ        57.4660   -3.5610   14.3590 C.cat  12  ARG12       0.5346
     16  NH1       56.9240   -4.5880   13.7110 N.pl3  12  ARG12       0.1354
     17  NH2       58.4410   -2.8470   13.7920 N.pl3  12  ARG12       0.1354
     18  N         53.0230   -2.1910   14.7840 N.3    16  SER16      -0.1202
     19  CA        52.8510   -3.5550   15.2690 C.3    16  SER16       0.2020
     20  C         51.9720   -4.3260   14.2970 C.2    16  SER16       0.2619
     21  O         50.8280   -3.9390   14.0280 O.2    16  SER16      -0.2717
     22  CB        52.2230   -3.5780   16.6740 C.3    16  SER16       0.2103
     23  OG        51.7820   -4.8940   17.0030 O.3    16  SER16      -0.2182
     24  N         52.5090   -5.4130   13.7580 N.am   17  GLN17      -0.1965
     25  CA        51.6990   -6.2820   12.9260 C.3    17  GLN17       0.1733
     26  C         50.7520   -7.1030   13.7960 C.2    17  GLN17       0.2617
     27  O         49.6050   -7.3350   13.4230 O.2    17  GLN17      -0.2715
     28  CB        52.5660   -7.2050   12.0620 C.3    17  GLN17       0.0408
     29  CG        53.4370   -6.4740   11.0420 C.3    17  GLN17       0.0908
     30  CD        52.6470   -5.8540    9.8840 C.2    17  GLN17       0.2608
     31  OE1       51.4540   -6.1190    9.7040 O.2    17  GLN17      -0.2717
     32  NE2       53.3290   -5.0360    9.0770 N.am   17  GLN17      -0.0878
     33  N         51.2170   -7.5540   14.9540 N.am   18  SER18      -0.1950
     34  CA        50.3530   -8.4080   15.7650 C.3    18  SER18       0.1924
     35  C         49.1210   -7.5920   16.1880 C.2    18  SER18       0.2314
     36  O         47.9850   -8.0520   16.0610 O.2    18  SER18      -0.2863
     37  CB        51.1100   -8.9920   16.9750 C.3    18  SER18       0.2116
     38  OG        51.5170   -7.9760   17.8690 O.3    18  SER18      -0.2180
     39  N         53.8620  -10.2020   19.7060 N.3    96  PRO96      -0.2102
     40  CA        55.0770  -10.5870   18.9750 C.3    96  PRO96       0.1504
     41  C         55.6480  -11.8690   19.5520 C.2    96  PRO96       0.2576
     42  O         55.2880  -12.2580   20.6690 O.2    96  PRO96      -0.2718
     43  CB        56.0750   -9.4540   19.2970 C.3    96  PRO96       0.0282
     44  CG        55.2430   -8.3060   19.8410 C.3    96  PRO96       0.0208
     45  CD        54.0490   -8.9710   20.5020 C.3    96  PRO96       0.0893
     46  N         56.5220  -12.5210   18.7930 N.am   97  MET97      -0.1966
     47  CA        57.4790  -13.4450   19.3730 C.3    97  MET97       0.1736
     48  C         58.7380  -12.6480   19.6770 C.2    97  MET97       0.2616
     49  O         59.3290  -12.0310   18.7850 O.2    97  MET97      -0.2715
     50  CB        57.8140  -14.6010   18.4250 C.3    97  MET97       0.0427
     51  CG        59.0050  -15.4250   18.9350 C.3    97  MET97       0.0599
     52  SD        59.3810  -16.9020   17.9720 S.3    97  MET97      -0.1393
     53  CE        58.1800  -18.0590   18.6400 C.3    97  MET97       0.0692
     54  N         59.1250  -12.6270   20.9450 N.am   98  TYR98      -0.1960
     55  CA        60.3250  -11.9120   21.3750 C.3    98  TYR98       0.1771
     56  C         61.2410  -12.9390   22.0030 C.2    98  TYR98       0.2620
     57  O         60.9150  -13.4900   23.0540 O.2    98  TYR98      -0.2715
     58  CB        60.0020  -10.8780   22.4630 C.3    98  TYR98       0.0574
     59  CG        59.7030   -9.4860   21.9800 C.ar   98  TYR98      -0.0198
     60  CD1       59.5020   -9.2220   20.6310 C.ar   98  TYR98      -0.0009
     61  CD2       59.6040   -8.4310   22.8830 C.ar   98  TYR98      -0.0009
     62  CE1       59.2180   -7.9370   20.1850 C.ar   98  TYR98       0.0417
     63  CE2       59.3300   -7.1360   22.4480 C.ar   98  TYR98       0.0417
     64  CZ        59.1380   -6.9020   21.0990 C.ar   98  TYR98       0.1957
     65  OH        58.8630   -5.6380   20.6560 O.3    98  TYR98      -0.2866
     66  N         62.3780  -13.1920   21.3670 N.am   99  ASN99      -0.1958
     67  CA        63.3360  -14.1590   21.8790 C.3    99  ASN99       0.1819
     68  C         62.7080  -15.5070   22.2320 C.2    99  ASN99       0.2621
     69  O         62.9250  -16.0520   23.3130 O.2    99  ASN99      -0.2715
     70  CB        64.1320  -13.5260   23.0270 C.3    99  ASN99       0.1195
     71  CG        64.9640  -12.3480   22.5380 C.2    99  ASN99       0.2630
     72  OD1       65.6880  -12.4720   21.5360 O.2    99  ASN99      -0.2716
     73  ND2       64.8230  -11.1950   23.1860 N.am   99  ASN99      -0.0877
     74  N         61.9280  -16.0300   21.2830 N.am  100  PHE100     -0.1974
     75  CA        61.3580  -17.3610   21.3760 C.3   100  PHE100      0.1639
     76  C         60.2860  -17.4640   22.4400 C.2   100  PHE100      0.2290
     77  O         59.7870  -18.5550   22.7300 O.2   100  PHE100     -0.2864
     78  CB        62.4640  -18.3890   21.5740 C.3   100  PHE100      0.0560
     79  CG        63.5680  -18.2400   20.5710 C.ar  100  PHE100     -0.0200
     80  CD1       63.3960  -18.6850   19.2700 C.ar  100  PHE100     -0.0042
     81  CD2       64.7560  -17.5980   20.9080 C.ar  100  PHE100     -0.0042
     82  CE1       64.3940  -18.5230   18.3290 C.ar  100  PHE100     -0.0003
     83  CE2       65.7620  -17.4360   19.9680 C.ar  100  PHE100     -0.0003
     84  CZ        65.5770  -17.8970   18.6790 C.ar  100  PHE100     -0.0000
     85  N         52.8600  -12.4220   15.5120 N.3   144  SER144     -0.1202
     86  CA        53.7140  -12.0730   14.3800 C.3   144  SER144      0.2020
     87  C         55.1440  -12.4160   14.7600 C.2   144  SER144      0.2619
     88  O         55.5530  -12.1700   15.8870 O.2   144  SER144     -0.2717
     89  CB        53.6010  -10.5840   14.0560 C.3   144  SER144      0.2103
     90  OG        54.4050  -10.2500   12.9350 O.3   144  SER144     -0.2182
     91  N         55.8840  -13.0060   13.8220 N.am  145  ARG145     -0.1965
     92  CA        57.2390  -13.4630   14.0750 C.3   145  ARG145      0.1729
     93  C         58.1570  -12.9470   12.9740 C.2   145  ARG145      0.2617
     94  O         57.7540  -12.8630   11.8120 O.2   145  ARG145     -0.2715
     95  CB        57.2860  -14.9950   14.0960 C.3   145  ARG145      0.0348
     96  CG        56.1600  -15.6450   14.9110 C.3   145  ARG145      0.0492
     97  CD        56.3350  -17.1640   15.0260 C.3   145  ARG145      0.2205
     98  NE        55.2030  -17.7790   15.7280 N.pl3 145  ARG145     -0.0865
     99  CZ        54.3840  -18.6750   15.1810 C.cat 145  ARG145      0.5346
    100  NH1       54.5870  -19.0880   13.9360 N.pl3 145  ARG145      0.1354
    101  NH2       53.3730  -19.1760   15.8820 N.pl3 145  ARG145      0.1354
    102  N         59.3910  -12.6130   13.3350 N.am  146  GLY146     -0.1940
    103  CA        60.3410  -12.0810   12.3720 C.3   146  GLY146      0.2014
    104  C         60.7760  -13.1480   11.3810 C.2   146  GLY146      0.2639
    105  O         60.8370  -12.8910   10.1820 O.2   146  GLY146     -0.2714
    106  N         61.0630  -14.3420   11.8890 N.am  147  GLY147     -0.1954
    107  CA        61.5090  -15.4560   11.0660 C.3   147  GLY147      0.1869
    108  C         60.4100  -16.3990   10.6160 C.2   147  GLY147      0.2309
    109  O         59.2300  -16.0550   10.6480 O.2   147  GLY147     -0.2863
    110  N         58.1720  -21.4700   12.8290 N.3   150  PHE150     -0.1241
    111  CA        57.8800  -21.6710   14.2480 C.3   150  PHE150      0.1605
    112  C         56.5290  -22.3480   14.5000 C.2   150  PHE150      0.2264
    113  O         56.2160  -22.7070   15.6350 O.2   150  PHE150     -0.2867
    114  CB        57.9890  -20.3560   15.0280 C.3   150  PHE150      0.0534
    115  CG        59.3930  -19.7960   15.0830 C.ar  150  PHE150     -0.0203
    116  CD1       60.2850  -20.2130   16.0620 C.ar  150  PHE150     -0.0042
    117  CD2       59.8180  -18.8460   14.1600 C.ar  150  PHE150     -0.0042
    118  CE1       61.5840  -19.6960   16.1150 C.ar  150  PHE150     -0.0003
    119  CE2       61.1170  -18.3240   14.2100 C.ar  150  PHE150     -0.0003
    120  CZ        61.9930  -18.7530   15.1850 C.ar  150  PHE150     -0.0000
    121  N         58.4340  -11.5840    9.1530 N.3   186  GLU186     -0.1231
    122  CA        58.3290  -10.1360    9.2830 C.3   186  GLU186      0.1699
    123  C         59.6730   -9.4300    9.1190 C.2   186  GLU186      0.2592
    124  O         59.7240   -8.2750    8.6990 O.2   186  GLU186     -0.2718
    125  CB        57.6650   -9.7290   10.6010 C.3   186  GLU186      0.0402
    126  CG        57.2330   -8.2680   10.6420 C.3   186  GLU186      0.1161
    127  CD        58.3160   -7.3370   11.1690 C.2   186  GLU186      0.3649
    128  OE1       58.0890   -6.1060   11.1730 O.co2 186  GLU186     -0.2457
    129  OE2       59.3860   -7.8360   11.5880 O.co2 186  GLU186     -0.2457
    130  N         60.7580  -10.1230    9.4360 N.am  187  GLU187     -0.1979
    131  CA        62.0720   -9.5040    9.3410 C.3   187  GLU187      0.1602
    132  C         62.5080   -9.3500    7.8950 C.2   187  GLU187      0.2287
    133  O         62.9940   -8.2920    7.4960 O.2   187  GLU187     -0.2864
    134  CB        63.1070  -10.2670   10.1670 C.3   187  GLU187      0.0415
    135  CG        63.2620   -9.6980   11.5670 C.3   187  GLU187      0.1163
    136  CD        63.6740  -10.7380   12.5920 C.2   187  GLU187      0.3649
    137  OE1       64.0430  -11.8660   12.1970 O.co2 187  GLU187     -0.2457
    138  OE2       63.6210  -10.4210   13.7970 O.co2 187  GLU187     -0.2457
@<TRIPOS>BOND
     1   133   132    2
     2   132   131    1
     3   124   123    2
     4    32    30   am
     5   123   122    1
     6   123   130   am
     7   121   122    1
     8   122   125    1
     9   131   130    1
    10   131   134    1
    11    31    30    2
    12    30    29    1
    13   134   135    1
    14   105   104    2
    15   125   126    1
    16   108   109    2
    17   108   107    1
    18   126   127    1
    19    29    28    1
    20   107   106    1
    21   127   128   ar
    22   127   129   ar
    23   104   106   am
    24   104   103    1
    25   135   136    1
    26    94    93    2
    27    28    25    1
    28   137   136   ar
    29   103   102    1
    30   136   138   ar
    31   110   111    1
    32    25    24    1
    33    25    26    1
    34    90    89    1
    35    93   102   am
    36    93    92    1
    37    27    26    2
    38    16    15    1
    39    24    20   am
    40    17    15    1
    41    26    33   am
    42    91    92    1
    43    91    87   am
    44   100    99    1
    45    21    20    2
    46    89    86    1
    47    92    95    1
    48    95    96    1
    49   117   119   ar
    50   117   115   ar
    51   119   120   ar
    52   111   112    1
    53   111   114    1
    54    20    19    1
    55    15    14    2
    56    86    87    1
    57    86    85    1
    58   112   113    2
    59    87    88    2
    60    18    19    1
    61    96    97    1
    62    33    34    1
    63    97    98    1
    64   114   115    1
    65   115   116   ar
    66    99    98    2
    67    99   101    1
    68   120   118   ar
    69    19    22    1
    70    14    13    1
    71    34    35    1
    72    34    37    1
    73    36    35    2
    74   116   118   ar
    75    13    12    1
    76    22    23    1
    77    37    38    1
    78    11    12    1
    79    11     8    1
    80    52    53    1
    81    52    51    1
    82    82    84   ar
    83    82    80   ar
    84    50    51    1
    85    50    47    1
    86    84    83   ar
    87     9     8    1
    88     9    10    2
    89    49    48    2
    90    46    47    1
    91    46    41   am
    92     8     7    1
    93    40    43    1
    94    40    41    1
    95    40    39    1
    96     6     5    1
    97    80    79   ar
    98    43    44    1
    99    47    48    1
   100    41    42    2
   101    48    54   am
   102    39    45    1
   103     5     2    1
   104    44    45    1
   105    83    81   ar
   106    62    60   ar
   107    62    64   ar
   108    79    81   ar
   109    79    78    1
   110    60    59   ar
   111    65    64    1
   112    54    55    1
   113    64    63   ar
   114    74    75    1
   115    74    68   am
   116     2     3    1
   117     2     1    1
   118    66    67    1
   119    66    56   am
   120    55    56    1
   121    55    58    1
   122    75    78    1
   123    75    76    1
   124    72    71    2
   125     3     4    2
   126    67    68    1
   127    67    70    1
   128    59    58    1
   129    59    61   ar
   130    56    57    2
   131    68    69    2
   132    76    77    2
   133    63    61   ar
   134    71    70    1
   135    71    73   am
