@<TRIPOS>MOLECULE
tmp/3r6xA00.pdb
 175 167 0 0 0
SMALL
GASTEIGER

@<TRIPOS>ATOM
      1  N        -67.9950  -14.6190   29.7570 N.3    10  ILE10      -0.1231
      2  CA       -66.9870  -13.6030   29.4700 C.3    10  ILE10       0.1692
      3  C        -67.0650  -12.4670   30.4800 C.2    10  ILE10       0.2593
      4  O        -66.0470  -11.8940   30.8680 O.2    10  ILE10      -0.2718
      5  CB       -67.1760  -13.0180   28.0540 C.3    10  ILE10       0.0266
      6  CG1      -66.8170  -14.0680   27.0020 C.3    10  ILE10       0.0019
      7  CG2      -66.3250  -11.7720   27.8870 C.3    10  ILE10       0.0020
      8  CD1      -67.0040  -13.5980   25.5760 C.3    10  ILE10       0.0001
      9  N        -68.2810  -12.1400   30.8970 N.am   11  GLY11      -0.1942
     10  CA       -68.4560  -11.0740   31.8600 C.3    11  GLY11       0.2014
     11  C        -69.8860  -10.5880   31.9510 C.2    11  GLY11       0.2639
     12  O        -70.8210  -11.2650   31.5200 O.2    11  GLY11      -0.2714
     13  N        -70.0460   -9.3980   32.5160 N.am   12  GLU12      -0.1963
     14  CA       -71.3570   -8.7930   32.6810 C.3    12  GLU12       0.1733
     15  C        -71.3890   -7.4320   31.9910 C.2    12  GLU12       0.2616
     16  O        -71.0430   -6.4110   32.5900 O.2    12  GLU12      -0.2715
     17  CB       -71.6620   -8.6430   34.1700 C.3    12  GLU12       0.0429
     18  CG       -71.5400   -9.9470   34.9460 C.3    12  GLU12       0.1163
     19  CD       -71.7840   -9.7730   36.4350 C.2    12  GLU12       0.3649
     20  OE1      -71.0430   -8.9910   37.0760 O.co2  12  GLU12      -0.2457
     21  OE2      -72.7160  -10.4180   36.9650 O.co2  12  GLU12      -0.2457
     22  N        -71.8030   -7.4300   30.7260 N.am   13  GLY13      -0.1955
     23  CA       -71.8710   -6.1970   29.9590 C.3    13  GLY13       0.1869
     24  C        -72.7990   -5.1560   30.5580 C.2    13  GLY13       0.2309
     25  O        -73.3840   -5.3630   31.6220 O.2    13  GLY13      -0.2863
     26  N        -72.6230  -11.8900   29.1780 N.3    18  VAL18      -0.1245
     27  CA       -72.0160  -12.2610   27.9060 C.3    18  VAL18       0.1561
     28  C        -71.2740  -13.5730   28.0590 C.2    18  VAL18       0.2260
     29  O        -70.5310  -13.7640   29.0200 O.2    18  VAL18      -0.2867
     30  CB       -71.0160  -11.1950   27.4250 C.3    18  VAL18       0.0252
     31  CG1      -70.5180  -11.5460   26.0250 C.3    18  VAL18       0.0019
     32  CG2      -71.6830   -9.8290   27.4150 C.3    18  VAL18       0.0019
     33  N        -68.9910  -16.8080   25.9670 N.3    20  LYS20      -0.1245
     34  CA       -68.2150  -17.2020   24.8030 C.3    20  LYS20       0.1561
     35  C        -68.9780  -18.4720   24.4860 C.2    20  LYS20       0.2260
     36  O        -69.2340  -19.2820   25.3840 O.2    20  LYS20      -0.2867
     37  CB       -66.7880  -17.5380   25.1960 C.3    20  LYS20       0.0271
     38  CG       -65.9180  -18.0440   24.0460 C.3    20  LYS20       0.0035
     39  CD       -64.5130  -18.3640   24.5620 C.3    20  LYS20       0.0206
     40  CE       -63.5760  -18.7600   23.4260 C.3    20  LYS20       0.1093
     41  NZ       -62.2140  -19.0020   23.9600 N.3    20  LYS20      -0.1314
     42  N        -69.3220  -14.4350   20.5610 N.3    31  ALA31      -0.1245
     43  CA       -69.6390  -13.8170   21.8470 C.3    31  ALA31       0.1562
     44  C        -71.1640  -13.7000   21.8060 C.2    31  ALA31       0.2260
     45  O        -71.7390  -13.1860   20.8400 O.2    31  ALA31      -0.2867
     46  CB       -68.9960  -12.4300   21.9750 C.3    31  ALA31       0.0290
     47  N        -74.4050  -12.2090   23.7500 N.3    33  LYS33      -0.1245
     48  CA       -74.8600  -11.2900   24.7800 C.3    33  LYS33       0.1561
     49  C        -76.3740  -11.4080   24.9620 C.2    33  LYS33       0.2260
     50  O        -77.1340  -11.2160   24.0150 O.2    33  LYS33      -0.2867
     51  CB       -74.4750   -9.8590   24.3940 C.3    33  LYS33       0.0271
     52  CG       -74.6470   -8.8350   25.5100 C.3    33  LYS33       0.0035
     53  CD       -74.1560   -7.4700   25.0630 C.3    33  LYS33       0.0206
     54  CE       -74.4640   -6.3770   26.0930 C.3    33  LYS33       0.1093
     55  NZ       -73.7020   -6.4990   27.3800 N.3    33  LYS33      -0.1314
     56  N        -66.4230   -4.6420   15.4780 N.3    60  VAL60      -0.1245
     57  CA       -66.7930   -6.0050   15.8450 C.3    60  VAL60       0.1561
     58  C        -68.0810   -6.3800   15.1010 C.2    60  VAL60       0.2260
     59  O        -69.1250   -5.7690   15.2950 O.2    60  VAL60      -0.2867
     60  CB       -67.0140   -6.1160   17.3760 C.3    60  VAL60       0.0252
     61  CG1      -67.4810   -7.5210   17.7460 C.3    60  VAL60       0.0019
     62  CG2      -65.6990   -5.8260   18.0940 C.3    60  VAL60       0.0019
     63  N        -72.0230  -11.7960   18.3700 N.3    76  PHE76      -0.1227
     64  CA       -70.9190  -11.0210   17.8180 C.3    76  PHE76       0.1736
     65  C        -69.7170  -11.8840   17.4790 C.2    76  PHE76       0.2595
     66  O        -69.5260  -12.9590   18.0500 O.2    76  PHE76      -0.2718
     67  CB       -70.4480   -9.9860   18.8510 C.3    76  PHE76       0.0547
     68  CG       -71.4300   -8.8870   19.1080 C.ar   76  PHE76      -0.0202
     69  CD1      -71.5710   -7.8410   18.2080 C.ar   76  PHE76      -0.0042
     70  CD2      -72.1830   -8.8750   20.2800 C.ar   76  PHE76      -0.0042
     71  CE1      -72.4510   -6.7830   18.4720 C.ar   76  PHE76      -0.0003
     72  CE2      -73.0620   -7.8210   20.5500 C.ar   76  PHE76      -0.0003
     73  CZ       -73.1920   -6.7780   19.6410 C.ar   76  PHE76      -0.0000
     74  N        -68.8770  -11.3910   16.5770 N.am   77  GLU77      -0.1965
     75  CA       -67.6540  -12.1180   16.2530 C.3    77  GLU77       0.1733
     76  C        -66.8590  -12.0720   17.5620 C.2    77  GLU77       0.2616
     77  O        -66.9930  -11.1340   18.3500 O.2    77  GLU77      -0.2715
     78  CB       -66.8680  -11.4280   15.1290 C.3    77  GLU77       0.0429
     79  CG       -66.0600  -10.2330   15.5560 C.3    77  GLU77       0.1163
     80  CD       -65.1890   -9.6550   14.4440 C.2    77  GLU77       0.3649
     81  OE1      -64.0660  -10.1540   14.2170 O.co2  77  GLU77      -0.2457
     82  OE2      -65.6280   -8.6910   13.7970 O.co2  77  GLU77      -0.2457
     83  N        -66.0460  -13.0890   17.8050 N.am   78  PHE78      -0.1960
     84  CA       -65.2800  -13.1630   19.0440 C.3    78  PHE78       0.1771
     85  C        -63.8220  -12.7180   18.9210 C.2    78  PHE78       0.2619
     86  O        -63.1500  -13.0580   17.9470 O.2    78  PHE78      -0.2715
     87  CB       -65.3160  -14.6140   19.5600 C.3    78  PHE78       0.0574
     88  CG       -64.4880  -14.8590   20.7860 C.ar   78  PHE78      -0.0200
     89  CD1      -63.1930  -15.3590   20.6840 C.ar   78  PHE78      -0.0042
     90  CD2      -65.0100  -14.6030   22.0540 C.ar   78  PHE78      -0.0042
     91  CE1      -62.4330  -15.6030   21.8150 C.ar   78  PHE78      -0.0003
     92  CE2      -64.2620  -14.8400   23.1940 C.ar   78  PHE78      -0.0003
     93  CZ       -62.9680  -15.3420   23.0870 C.ar   78  PHE78      -0.0000
     94  N        -63.3560  -11.9390   19.8980 N.am   79  LEU79      -0.1963
     95  CA       -61.9470  -11.5230   19.9640 C.3    79  LEU79       0.1728
     96  C        -61.5230  -11.8960   21.3680 C.2    79  LEU79       0.2616
     97  O        -62.3100  -11.7730   22.3060 O.2    79  LEU79      -0.2715
     98  CB       -61.7450  -10.0230   19.7160 C.3    79  LEU79       0.0311
     99  CG       -61.6990   -9.7010   18.2180 C.3    79  LEU79       0.0022
    100  CD1      -63.1220   -9.4410   17.7270 C.3    79  LEU79       0.0001
    101  CD2      -60.8400   -8.4850   17.9470 C.3    79  LEU79       0.0001
    102  N        -60.2770  -12.3390   21.5050 N.am   80  HIS80      -0.1959
    103  CA       -59.7500  -12.8320   22.7630 C.3    80  HIS80       0.1787
    104  C        -59.4400  -11.9110   23.9230 C.2    80  HIS80       0.2620
    105  O        -59.3460  -12.3770   25.0700 O.2    80  HIS80      -0.2715
    106  CB       -58.5040  -13.6680   22.4740 C.3    80  HIS80       0.0785
    107  CG       -58.8020  -14.9990   21.8490 C.ar   80  HIS80       0.0821
    108  ND1      -58.9810  -15.1630   20.4920 N.ar   80  HIS80      -0.2267
    109  CD2      -58.9950  -16.2190   22.4070 C.ar   80  HIS80       0.1154
    110  CE1      -59.2760  -16.4280   20.2400 C.ar   80  HIS80       0.1986
    111  NE2      -59.2890  -17.0890   21.3840 N.ar   80  HIS80      -0.2212
    112  N        -59.2600  -10.6240   23.6580 N.am   81  GLN81      -0.1963
    113  CA       -58.9180   -9.7230   24.7590 C.3    81  GLN81       0.1733
    114  C        -59.4310   -8.3160   24.5260 C.2    81  GLN81       0.2616
    115  O        -59.6460   -7.9140   23.3840 O.2    81  GLN81      -0.2715
    116  CB       -57.3930   -9.6990   24.9290 C.3    81  GLN81       0.0408
    117  CG       -56.8830   -8.9890   26.1990 C.3    81  GLN81       0.0908
    118  CD       -55.4610   -9.4020   26.5530 C.2    81  GLN81       0.2608
    119  OE1      -55.1870  -10.5820   26.8120 O.2    81  GLN81      -0.2717
    120  NE2      -54.5490   -8.4400   26.5640 N.am   81  GLN81      -0.0878
    121  N        -59.6330   -7.5740   25.6110 N.am   82  ASP82      -0.1971
    122  CA       -60.0900   -6.1920   25.4930 C.3    82  ASP82       0.1709
    123  C        -58.9230   -5.2830   25.8720 C.2    82  ASP82       0.2293
    124  O        -57.9630   -5.7250   26.5080 O.2    82  ASP82      -0.2864
    125  CB       -61.3280   -5.9250   26.3730 C.3    82  ASP82       0.1436
    126  CG       -61.0720   -6.1610   27.8620 C.2    82  ASP82       0.3671
    127  OD1      -60.4120   -5.3240   28.5140 O.co2  82  ASP82      -0.2456
    128  OD2      -61.5360   -7.1970   28.3750 O.co2  82  ASP82      -0.2456
    129  N        -57.9250   -4.8840   29.7150 N.3    85  LYS85      -0.1245
    130  CA       -57.0600   -5.9400   30.2220 C.3    85  LYS85       0.1561
    131  C        -55.6480   -5.7890   29.6630 C.2    85  LYS85       0.2260
    132  O        -54.6750   -5.9820   30.3830 O.2    85  LYS85      -0.2867
    133  CB       -57.5960   -7.3310   29.8680 C.3    85  LYS85       0.0271
    134  CG       -56.5950   -8.4260   30.2140 C.3    85  LYS85       0.0035
    135  CD       -57.2580   -9.7890   30.4150 C.3    85  LYS85       0.0206
    136  CE       -56.2250  -10.8130   30.8760 C.3    85  LYS85       0.1093
    137  NZ       -56.8630  -12.0870   31.3070 N.3    85  LYS85      -0.1314
    138  N        -62.7790   -1.2130   27.7340 N.3   127  GLN127     -0.1231
    139  CA       -63.3790   -2.5380   27.7560 C.3   127  GLN127      0.1698
    140  C        -64.1810   -2.8560   26.4970 C.2   127  GLN127      0.2592
    141  O        -64.4370   -4.0260   26.2220 O.2   127  GLN127     -0.2718
    142  CB       -64.2550   -2.7080   29.0050 C.3   127  GLN127      0.0381
    143  CG       -65.5720   -1.9760   28.9690 C.3   127  GLN127      0.0905
    144  CD       -66.2410   -1.9700   30.3220 C.2   127  GLN127      0.2608
    145  OE1      -65.7440   -1.3550   31.2640 O.2   127  GLN127     -0.2717
    146  NE2      -67.3650   -2.6660   30.4330 N.am  127  GLN127     -0.0878
    147  N        -64.5750   -1.8200   25.7460 N.am  128  ASN128     -0.1974
    148  CA       -65.3340   -1.9930   24.5050 C.3   128  ASN128      0.1688
    149  C        -64.4280   -2.0420   23.2760 C.2   128  ASN128      0.2292
    150  O        -64.9220   -2.0940   22.1500 O.2   128  ASN128     -0.2864
    151  CB       -66.3330   -0.8430   24.3030 C.3   128  ASN128      0.1181
    152  CG       -67.5110   -0.9360   25.2300 C.2   128  ASN128      0.2629
    153  OD1      -67.7730   -1.9960   25.8250 O.2   128  ASN128     -0.2716
    154  ND2      -68.2370    0.1570   25.3640 N.am  128  ASN128     -0.0877
    155  N        -61.7370   -4.2340   21.4020 N.3   130  LEU130     -0.1245
    156  CA       -61.1920   -5.5910   21.3940 C.3   130  LEU130      0.1561
    157  C        -59.9910   -5.7740   20.4710 C.2   130  LEU130      0.2260
    158  O        -59.9420   -5.1990   19.3910 O.2   130  LEU130     -0.2867
    159  CB       -62.3140   -6.5670   21.0310 C.3   130  LEU130      0.0270
    160  CG       -63.6260   -6.2990   21.8070 C.3   130  LEU130      0.0019
    161  CD1      -64.6990   -7.3320   21.4030 C.3   130  LEU130      0.0001
    162  CD2      -63.3520   -6.3690   23.3370 C.3   130  LEU130      0.0001
    163  N        -66.4570   -2.3000   19.7470 N.3   140  ALA140     -0.1231
    164  CA       -67.5940   -3.1670   20.0430 C.3   140  ALA140      0.1694
    165  C        -68.7390   -2.3490   20.6160 C.2   140  ALA140      0.2592
    166  O        -68.5150   -1.3740   21.3340 O.2   140  ALA140     -0.2718
    167  CB       -67.1860   -4.2580   21.0310 C.3   140  ALA140      0.0304
    168  N        -69.9580   -2.7610   20.2740 N.am  141  ASP141     -0.1974
    169  CA       -71.1900   -2.1220   20.7250 C.3   141  ASP141      0.1709
    170  C        -71.5880   -0.8140   20.0400 C.2   141  ASP141      0.2293
    171  O        -72.3180   -0.0130   20.6130 O.2   141  ASP141     -0.2864
    172  CB       -71.1520   -1.9430   22.2480 C.3   141  ASP141      0.1436
    173  CG       -71.1040   -3.2770   22.9850 C.2   141  ASP141      0.3671
    174  OD1      -70.8440   -3.2920   24.2020 O.co2 141  ASP141     -0.2456
    175  OD2      -71.3300   -4.3210   22.3460 O.co2 141  ASP141     -0.2456
@<TRIPOS>BOND
     1    82    80   ar
     2    81    80   ar
     3    80    79    1
     4    58    59    2
     5    58    57    1
     6    78    79    1
     7    78    75    1
     8    56    57    1
     9    57    60    1
    10    75    74    1
    11    75    76    1
    12    74    65   am
    13    60    61    1
    14    60    62    1
    15    65    64    1
    16    65    66    2
    17    76    83   am
    18    76    77    2
    19   100    99    1
    20    83    84    1
    21    64    63    1
    22    64    67    1
    23   101    99    1
    24    86    85    2
    25    69    71   ar
    26    69    68   ar
    27    99    98    1
    28    71    73   ar
    29    67    68    1
    30    85    84    1
    31    85    94   am
    32    84    87    1
    33    68    70   ar
    34   158   157    2
    35    87    88    1
    36    73    72   ar
    37    98    95    1
    38   163   164    1
    39    94    95    1
    40    95    96    1
    41   170   171    2
    42   170   169    1
    43   164   165    1
    44   164   167    1
    45   110   108   ar
    46   110   111   ar
    47   168   165   am
    48   168   169    1
    49    70    72   ar
    50   157   156    1
    51   108   107   ar
    52    42    43    1
    53   165   166    2
    54    89    88   ar
    55    89    91   ar
    56   169   172    1
    57    88    90   ar
    58    45    44    2
    59   159   156    1
    60   159   160    1
    61    96   102   am
    62    96    97    2
    63   111   109   ar
    64   156   155    1
    65   161   160    1
    66   102   103    1
    67    44    43    1
    68   160   162    1
    69    91    93   ar
    70    43    46    1
    71   107   109   ar
    72   107   106    1
    73    90    92   ar
    74   150   149    2
    75   172   173    1
    76   175   173   ar
    77   106   103    1
    78   103   104    1
    79   173   174   ar
    80    93    92   ar
    81   149   148    1
    82   115   114    2
    83    40    41    1
    84    40    39    1
    85   112   104   am
    86   112   113    1
    87    47    48    1
    88   104   105    2
    89    50    49    2
    90    38    39    1
    91    38    37    1
    92   151   148    1
    93   151   152    1
    94    51    48    1
    95    51    52    1
    96    35    34    1
    97    35    36    2
    98   148   147    1
    99   114   113    1
   100   114   121   am
   101   113   116    1
   102    48    49    1
   103    34    37    1
   104    34    33    1
   105   116   117    1
   106    53    52    1
   107    53    54    1
   108   152   154   am
   109   152   153    2
   110   122   121    1
   111   122   123    1
   112   122   125    1
   113     8     6    1
   114   147   140   am
   115   123   124    2
   116    31    30    1
   117    54    55    1
   118   117   118    1
   119   141   140    2
   120   125   126    1
   121   140   139    1
   122   118   120   am
   123   118   119    2
   124     6     5    1
   125    32    30    1
   126    30    27    1
   127   138   139    1
   128   139   142    1
   129   126   128   ar
   130   126   127   ar
   131     7     5    1
   132    27    28    1
   133    27    26    1
   134     5     2    1
   135    28    29    2
   136   143   142    1
   137   143   144    1
   138     2     1    1
   139     2     3    1
   140   131   130    1
   141   131   132    2
   142   129   130    1
   143   133   134    1
   144   133   130    1
   145    23    24    1
   146    23    22    1
   147   134   135    1
   148   144   146   am
   149   144   145    2
   150   135   136    1
   151     3     4    2
   152     3     9   am
   153    24    25    2
   154    22    15   am
   155   136   137    1
   156     9    10    1
   157    12    11    2
   158    10    11    1
   159    11    13   am
   160    15    16    2
   161    15    14    1
   162    13    14    1
   163    14    17    1
   164    17    18    1
   165    18    19    1
   166    19    21   ar
   167    19    20   ar
