@<TRIPOS>MOLECULE
tmp/3r71A00.pdb
 176 167 0 0 0
SMALL
GASTEIGER

@<TRIPOS>ATOM
      1  N         67.2990   56.4660   -7.7770 N.3     8  GLU8       -0.1245
      2  CA        66.9290   55.7850   -6.5420 C.3     8  GLU8        0.1567
      3  C         67.6480   54.4480   -6.4260 C.2     8  GLU8        0.2260
      4  O         68.0220   53.8310   -7.4280 O.2     8  GLU8       -0.2867
      5  CB        65.4180   55.5600   -6.4590 C.3     8  GLU8        0.0388
      6  CG        64.9100   54.3670   -7.2340 C.3     8  GLU8        0.1160
      7  CD        63.6850   53.7490   -6.5900 C.2     8  GLU8        0.3649
      8  OE1       63.7950   53.3070   -5.4260 O.co2   8  GLU8       -0.2457
      9  OE2       62.6180   53.7030   -7.2390 O.co2   8  GLU8       -0.2457
     10  N         67.8090   50.7030   -6.0440 N.3    10  ILE10      -0.1231
     11  CA        66.9490   49.5460   -6.2490 C.3    10  ILE10       0.1692
     12  C         67.2110   48.5230   -5.1380 C.2    10  ILE10       0.2593
     13  O         66.2900   47.8580   -4.6560 O.2    10  ILE10      -0.2718
     14  CB        67.1830   48.9160   -7.6520 C.3    10  ILE10       0.0266
     15  CG1       66.6940   49.8860   -8.7360 C.3    10  ILE10       0.0019
     16  CG2       66.4620   47.5870   -7.7530 C.3    10  ILE10       0.0020
     17  CD1       66.8410   49.3920  -10.1610 C.3    10  ILE10       0.0001
     18  N         68.4650   48.4060   -4.7160 N.am   11  GLY11      -0.1942
     19  CA        68.7800   47.4790   -3.6420 C.3    11  GLY11       0.2014
     20  C         70.1650   46.8880   -3.7450 C.2    11  GLY11       0.2639
     21  O         70.9640   47.3290   -4.5600 O.2    11  GLY11      -0.2714
     22  N         70.4520   45.8910   -2.9100 N.am   12  GLU12      -0.1963
     23  CA        71.7520   45.2360   -2.9370 C.3    12  GLU12       0.1733
     24  C         71.5810   43.9220   -3.6850 C.2    12  GLU12       0.2616
     25  O         70.8930   43.0170   -3.2110 O.2    12  GLU12      -0.2715
     26  CB        72.2630   44.9630   -1.5150 C.3    12  GLU12       0.0429
     27  CG        72.6420   46.2020   -0.7040 C.3    12  GLU12       0.1163
     28  CD        71.4850   46.7990    0.0700 C.2    12  GLU12       0.3649
     29  OE1       70.9830   46.1130    0.9920 O.co2  12  GLU12      -0.2457
     30  OE2       71.0830   47.9490   -0.2340 O.co2  12  GLU12      -0.2457
     31  N         72.2000   43.8330   -4.8600 N.am   13  GLY13      -0.1955
     32  CA        72.1040   42.6350   -5.6760 C.3    13  GLY13       0.1869
     33  C         73.0870   41.5670   -5.2510 C.2    13  GLY13       0.2309
     34  O         73.8040   41.7400   -4.2700 O.2    13  GLY13      -0.2863
     35  N         72.6390   48.2400   -6.7500 N.3    18  VAL18      -0.1245
     36  CA        71.9860   48.5440   -8.0170 C.3    18  VAL18       0.1561
     37  C         71.2060   49.8380   -7.8640 C.2    18  VAL18       0.2260
     38  O         70.4840   50.0160   -6.8980 O.2    18  VAL18      -0.2867
     39  CB        70.9670   47.4560   -8.4250 C.3    18  VAL18       0.0252
     40  CG1       70.4760   47.7240   -9.8640 C.3    18  VAL18       0.0019
     41  CG2       71.6130   46.0880   -8.3260 C.3    18  VAL18       0.0019
     42  N         68.7510   52.9330   -9.9490 N.3    20  LYS20      -0.1245
     43  CA        67.9880   53.3270  -11.1140 C.3    20  LYS20       0.1561
     44  C         68.7580   54.6230  -11.4170 C.2    20  LYS20       0.2260
     45  O         69.0040   55.4220  -10.5060 O.2    20  LYS20      -0.2867
     46  CB        66.5490   53.6690  -10.7300 C.3    20  LYS20       0.0271
     47  CG        65.7200   54.1900  -11.9070 C.3    20  LYS20       0.0035
     48  CD        64.3320   54.5260  -11.4400 C.3    20  LYS20       0.0206
     49  CE        63.4480   55.0210  -12.5790 C.3    20  LYS20       0.1093
     50  NZ        62.0630   55.1730  -12.0980 N.3    20  LYS20      -0.1314
     51  N         69.3300   50.7460  -15.3880 N.3    31  ALA31      -0.1245
     52  CA        69.6560   50.0980  -14.1190 C.3    31  ALA31       0.1562
     53  C         71.1820   50.0400  -14.1500 C.2    31  ALA31       0.2260
     54  O         71.7800   49.5210  -15.0980 O.2    31  ALA31      -0.2867
     55  CB        69.0840   48.6800  -14.0600 C.3    31  ALA31       0.0290
     56  N         74.5230   48.7010  -12.2540 N.3    33  LYS33      -0.1245
     57  CA        74.9940   47.7880  -11.2250 C.3    33  LYS33       0.1561
     58  C         76.4840   47.9160  -11.0250 C.2    33  LYS33       0.2260
     59  O         77.2450   47.8090  -11.9830 O.2    33  LYS33      -0.2867
     60  CB        74.6960   46.3430  -11.6130 C.3    33  LYS33       0.0271
     61  CG        73.2900   46.0920  -12.0350 C.3    33  LYS33       0.0035
     62  CD        73.1040   44.5970  -12.2660 C.3    33  LYS33       0.0206
     63  CE        71.7250   44.2860  -12.7910 C.3    33  LYS33       0.1093
     64  NZ        71.3790   42.8670  -12.4970 N.3    33  LYS33      -0.1314
     65  N         66.6270   41.0150  -20.4760 N.3    60  VAL60      -0.1245
     66  CA        66.9470   42.3880  -20.0940 C.3    60  VAL60       0.1561
     67  C         68.2360   42.7570  -20.8180 C.2    60  VAL60       0.2260
     68  O         69.2790   42.1260  -20.6440 O.2    60  VAL60      -0.2867
     69  CB        67.1240   42.5180  -18.5460 C.3    60  VAL60       0.0252
     70  CG1       67.5050   43.9650  -18.1670 C.3    60  VAL60       0.0019
     71  CG2       65.8220   42.1460  -17.8560 C.3    60  VAL60       0.0019
     72  N         72.1250   48.2110  -17.5420 N.3    76  PHE76      -0.1227
     73  CA        71.0250   47.4180  -18.0620 C.3    76  PHE76       0.1736
     74  C         69.7750   48.2270  -18.3420 C.2    76  PHE76       0.2595
     75  O         69.5350   49.2820  -17.7690 O.2    76  PHE76      -0.2718
     76  CB        70.6190   46.3260  -17.0500 C.3    76  PHE76       0.0547
     77  CG        71.5760   45.1720  -16.9600 C.ar   76  PHE76      -0.0202
     78  CD1       71.5700   44.1700  -17.9250 C.ar   76  PHE76      -0.0042
     79  CD2       72.4810   45.0810  -15.8990 C.ar   76  PHE76      -0.0042
     80  CE1       72.4460   43.0810  -17.8500 C.ar   76  PHE76      -0.0003
     81  CE2       73.3670   43.9940  -15.8130 C.ar   76  PHE76      -0.0003
     82  CZ        73.3490   42.9940  -16.7900 C.ar   76  PHE76      -0.0000
     83  N         68.9730   47.6820  -19.2390 N.am   77  GLU77      -0.1965
     84  CA        67.6770   48.2280  -19.5860 C.3    77  GLU77       0.1733
     85  C         66.9250   48.2590  -18.2460 C.2    77  GLU77       0.2616
     86  O         67.1390   47.3890  -17.3870 O.2    77  GLU77      -0.2715
     87  CB        67.0130   47.2490  -20.5690 C.3    77  GLU77       0.0429
     88  CG        65.5120   47.2190  -20.5520 C.3    77  GLU77       0.1163
     89  CD        64.9200   46.1580  -21.4750 C.2    77  GLU77       0.3649
     90  OE1       63.7120   46.2650  -21.7590 O.co2  77  GLU77      -0.2457
     91  OE2       65.6290   45.2220  -21.9250 O.co2  77  GLU77      -0.2457
     92  N         66.0720   49.2600  -18.0470 N.am   78  PHE78      -0.1960
     93  CA        65.3020   49.3740  -16.8030 C.3    78  PHE78       0.1771
     94  C         63.8440   48.9540  -16.9600 C.2    78  PHE78       0.2619
     95  O         63.1950   49.3240  -17.9310 O.2    78  PHE78      -0.2715
     96  CB        65.3190   50.8290  -16.3000 C.3    78  PHE78       0.0574
     97  CG        64.4400   51.0810  -15.0910 C.ar   78  PHE78      -0.0200
     98  CD1       63.1320   51.5440  -15.2490 C.ar   78  PHE78      -0.0042
     99  CD2       64.9130   50.8340  -13.8040 C.ar   78  PHE78      -0.0042
    100  CE1       62.3080   51.7590  -14.1580 C.ar   78  PHE78      -0.0003
    101  CE2       64.1070   51.0390  -12.6920 C.ar   78  PHE78      -0.0003
    102  CZ        62.7820   51.5090  -12.8710 C.ar   78  PHE78      -0.0000
    103  N         63.3420   48.1660  -16.0130 N.am   79  LEU79      -0.1963
    104  CA        61.9240   47.7710  -15.9960 C.3    79  LEU79       0.1728
    105  C         61.4400   48.1800  -14.6150 C.2    79  LEU79       0.2616
    106  O         62.2170   48.1560  -13.6690 O.2    79  LEU79      -0.2715
    107  CB        61.7330   46.2590  -16.2260 C.3    79  LEU79       0.0311
    108  CG        61.7670   45.9180  -17.7310 C.3    79  LEU79       0.0022
    109  CD1       63.1840   45.5020  -18.1250 C.3    79  LEU79       0.0001
    110  CD2       60.7820   44.8040  -18.0500 C.3    79  LEU79       0.0001
    111  N         60.1680   48.5430  -14.4810 N.am   80  HIS80      -0.1959
    112  CA        59.6680   49.0560  -13.2040 C.3    80  HIS80       0.1787
    113  C         59.3460   48.1100  -12.0640 C.2    80  HIS80       0.2620
    114  O         59.1500   48.5590  -10.9310 O.2    80  HIS80      -0.2715
    115  CB        58.4230   49.9340  -13.4340 C.3    80  HIS80       0.0785
    116  CG        58.7120   51.2240  -14.1420 C.ar   80  HIS80       0.0821
    117  ND1       58.8710   51.3110  -15.5110 N.ar   80  HIS80      -0.2267
    118  CD2       58.9070   52.4760  -13.6600 C.ar   80  HIS80       0.1154
    119  CE1       59.1520   52.5610  -15.8400 C.ar   80  HIS80       0.1986
    120  NE2       59.1800   53.2870  -14.7380 N.ar   80  HIS80      -0.2212
    121  N         59.2770   46.8120  -12.3290 N.am   81  GLN81      -0.1963
    122  CA        58.8940   45.9280  -11.2390 C.3    81  GLN81       0.1733
    123  C         59.4670   44.5450  -11.4550 C.2    81  GLN81       0.2616
    124  O         59.7250   44.1710  -12.5810 O.2    81  GLN81      -0.2715
    125  CB        57.3690   45.8710  -11.1210 C.3    81  GLN81       0.0408
    126  CG        56.8800   45.1890   -9.8500 C.3    81  GLN81       0.0908
    127  CD        55.4610   45.5820   -9.4980 C.2    81  GLN81       0.2608
    128  OE1       55.1820   46.7570   -9.2350 O.2    81  GLN81      -0.2717
    129  NE2       54.5590   44.6120   -9.4920 N.am   81  GLN81      -0.0878
    130  N         59.6980   43.8040  -10.3750 N.am   82  ASP82      -0.1971
    131  CA        60.1850   42.4360  -10.5130 C.3    82  ASP82       0.1709
    132  C         59.0510   41.4910  -10.0980 C.2    82  ASP82       0.2293
    133  O         58.1340   41.8850   -9.3700 O.2    82  ASP82      -0.2864
    134  CB        61.4260   42.2010   -9.6530 C.3    82  ASP82       0.1436
    135  CG        61.1660   42.4170   -8.1730 C.2    82  ASP82       0.3671
    136  OD1       60.6860   41.4840   -7.5070 O.co2  82  ASP82      -0.2456
    137  OD2       61.4360   43.5310   -7.6890 O.co2  82  ASP82      -0.2456
    138  N         58.0740   41.0060   -6.2140 N.3    85  LYS85      -0.1245
    139  CA        57.1780   42.0300   -5.6850 C.3    85  LYS85       0.1561
    140  C         55.7580   41.8800   -6.2390 C.2    85  LYS85       0.2260
    141  O         54.7670   42.0450   -5.5120 O.2    85  LYS85      -0.2867
    142  CB        57.7260   43.4320   -6.0000 C.3    85  LYS85       0.0271
    143  CG        56.7750   44.5560   -5.5860 C.3    85  LYS85       0.0035
    144  CD        57.4710   45.9220   -5.5680 C.3    85  LYS85       0.0206
    145  CE        56.5180   47.0060   -5.0890 C.3    85  LYS85       0.1093
    146  NZ        57.2130   48.3160   -4.8630 N.3    85  LYS85      -0.1314
    147  N         63.0130   37.4030   -8.1910 N.3   127  GLN127     -0.1245
    148  CA        63.6350   38.7220   -8.1250 C.3   127  GLN127      0.1566
    149  C         64.3300   39.1330   -9.4100 C.2   127  GLN127      0.2260
    150  O         64.5030   40.3320   -9.6340 O.2   127  GLN127     -0.2867
    151  CB        64.6280   38.8080   -6.9610 C.3   127  GLN127      0.0367
    152  CG        63.9720   38.8970   -5.5970 C.3   127  GLN127      0.0905
    153  CD        64.9260   39.3960   -4.5280 C.2   127  GLN127      0.2608
    154  OE1       65.9880   38.8130   -4.3030 O.2   127  GLN127     -0.2717
    155  NE2       64.5480   40.4800   -3.8630 N.am  127  GLN127     -0.0878
    156  N         61.7650   40.4180  -14.6240 N.3   130  LEU130     -0.1245
    157  CA        61.2560   41.7850  -14.6010 C.3   130  LEU130      0.1561
    158  C         60.0780   42.0140  -15.5400 C.2   130  LEU130      0.2260
    159  O         60.0210   41.4570  -16.6400 O.2   130  LEU130     -0.2867
    160  CB        62.4110   42.7310  -14.9150 C.3   130  LEU130      0.0270
    161  CG        63.7270   42.5130  -14.1460 C.3   130  LEU130      0.0019
    162  CD1       64.7300   43.5970  -14.5560 C.3   130  LEU130      0.0001
    163  CD2       63.4980   42.5430  -12.6410 C.3   130  LEU130      0.0001
    164  N         66.5650   38.6430  -16.2090 N.3   140  ALA140     -0.1231
    165  CA        67.7270   39.4810  -15.9180 C.3   140  ALA140      0.1694
    166  C         68.8970   38.6400  -15.4370 C.2   140  ALA140      0.2592
    167  O         68.7030   37.5840  -14.8170 O.2   140  ALA140     -0.2718
    168  CB        67.3900   40.5320  -14.8300 C.3   140  ALA140      0.0304
    169  N         70.1010   39.1160  -15.7600 N.am  141  ASP141     -0.1974
    170  CA        71.3630   38.5120  -15.3400 C.3   141  ASP141      0.1709
    171  C         71.8200   37.2000  -15.9600 C.2   141  ASP141      0.2293
    172  O         72.6160   36.4780  -15.3480 O.2   141  ASP141     -0.2864
    173  CB        71.3690   38.3960  -13.8180 C.3   141  ASP141      0.1436
    174  CG        71.2530   39.7410  -13.1440 C.2   141  ASP141      0.3671
    175  OD1       70.8880   39.7740  -11.9590 O.co2 141  ASP141     -0.2456
    176  OD2       71.5260   40.7680  -13.8050 O.co2 141  ASP141     -0.2456
@<TRIPOS>BOND
     1    91    89   ar
     2    90    89   ar
     3    89    88    1
     4    67    68    2
     5    67    66    1
     6    87    88    1
     7    87    84    1
     8    65    66    1
     9    66    69    1
    10    84    83    1
    11    84    85    1
    12    83    74   am
    13    69    70    1
    14    69    71    1
    15    74    73    1
    16    74    75    2
    17    85    92   am
    18    85    86    2
    19   109   108    1
    20    73    72    1
    21    73    76    1
    22   110   108    1
    23    92    93    1
    24    95    94    2
    25    78    80   ar
    26    78    77   ar
    27    80    82   ar
    28   108   107    1
    29    76    77    1
    30    77    79   ar
    31    94    93    1
    32    94   103   am
    33    93    96    1
    34    82    81   ar
    35   159   158    2
    36    96    97    1
    37   107   104    1
    38   164   165    1
    39   103   104    1
    40   104   105    1
    41   171   172    2
    42   171   170    1
    43   165   166    1
    44   165   168    1
    45    79    81   ar
    46   119   117   ar
    47   119   120   ar
    48   169   166   am
    49   169   170    1
    50   158   157    1
    51   117   116   ar
    52   166   167    2
    53    51    52    1
    54   170   173    1
    55    98    97   ar
    56    98   100   ar
    57    54    53    2
    58    97    99   ar
    59   160   157    1
    60   160   161    1
    61   120   118   ar
    62   156   157    1
    63   105   111   am
    64   105   106    2
    65   162   161    1
    66   111   112    1
    67   100   102   ar
    68    53    52    1
    69   161   163    1
    70   116   118   ar
    71   116   115    1
    72    52    55    1
    73   173   174    1
    74   176   174   ar
    75    99   101   ar
    76   115   112    1
    77   112   113    1
    78   174   175   ar
    79   102   101   ar
    80    63    64    1
    81    63    62    1
    82   124   123    2
    83    49    50    1
    84    49    48    1
    85   121   113   am
    86   121   122    1
    87    62    61    1
    88    56    57    1
    89   113   114    2
    90    61    60    1
    91    59    58    2
    92    47    48    1
    93    47    46    1
    94    60    57    1
    95   123   122    1
    96   123   130   am
    97    44    43    1
    98    44    45    2
    99   122   125    1
   100    57    58    1
   101   125   126    1
   102    43    46    1
   103    43    42    1
   104   131   130    1
   105   131   132    1
   106   131   134    1
   107    17    15    1
   108   132   133    2
   109    40    39    1
   110   126   127    1
   111   134   135    1
   112   150   149    2
   113   127   129   am
   114   127   128    2
   115   149   148    1
   116    15    14    1
   117    39    41    1
   118    39    36    1
   119   147   148    1
   120   135   137   ar
   121   135   136   ar
   122   148   151    1
   123    36    37    1
   124    36    35    1
   125    37    38    2
   126     1     2    1
   127    16    14    1
   128    14    11    1
   129     4     3    2
   130     9     7   ar
   131     6     7    1
   132     6     5    1
   133   151   152    1
   134     7     8   ar
   135     2     5    1
   136     2     3    1
   137    11    10    1
   138    11    12    1
   139   140   139    1
   140   140   141    2
   141   138   139    1
   142   142   139    1
   143   142   143    1
   144    32    33    1
   145    32    31    1
   146   152   153    1
   147   143   144    1
   148   144   145    1
   149    33    34    2
   150    12    18   am
   151    12    13    2
   152   145   146    1
   153    31    24   am
   154    18    19    1
   155    21    20    2
   156   153   154    2
   157   153   155   am
   158    20    19    1
   159    20    22   am
   160    24    25    2
   161    24    23    1
   162    23    22    1
   163    23    26    1
   164    26    27    1
   165    27    28    1
   166    30    28   ar
   167    28    29   ar
