@<TRIPOS>MOLECULE
tmp/3r72A01.pdb
 110 103 0 0 0
SMALL
GASTEIGER

@<TRIPOS>ATOM
      1  N         45.0320    3.7340   18.4400 N.3     3  MET3       -0.1245
      2  CA        45.3550    4.6230   19.5570 C.3     3  MET3        0.1570
      3  C         46.1790    3.8880   20.6040 C.2     3  MET3        0.2261
      4  O         46.0020    2.6880   20.8200 O.2     3  MET3       -0.2867
      5  CB        44.0680    5.1370   20.2280 C.3     3  MET3        0.0387
      6  CG        43.1160    5.9700   19.3200 C.3     3  MET3        0.0595
      7  SD        41.4820    6.1950   20.0810 S.3     3  MET3       -0.1393
      8  CE        42.2130    5.9360   21.6440 C.3     3  MET3        0.0692
      9  N         43.4800    5.5780   24.8810 N.3     8  VAL8       -0.1245
     10  CA        42.2310    4.8630   25.0950 C.3     8  VAL8        0.1561
     11  C         41.7170    5.1210   26.5140 C.2     8  VAL8        0.2260
     12  O         40.5590    5.4390   26.7180 O.2     8  VAL8       -0.2867
     13  CB        42.3940    3.3540   24.8330 C.3     8  VAL8        0.0252
     14  CG1       41.1220    2.6080   25.1980 C.3     8  VAL8        0.0019
     15  CG2       42.7530    3.1110   23.3830 C.3     8  VAL8        0.0019
     16  N         40.3550    8.8550   26.9250 N.3    11  LEU11      -0.1231
     17  CA        39.0580    9.0560   26.3160 C.3    11  LEU11       0.1693
     18  C         37.9700    8.3110   27.0830 C.2    11  LEU11       0.2591
     19  O         36.8930    8.8480   27.3020 O.2    11  LEU11      -0.2718
     20  CB        39.0900    8.6530   24.8470 C.3    11  LEU11       0.0284
     21  CG        37.7700    8.8220   24.0840 C.3    11  LEU11       0.0019
     22  CD1       37.1880   10.2280   24.2460 C.3    11  LEU11       0.0001
     23  CD2       37.9630    8.5130   22.6180 C.3    11  LEU11       0.0001
     24  N         38.2580    7.0850   27.5100 N.am   12  ALA12      -0.1980
     25  CA        37.2930    6.3100   28.2760 C.3    12  ALA12       0.1597
     26  C         36.9300    7.0410   29.5610 C.2    12  ALA12       0.2287
     27  O         35.7570    7.1040   29.9200 O.2    12  ALA12      -0.2864
     28  CB        37.8290    4.9320   28.5870 C.3    12  ALA12       0.0319
     29  N         34.6650   10.0900   28.7560 N.3    15  MET15      -0.1245
     30  CA        33.3060    9.6400   28.4350 C.3    15  MET15       0.1570
     31  C         32.5640    9.1940   29.6920 C.2    15  MET15       0.2261
     32  O         31.3960    9.5370   29.8990 O.2    15  MET15      -0.2867
     33  CB        33.3540    8.5010   27.4300 C.3    15  MET15       0.0387
     34  CG        33.8200    8.9550   26.0610 C.3    15  MET15       0.0595
     35  SD        33.6460    7.7040   24.7880 S.3    15  MET15      -0.1393
     36  CE        34.6840    6.4540   25.4440 C.3    15  MET15       0.0692
     37  N         30.2550    6.7500   21.5450 N.3    55  LEU55      -0.1245
     38  CA        31.1730    6.0410   20.6480 C.3    55  LEU55       0.1561
     39  C         30.5860    5.7630   19.2730 C.2    55  LEU55       0.2260
     40  O         31.2620    5.2150   18.4090 O.2    55  LEU55      -0.2867
     41  CB        31.6360    4.7290   21.2780 C.3    55  LEU55       0.0270
     42  CG        32.6440    4.9530   22.3960 C.3    55  LEU55       0.0019
     43  CD1       32.8800    3.6520   23.1470 C.3    55  LEU55       0.0001
     44  CD2       33.9620    5.5490   21.8510 C.3    55  LEU55       0.0001
     45  N         35.6780    0.6810   16.0310 N.3    71  GLN71      -0.1231
     46  CA        36.1590    1.1210   17.3380 C.3    71  GLN71       0.1698
     47  C         37.1230    0.1170   17.9340 C.2    71  GLN71       0.2592
     48  O         38.1480    0.5020   18.5000 O.2    71  GLN71      -0.2718
     49  CB        35.0040    1.4000   18.2960 C.3    71  GLN71       0.0381
     50  CG        34.2150    2.6550   17.9480 C.3    71  GLN71       0.0905
     51  CD        34.9460    3.9590   18.2790 C.2    71  GLN71       0.2608
     52  OE1       36.0820    3.9640   18.7220 O.2    71  GLN71      -0.2717
     53  NE2       34.2410    5.0690   18.1490 N.am   71  GLN71      -0.0878
     54  N         36.8260   -1.1740   17.8290 N.am   72  LEU72      -0.1980
     55  CA        37.7420   -2.1550   18.3870 C.3    72  LEU72       0.1596
     56  C         39.0760   -2.1360   17.6130 C.2    72  LEU72       0.2287
     57  O         40.1350   -2.2680   18.2210 O.2    72  LEU72      -0.2864
     58  CB        37.0940   -3.5220   18.5320 C.3    72  LEU72       0.0297
     59  CG        36.9330   -4.4390   17.3350 C.3    72  LEU72       0.0022
     60  CD1       38.2530   -5.1530   17.0090 C.3    72  LEU72       0.0001
     61  CD2       35.8050   -5.4330   17.5670 C.3    72  LEU72       0.0001
     62  N         41.0710    0.8580   18.9850 N.3    75  THR75      -0.1203
     63  CA        41.3450    0.9060   20.4260 C.3    75  THR75       0.1994
     64  C         41.9130   -0.3410   21.0910 C.2    75  THR75       0.2618
     65  O         42.4180   -0.2430   22.2030 O.2    75  THR75      -0.2717
     66  CB        40.0890    1.3300   21.2230 C.3    75  THR75       0.1784
     67  OG1       39.0730    0.3330   21.0780 O.3    75  THR75      -0.2211
     68  CG2       39.5680    2.6960   20.7750 C.3    75  THR75       0.0376
     69  N         41.7950   -1.5140   20.4750 N.am   76  MET76      -0.1965
     70  CA        42.3340   -2.7200   21.1040 C.3    76  MET76       0.1721
     71  C         43.8030   -2.8810   20.7840 C.2    76  MET76       0.2458
     72  O         44.2460   -2.4820   19.7070 O.2    76  MET76      -0.2730
     73  CB        41.5980   -3.9610   20.6330 C.3    76  MET76       0.0427
     74  CG        40.1880   -4.0660   21.1560 C.3    76  MET76       0.0599
     75  SD        39.4910   -5.6970   20.9270 S.3    76  MET76      -0.1393
     76  CE        40.0870   -6.5450   22.3860 C.3    76  MET76       0.0692
     77  N         44.5780   -3.4770   21.7180 N.am   77  PRO77      -0.2727
     78  CA        45.9420   -3.8770   21.3920 C.3    77  PRO77       0.1402
     79  C         45.9130   -4.7810   20.1380 C.2    77  PRO77       0.2269
     80  O         45.0030   -5.6010   20.0110 O.2    77  PRO77      -0.2865
     81  CB        46.3790   -4.6710   22.6310 C.3    77  PRO77       0.0296
     82  CG        45.4570   -4.2550   23.7230 C.3    77  PRO77       0.0237
     83  CD        44.1780   -3.8790   23.0790 C.3    77  PRO77       0.0939
     84  N         45.0570   -8.3990   20.2400 N.3    80  GLU80      -0.1245
     85  CA        43.7030   -8.6800   20.7180 C.3    80  GLU80       0.1567
     86  C         42.5870   -8.4460   19.6920 C.2    80  GLU80       0.2260
     87  O         41.4360   -8.8030   19.9480 O.2    80  GLU80      -0.2867
     88  CB        43.4310   -7.8680   21.9820 C.3    80  GLU80       0.0388
     89  CG        44.1680   -8.4320   23.1950 C.3    80  GLU80       0.1160
     90  CD        44.0370   -7.5630   24.4270 C.2    80  GLU80       0.3649
     91  OE1       43.0570   -6.7870   24.5120 O.co2  80  GLU80      -0.2457
     92  OE2       44.9300   -7.6560   25.3060 O.co2  80  GLU80      -0.2457
     93  N         36.4060   -4.9000   29.1310 N.3   120  PHE120     -0.1241
     94  CA        36.5650   -3.4810   29.4250 C.3   120  PHE120      0.1605
     95  C         35.3430   -2.7420   28.9070 C.2   120  PHE120      0.2264
     96  O         34.9050   -2.9890   27.8030 O.2   120  PHE120     -0.2867
     97  CB        37.8160   -2.9360   28.7420 C.3   120  PHE120      0.0534
     98  CG        38.0550   -1.4680   28.9980 C.ar  120  PHE120     -0.0203
     99  CD1       38.8230   -1.0750   30.0750 C.ar  120  PHE120     -0.0042
    100  CD2       37.4870   -0.4890   28.1860 C.ar  120  PHE120     -0.0042
    101  CE1       39.0410    0.2730   30.3330 C.ar  120  PHE120     -0.0003
    102  CE2       37.6990    0.8650   28.4410 C.ar  120  PHE120     -0.0003
    103  CZ        38.4750    1.2410   29.5190 C.ar  120  PHE120     -0.0000
    104  N         33.9990    1.5240   29.0960 N.3   122  PRO122     -0.2116
    105  CA        34.4030    2.8310   29.6310 C.3   122  PRO122      0.1372
    106  C         33.6960    3.2090   30.9280 C.2   122  PRO122      0.2244
    107  O         34.3530    3.7480   31.8410 O.2   122  PRO122     -0.2868
    108  CB        34.0270    3.7970   28.5040 C.3   122  PRO122      0.0268
    109  CG        34.1300    2.9920   27.2950 C.3   122  PRO122      0.0207
    110  CD        33.6560    1.6070   27.6690 C.3   122  PRO122      0.0892
@<TRIPOS>BOND
     1    45    46    1
     2    60    59    1
     3    59    61    1
     4    59    58    1
     5    46    47    1
     6    46    49    1
     7    56    57    2
     8    56    55    1
     9    54    47   am
    10    54    55    1
    11    47    48    2
    12    50    51    1
    13    50    49    1
    14    53    51   am
    15    51    52    2
    16    55    58    1
    17    40    39    2
    18     1     2    1
    19    62    63    1
    20    39    38    1
    21     6     7    1
    22     6     5    1
    23     2     5    1
    24     2     3    1
    25    86    87    2
    26    86    85    1
    27    72    71    2
    28    80    79    2
    29     7     8    1
    30    79    78    1
    31    84    85    1
    32    63    64    1
    33    63    66    1
    34    69    64   am
    35    69    70    1
    36     3     4    2
    37    73    70    1
    38    73    74    1
    39    38    41    1
    40    38    37    1
    41    85    88    1
    42    68    66    1
    43    71    70    1
    44    71    77   am
    45    75    74    1
    46    75    76    1
    47    67    66    1
    48    64    65    2
    49    41    42    1
    50    78    77    1
    51    78    81    1
    52    77    83    1
    53    44    42    1
    54    88    89    1
    55    42    43    1
    56    23    21    1
    57    81    82    1
    58    83    82    1
    59    89    90    1
    60    15    13    1
    61    21    22    1
    62    21    20    1
    63    90    91   ar
    64    90    92   ar
    65    35    36    1
    66    35    34    1
    67    13    10    1
    68    13    14    1
    69    20    17    1
    70     9    10    1
    71    10    11    1
    72    34    33    1
    73    17    16    1
    74    17    18    1
    75    11    12    2
    76    18    19    2
    77    18    24   am
    78   109   110    1
    79   109   108    1
    80    33    30    1
    81    24    25    1
    82   110   104    1
    83    96    95    2
    84   100   102   ar
    85   100    98   ar
    86    25    28    1
    87    25    26    1
    88    30    29    1
    89    30    31    1
    90   102   103   ar
    91   108   105    1
    92    97    98    1
    93    97    94    1
    94    95    94    1
    95    98    99   ar
    96   104   105    1
    97    93    94    1
    98   103   101   ar
    99    26    27    2
   100   105   106    1
   101    31    32    2
   102    99   101   ar
   103   106   107    2
