@<TRIPOS>MOLECULE
tmp/3r72A00.pdb
 144 140 0 0 0
SMALL
GASTEIGER

@<TRIPOS>ATOM
      1  N         27.2390    5.7190   26.9250 N.3    51  ILE51      -0.1231
      2  CA        28.5880    5.4990   26.4350 C.3    51  ILE51       0.1692
      3  C         28.5680    5.0220   24.9830 C.2    51  ILE51       0.2591
      4  O         29.3190    5.5180   24.1430 O.2    51  ILE51      -0.2718
      5  CB        29.3310    4.4760   27.3260 C.3    51  ILE51       0.0266
      6  CG1       29.6060    5.0560   28.7150 C.3    51  ILE51       0.0019
      7  CG2       30.6170    3.9910   26.6810 C.3    51  ILE51       0.0020
      8  CD1       30.6090    6.2050   28.7680 C.3    51  ILE51       0.0001
      9  N         27.7220    4.0340   24.6710 N.am   52  MET52      -0.1979
     10  CA        27.7010    3.5310   23.2980 C.3    52  MET52       0.1605
     11  C         27.2430    4.6090   22.3210 C.2    52  MET52       0.2287
     12  O         27.7130    4.6760   21.1820 O.2    52  MET52      -0.2864
     13  CB        26.8630    2.2600   23.1710 C.3    52  MET52       0.0413
     14  CG        27.5090    1.1000   23.9140 C.3    52  MET52       0.0598
     15  SD        26.7580   -0.5180   23.6630 S.3    52  MET52      -0.1393
     16  CE        27.1800   -0.8570   21.9710 C.3    52  MET52       0.0692
     17  N         30.2550    6.7500   21.5450 N.3    55  LEU55      -0.1245
     18  CA        31.1730    6.0410   20.6480 C.3    55  LEU55       0.1561
     19  C         30.5860    5.7630   19.2730 C.2    55  LEU55       0.2260
     20  O         31.2620    5.2150   18.4090 O.2    55  LEU55      -0.2867
     21  CB        31.6360    4.7290   21.2780 C.3    55  LEU55       0.0270
     22  CG        32.6440    4.9530   22.3960 C.3    55  LEU55       0.0019
     23  CD1       32.8800    3.6520   23.1470 C.3    55  LEU55       0.0001
     24  CD2       33.9620    5.5490   21.8510 C.3    55  LEU55       0.0001
     25  N         28.4560    3.5670   18.5910 N.3    57  THR57      -0.1218
     26  CA        28.2350    2.1380   18.4540 C.3    57  THR57       0.1862
     27  C         26.7700    1.7470   18.6750 C.2    57  THR57       0.2287
     28  O         26.3980    0.6030   18.4350 O.2    57  THR57      -0.2866
     29  CB        29.1690    1.3810   19.3920 C.3    57  THR57       0.1770
     30  OG1       28.9880    1.8580   20.7230 O.3    57  THR57      -0.2211
     31  CG2       30.6120    1.5510   18.9720 C.3    57  THR57       0.0375
     32  N         31.1390   -0.6620   15.7830 N.3    68  ILE68      -0.1245
     33  CA        31.7170   -1.4830   16.8470 C.3    68  ILE68       0.1561
     34  C         33.0410   -2.0850   16.3640 C.2    68  ILE68       0.2260
     35  O         34.0470   -2.0310   17.0810 O.2    68  ILE68      -0.2867
     36  CB        30.7230   -2.5580   17.3280 C.3    68  ILE68       0.0252
     37  CG1       29.6050   -1.8740   18.1180 C.3    68  ILE68       0.0019
     38  CG2       31.4120   -3.6070   18.1770 C.3    68  ILE68       0.0019
     39  CD1       28.4010   -2.7240   18.4280 C.3    68  ILE68       0.0001
     40  N         35.6780    0.6810   16.0310 N.3    71  GLN71      -0.1231
     41  CA        36.1590    1.1210   17.3380 C.3    71  GLN71       0.1698
     42  C         37.1230    0.1170   17.9340 C.2    71  GLN71       0.2592
     43  O         38.1480    0.5020   18.5000 O.2    71  GLN71      -0.2718
     44  CB        35.0040    1.4000   18.2960 C.3    71  GLN71       0.0381
     45  CG        34.2150    2.6550   17.9480 C.3    71  GLN71       0.0905
     46  CD        34.9460    3.9590   18.2790 C.2    71  GLN71       0.2608
     47  OE1       36.0820    3.9640   18.7220 O.2    71  GLN71      -0.2717
     48  NE2       34.2410    5.0690   18.1490 N.am   71  GLN71      -0.0878
     49  N         36.8260   -1.1740   17.8290 N.am   72  LEU72      -0.1980
     50  CA        37.7420   -2.1550   18.3870 C.3    72  LEU72       0.1596
     51  C         39.0760   -2.1360   17.6130 C.2    72  LEU72       0.2287
     52  O         40.1350   -2.2680   18.2210 O.2    72  LEU72      -0.2864
     53  CB        37.0940   -3.5220   18.5320 C.3    72  LEU72       0.0297
     54  CG        36.9330   -4.4390   17.3350 C.3    72  LEU72       0.0022
     55  CD1       38.2530   -5.1530   17.0090 C.3    72  LEU72       0.0001
     56  CD2       35.8050   -5.4330   17.5670 C.3    72  LEU72       0.0001
     57  N         41.0710    0.8580   18.9850 N.3    75  THR75      -0.1203
     58  CA        41.3450    0.9060   20.4260 C.3    75  THR75       0.1994
     59  C         41.9130   -0.3410   21.0910 C.2    75  THR75       0.2617
     60  O         42.4180   -0.2430   22.2030 O.2    75  THR75      -0.2717
     61  CB        40.0890    1.3300   21.2230 C.3    75  THR75       0.1784
     62  OG1       39.0730    0.3330   21.0780 O.3    75  THR75      -0.2211
     63  CG2       39.5680    2.6960   20.7750 C.3    75  THR75       0.0376
     64  N         41.7950   -1.5140   20.4750 N.am   76  MET76      -0.1979
     65  CA        42.3340   -2.7200   21.1040 C.3    76  MET76       0.1605
     66  C         43.8030   -2.8810   20.7840 C.2    76  MET76       0.2287
     67  O         44.2460   -2.4820   19.7070 O.2    76  MET76      -0.2864
     68  CB        41.5980   -3.9610   20.6330 C.3    76  MET76       0.0413
     69  CG        40.1880   -4.0660   21.1560 C.3    76  MET76       0.0598
     70  SD        39.4910   -5.6970   20.9270 S.3    76  MET76      -0.1393
     71  CE        40.0870   -6.5450   22.3860 C.3    76  MET76       0.0692
     72  N         38.7910   -9.8900   19.5470 N.3    84  GLY84      -0.1225
     73  CA        37.6830   -8.9550   19.6900 C.3    84  GLY84       0.1811
     74  C         36.6550   -9.0750   18.5730 C.2    84  GLY84       0.2280
     75  O         35.4460   -9.0150   18.8220 O.2    84  GLY84      -0.2866
     76  N         23.9600   -6.4040   25.5370 N.3   107  TYR107     -0.1227
     77  CA        25.0930   -6.5370   24.6290 C.3   107  TYR107      0.1736
     78  C         26.4170   -6.5020   25.3960 C.2   107  TYR107      0.2595
     79  O         27.3180   -7.3140   25.1680 O.2   107  TYR107     -0.2718
     80  CB        25.0250   -5.4300   23.5520 C.3   107  TYR107      0.0548
     81  CG        26.1340   -5.5700   22.5490 C.ar  107  TYR107     -0.0200
     82  CD1       26.0240   -6.5010   21.5240 C.ar  107  TYR107     -0.0009
     83  CD2       27.2950   -4.8430   22.6380 C.ar  107  TYR107     -0.0009
     84  CE1       27.0370   -6.7220   20.6280 C.ar  107  TYR107      0.0417
     85  CE2       28.3140   -5.0490   21.7260 C.ar  107  TYR107      0.0417
     86  CZ        28.1770   -6.0030   20.7340 C.ar  107  TYR107      0.1957
     87  OH        29.1940   -6.2480   19.8580 O.3   107  TYR107     -0.2866
     88  N         26.5260   -5.5690   26.3330 N.am  108  VAL108     -0.1980
     89  CA        27.7050   -5.4680   27.1800 C.3   108  VAL108      0.1595
     90  C         27.9130   -6.7700   27.9750 C.2   108  VAL108      0.2287
     91  O         29.0260   -7.2650   28.0730 O.2   108  VAL108     -0.2864
     92  CB        27.6000   -4.2200   28.1040 C.3   108  VAL108      0.0276
     93  CG1       28.7180   -4.2190   29.1380 C.3   108  VAL108      0.0022
     94  CG2       27.6280   -2.9550   27.2550 C.3   108  VAL108      0.0022
     95  N         29.3860   -9.4500   25.7790 N.3   111  HIS111     -0.1241
     96  CA        30.8260   -9.2630   25.6490 C.3   111  HIS111      0.1621
     97  C         31.5690   -9.7850   26.8830 C.2   111  HIS111      0.2264
     98  O         32.5830  -10.4800   26.7610 O.2   111  HIS111     -0.2867
     99  CB        31.1240   -7.7850   25.4360 C.3   111  HIS111      0.0745
    100  CG        31.3410   -7.4200   24.0040 C.ar  111  HIS111      0.0817
    101  ND1       30.3560   -7.3250   23.0410 N.ar  111  HIS111     -0.2268
    102  CD2       32.4920   -7.0870   23.3890 C.ar  111  HIS111      0.1154
    103  CE1       30.9070   -6.9650   21.8900 C.ar  111  HIS111      0.1986
    104  NE2       32.2030   -6.8170   22.0770 N.ar  111  HIS111     -0.2212
    105  N         37.4960   -8.2580   29.6950 N.3   119  PHE119     -0.1227
    106  CA        36.4120   -7.2830   29.5150 C.3   119  PHE119      0.1736
    107  C         36.8250   -5.8840   29.9270 C.2   119  PHE119      0.2595
    108  O         37.4690   -5.7000   30.9480 O.2   119  PHE119     -0.2718
    109  CB        35.2370   -7.7190   30.3620 C.3   119  PHE119      0.0547
    110  CG        34.0880   -6.7460   30.3750 C.ar  119  PHE119     -0.0202
    111  CD1       33.1030   -6.7520   29.3850 C.ar  119  PHE119     -0.0042
    112  CD2       33.9670   -5.8370   31.4020 C.ar  119  PHE119     -0.0042
    113  CE1       32.0360   -5.8590   29.4420 C.ar  119  PHE119     -0.0003
    114  CE2       32.9060   -4.9500   31.4640 C.ar  119  PHE119     -0.0003
    115  CZ        31.9430   -4.9770   30.4860 C.ar  119  PHE119     -0.0000
    116  N         36.4060   -4.9000   29.1310 N.am  120  PHE120     -0.1962
    117  CA        36.5650   -3.4810   29.4250 C.3   120  PHE120      0.1771
    118  C         35.3430   -2.7420   28.9070 C.2   120  PHE120      0.2620
    119  O         34.9050   -2.9890   27.8030 O.2   120  PHE120     -0.2715
    120  CB        37.8160   -2.9360   28.7420 C.3   120  PHE120      0.0574
    121  CG        38.0550   -1.4680   28.9980 C.ar  120  PHE120     -0.0200
    122  CD1       38.8230   -1.0750   30.0750 C.ar  120  PHE120     -0.0042
    123  CD2       37.4870   -0.4890   28.1860 C.ar  120  PHE120     -0.0042
    124  CE1       39.0410    0.2730   30.3330 C.ar  120  PHE120     -0.0003
    125  CE2       37.6990    0.8650   28.4410 C.ar  120  PHE120     -0.0003
    126  CZ        38.4750    1.2410   29.5190 C.ar  120  PHE120     -0.0000
    127  N         34.8030   -1.8410   29.7050 N.am  121  PHE121     -0.1960
    128  CA        33.7680   -0.9280   29.2540 C.3   121  PHE121      0.1756
    129  C         34.1110    0.4330   29.8660 C.2   121  PHE121      0.2461
    130  O         34.4740    0.5000   31.0310 O.2   121  PHE121     -0.2730
    131  CB        32.3750   -1.3890   29.6940 C.3   121  PHE121      0.0574
    132  CG        31.2730   -0.6290   29.0310 C.ar  121  PHE121     -0.0200
    133  CD1       30.8540   -0.9720   27.7500 C.ar  121  PHE121     -0.0042
    134  CD2       30.7010    0.4720   29.6370 C.ar  121  PHE121     -0.0042
    135  CE1       29.8620   -0.2590   27.1040 C.ar  121  PHE121     -0.0003
    136  CE2       29.6970    1.1780   29.0090 C.ar  121  PHE121     -0.0003
    137  CZ        29.2840    0.8140   27.7380 C.ar  121  PHE121     -0.0000
    138  N         33.9990    1.5240   29.0960 N.am  122  PRO122     -0.2727
    139  CA        34.4030    2.8310   29.6310 C.3   122  PRO122      0.1402
    140  C         33.6960    3.2090   30.9280 C.2   122  PRO122      0.2269
    141  O         34.3530    3.7480   31.8410 O.2   122  PRO122     -0.2865
    142  CB        34.0270    3.7970   28.5040 C.3   122  PRO122      0.0296
    143  CG        34.1300    2.9920   27.2950 C.3   122  PRO122      0.0237
    144  CD        33.6560    1.6070   27.6690 C.3   122  PRO122      0.0939
@<TRIPOS>BOND
     1    32    33    1
     2    40    41    1
     3    34    33    1
     4    34    35    2
     5    33    36    1
     6    55    54    1
     7    36    37    1
     8    36    38    1
     9    54    56    1
    10    54    53    1
    11    41    42    1
    12    41    44    1
    13    51    52    2
    14    51    50    1
    15    49    42   am
    16    49    50    1
    17    42    43    2
    18    45    46    1
    19    45    44    1
    20    37    39    1
    21    48    46   am
    22    46    47    2
    23    50    53    1
    24    20    19    2
    25    28    27    2
    26    26    25    1
    27    26    27    1
    28    26    29    1
    29    74    75    2
    30    74    73    1
    31    31    29    1
    32    57    58    1
    33    19    18    1
    34    29    30    1
    35    72    73    1
    36    67    66    2
    37    87    86    1
    38    58    59    1
    39    58    61    1
    40    64    59   am
    41    64    65    1
    42    84    86   ar
    43    84    82   ar
    44    68    65    1
    45    68    69    1
    46    18    21    1
    47    18    17    1
    48    86    85   ar
    49    63    61    1
    50    66    65    1
    51    70    69    1
    52    70    71    1
    53    62    61    1
    54    59    60    2
    55    12    11    2
    56    21    22    1
    57    82    81   ar
    58    85    83   ar
    59    24    22    1
    60   103   104   ar
    61   103   101   ar
    62    16    15    1
    63   104   102   ar
    64    11    10    1
    65    22    23    1
    66    81    83   ar
    67    81    80    1
    68   101   100   ar
    69    13    10    1
    70    13    14    1
    71    10     9    1
    72   102   100   ar
    73    80    77    1
    74    15    14    1
    75   100    99    1
    76     4     3    2
    77    77    78    1
    78    77    76    1
    79     9     3   am
    80     3     2    1
    81    79    78    2
    82    78    88   am
    83    99    96    1
    84    96    95    1
    85    96    97    1
    86    88    89    1
    87     2     1    1
    88     2     5    1
    89     7     5    1
    90    98    97    2
    91   135   137   ar
    92   135   133   ar
    93    89    90    1
    94    89    92    1
    95    94    92    1
    96   143   144    1
    97   143   142    1
    98     5     6    1
    99   144   138    1
   100   137   136   ar
   101   133   132   ar
   102   119   118    2
   103    90    91    2
   104    92    93    1
   105   123   125   ar
   106   123   121   ar
   107   125   126   ar
   108   142   139    1
   109     6     8    1
   110   120   121    1
   111   120   117    1
   112   118   117    1
   113   118   127   am
   114   121   122   ar
   115   136   134   ar
   116   132   134   ar
   117   132   131    1
   118   138   139    1
   119   138   129   am
   120   116   117    1
   121   116   107   am
   122   128   131    1
   123   128   127    1
   124   128   129    1
   125   111   113   ar
   126   111   110   ar
   127   113   115   ar
   128   106   105    1
   129   106   107    1
   130   106   109    1
   131   126   124   ar
   132   139   140    1
   133   129   130    2
   134   107   108    2
   135   122   124   ar
   136   109   110    1
   137   110   112   ar
   138   115   114   ar
   139   140   141    2
   140   112   114   ar
