@<TRIPOS>MOLECULE
tmp/3r75B00.pdb
 135 127 0 0 0
SMALL
GASTEIGER

@<TRIPOS>ATOM
      1  N         65.4210   50.4590   -1.9350 N.3   145  VAL145     -0.1245
      2  CA        64.0440   50.5750   -1.5230 C.3   145  VAL145      0.1561
      3  C         63.3610   51.6820   -2.3000 C.2   145  VAL145      0.2260
      4  O         63.8280   52.8230   -2.3230 O.2   145  VAL145     -0.2867
      5  CB        64.0290   50.9600   -0.0130 C.3   145  VAL145      0.0252
      6  CG1       62.6430   51.2540    0.4700 C.3   145  VAL145      0.0019
      7  CG2       64.7290   49.8580    0.8150 C.3   145  VAL145      0.0019
      8  N         59.0720   49.2860   13.5120 N.3   194  PRO194     -0.2102
      9  CA        59.8830   48.2320   14.1640 C.3   194  PRO194      0.1504
     10  C         61.3640   48.5830   14.4400 C.2   194  PRO194      0.2575
     11  O         61.9970   47.9130   15.2050 O.2   194  PRO194     -0.2718
     12  CB        59.8890   47.1090   13.1420 C.3   194  PRO194      0.0282
     13  CG        59.8250   47.8220   11.8350 C.3   194  PRO194      0.0208
     14  CD        58.9010   49.0040   12.0910 C.3   194  PRO194      0.0893
     15  N         61.8430   49.6920   13.9260 N.am  195  GLU195     -0.1980
     16  CA        63.2740   49.9000   13.7930 C.3   195  GLU195      0.1602
     17  C         63.7720   51.2030   14.4100 C.2   195  GLU195      0.2287
     18  O         63.3630   52.2920   14.0160 O.2   195  GLU195     -0.2864
     19  CB        63.6160   49.8760   12.2960 C.3   195  GLU195      0.0415
     20  CG        65.0710   49.6140   12.0010 C.3   195  GLU195      0.1163
     21  CD        65.2650   49.2550   10.5110 C.2   195  GLU195      0.3649
     22  OE1       66.3790   48.8900   10.0900 O.co2 195  GLU195     -0.2457
     23  OE2       64.2710   49.3040    9.7700 O.co2 195  GLU195     -0.2457
     24  N         67.2830   45.7080    9.9920 N.3   210  ILE210     -0.1231
     25  CA        66.1900   44.8000    9.8590 C.3   210  ILE210      0.1692
     26  C         65.9470   44.6330    8.3440 C.2   210  ILE210      0.2593
     27  O         65.7920   45.6340    7.6110 O.2   210  ILE210     -0.2718
     28  CB        64.9550   45.3610   10.4960 C.3   210  ILE210      0.0266
     29  CG1       65.1810   45.6370   11.9830 C.3   210  ILE210      0.0019
     30  CG2       63.7430   44.3590   10.3160 C.3   210  ILE210      0.0020
     31  CD1       63.8440   46.1510   12.7350 C.3   210  ILE210      0.0001
     32  N         65.9340   43.3990    7.8810 N.am  211  SER211     -0.1938
     33  CA        65.3730   43.0960    6.5760 C.3   211  SER211      0.2055
     34  C         65.0730   41.6070    6.4910 C.2   211  SER211      0.2644
     35  O         65.6760   40.8330    7.2010 O.2   211  SER211     -0.2714
     36  CB        66.2960   43.5400    5.4730 C.3   211  SER211      0.2130
     37  OG        65.5640   44.0450    4.3840 O.3   211  SER211     -0.2179
     38  N         64.1350   41.2590    5.6120 N.am  212  GLY212     -0.1939
     39  CA        63.5340   39.9310    5.4860 C.3   212  GLY212      0.2014
     40  C         62.2140   39.9110    6.2160 C.2   212  GLY212      0.2639
     41  O         62.1740   40.1510    7.4070 O.2   212  GLY212     -0.2714
     42  N         61.1490   39.6050    5.5170 N.am  213  THR213     -0.1950
     43  CA        59.8140   39.6770    6.0530 C.3   213  THR213      0.1897
     44  C         59.0500   38.4070    5.7680 C.2   213  THR213      0.2313
     45  O         59.0200   37.9710    4.6350 O.2   213  THR213     -0.2863
     46  CB        59.1080   40.8880    5.3730 C.3   213  THR213      0.1794
     47  OG1       59.8510   42.0700    5.7360 O.3   213  THR213     -0.2208
     48  CG2       57.6250   41.0190    5.8150 C.3   213  THR213      0.0378
     49  N         69.3590   39.1040    1.9000 N.3   238  GLU238     -0.1245
     50  CA        68.8830   40.4600    2.0540 C.3   238  GLU238      0.1567
     51  C         69.3580   40.9980    3.4120 C.2   238  GLU238      0.2260
     52  O         69.7830   42.1560    3.5770 O.2   238  GLU238     -0.2867
     53  CB        67.3520   40.3830    1.9570 C.3   238  GLU238      0.0388
     54  CG        66.5510   41.6250    2.1040 C.3   238  GLU238      0.1160
     55  CD        65.0110   41.3610    1.9750 C.2   238  GLU238      0.3649
     56  OE1       64.2290   42.1310    2.5610 O.co2 238  GLU238     -0.2457
     57  OE2       64.5740   40.4320    1.2660 O.co2 238  GLU238     -0.2457
     58  N         59.9370   39.9610   11.1340 N.3   273  HIS273     -0.1241
     59  CA        61.1820   40.3870   10.4630 C.3   273  HIS273      0.1621
     60  C         62.3960   39.6860   11.0920 C.2   273  HIS273      0.2264
     61  O         62.4260   39.4030   12.3130 O.2   273  HIS273     -0.2867
     62  CB        61.4440   41.8810   10.6230 C.3   273  HIS273      0.0745
     63  CG        60.4490   42.7780    9.9460 C.ar  273  HIS273      0.0817
     64  ND1       60.1350   42.6830    8.5950 N.ar  273  HIS273     -0.2268
     65  CD2       59.7850   43.8580   10.4150 C.ar  273  HIS273      0.1154
     66  CE1       59.2220   43.6050    8.3060 C.ar  273  HIS273      0.1986
     67  NE2       59.0570   44.3730    9.3690 N.ar  273  HIS273     -0.2212
     68  N         68.4780   50.2550    5.2860 N.3   298  THR298     -0.1203
     69  CA        67.2890   49.4390    5.2380 C.3   298  THR298      0.1994
     70  C         66.1210   50.1600    4.5890 C.2   298  THR298      0.2617
     71  O         65.1390   49.5150    4.2790 O.2   298  THR298     -0.2717
     72  CB        66.8780   48.9630    6.6510 C.3   298  THR298      0.1784
     73  OG1       66.8220   50.1000    7.5210 O.3   298  THR298     -0.2211
     74  CG2       67.9060   47.9950    7.2340 C.3   298  THR298      0.0376
     75  N         66.1890   51.5010    4.4730 N.am  299  VAL299     -0.1979
     76  CA        65.0910   52.2490    3.8770 C.3   299  VAL299      0.1595
     77  C         65.5150   53.1290    2.6830 C.2   299  VAL299      0.2287
     78  O         64.7120   53.9260    2.1940 O.2   299  VAL299     -0.2864
     79  CB        64.3490   53.1240    4.9400 C.3   299  VAL299      0.0276
     80  CG1       63.5690   52.2330    5.9010 C.3   299  VAL299      0.0022
     81  CG2       65.3350   54.0550    5.6440 C.3   299  VAL299      0.0022
     82  N         58.9640   54.6370    9.2720 N.3   345  ILE345     -0.1231
     83  CA        58.2570   53.6960    8.4150 C.3   345  ILE345      0.1692
     84  C         57.0690   53.1550    9.2150 C.2   345  ILE345      0.2591
     85  O         56.9610   53.4060   10.4200 O.2   345  ILE345     -0.2718
     86  CB        59.1460   52.5360    7.9810 C.3   345  ILE345      0.0266
     87  CG1       59.8170   51.8690    9.1860 C.3   345  ILE345      0.0019
     88  CG2       60.1570   53.0330    6.9390 C.3   345  ILE345      0.0020
     89  CD1       60.6420   50.6860    8.7960 C.3   345  ILE345      0.0001
     90  N         56.1640   52.4630    8.5380 N.am  346  ARG346     -0.1980
     91  CA        54.9140   52.0370    9.1250 C.3   346  ARG346      0.1597
     92  C         54.2300   53.1910    9.8330 C.2   346  ARG346      0.2287
     93  O         53.6650   53.0020   10.9290 O.2   346  ARG346     -0.2864
     94  CB        55.0850   50.8740   10.0940 C.3   346  ARG346      0.0334
     95  CG        56.1100   49.8740    9.6520 C.3   346  ARG346      0.0492
     96  CD        55.7060   49.0230    8.4370 C.3   346  ARG346      0.2205
     97  NE        56.9420   48.4950    7.9030 N.pl3 346  ARG346     -0.0865
     98  CZ        57.5960   47.4230    8.3690 C.cat 346  ARG346      0.5346
     99  NH1       57.0730   46.6160    9.2490 N.pl3 346  ARG346      0.1354
    100  NH2       58.7200   47.0770    7.8380 N.pl3 346  ARG346      0.1354
    101  N         57.8570   50.6470    1.3400 N.3   361  GLY361     -0.1210
    102  CA        58.6770   50.0200    0.3300 C.3   361  GLY361      0.1956
    103  C         59.1940   48.6560    0.7820 C.2   361  GLY361      0.2613
    104  O         58.7640   48.1180    1.7990 O.2   361  GLY361     -0.2717
    105  N         60.1530   48.1080    0.0260 N.am  362  SER362     -0.1938
    106  CA        60.8400   46.9050    0.4380 C.3   362  SER362      0.2055
    107  C         62.2400   46.8180   -0.1390 C.2   362  SER362      0.2643
    108  O         62.5480   47.3840   -1.1490 O.2   362  SER362     -0.2714
    109  CB        60.0230   45.6530    0.0390 C.3   362  SER362      0.2130
    110  OG        59.8600   45.6280   -1.3460 O.3   362  SER362     -0.2179
    111  N         63.0930   46.0460    0.5080 N.am  363  THR363     -0.1950
    112  CA        64.4840   45.9560    0.0850 C.3   363  THR363      0.1897
    113  C         64.5160   45.0810   -1.1800 C.2   363  THR363      0.2313
    114  O         64.2040   43.8860   -1.1420 O.2   363  THR363     -0.2863
    115  CB        65.4040   45.4340    1.2370 C.3   363  THR363      0.1794
    116  OG1       65.4980   46.3970    2.3080 O.3   363  THR363     -0.2208
    117  CG2       66.8640   45.1290    0.7370 C.3   363  THR363      0.0378
    118  N         54.6580   42.0130   -0.0730 N.3   376  GLU376     -0.1245
    119  CA        55.3930   42.4500    1.1180 C.3   376  GLU376      0.1567
    120  C         54.9610   43.8690    1.5180 C.2   376  GLU376      0.2260
    121  O         54.7580   44.1290    2.6910 O.2   376  GLU376     -0.2867
    122  CB        56.8910   42.3770    0.8720 C.3   376  GLU376      0.0388
    123  CG        57.7600   42.7380    2.0720 C.3   376  GLU376      0.1160
    124  CD        59.2150   42.2400    1.9180 C.2   376  GLU376      0.3649
    125  OE1       59.3940   41.1270    1.4350 O.co2 376  GLU376     -0.2457
    126  OE2       60.1580   42.9890    2.2430 O.co2 376  GLU376     -0.2457
    127  N         53.2630   44.9580    5.1650 N.3   380  LYS380     -0.1245
    128  CA        53.8720   45.9740    6.0250 C.3   380  LYS380      0.1561
    129  C         52.9550   47.0960    6.4080 C.2   380  LYS380      0.2260
    130  O         53.0410   47.6090    7.4970 O.2   380  LYS380     -0.2867
    131  CB        55.0580   46.6080    5.3730 C.3   380  LYS380      0.0271
    132  CG        56.2980   45.7570    5.3760 C.3   380  LYS380      0.0035
    133  CD        57.2540   46.2610    4.3930 C.3   380  LYS380      0.0206
    134  CE        58.4910   45.4320    4.4420 C.3   380  LYS380      0.1093
    135  NZ        59.5130   45.9320    3.5480 N.3   380  LYS380     -0.1314
@<TRIPOS>BOND
     1     4     3    2
     2     3     2    1
     3     1     2    1
     4     2     5    1
     5   110   109    1
     6   113   114    2
     7   113   112    1
     8   108   107    2
     9   107   106    1
    10   107   111   am
    11   118   119    1
    12     5     6    1
    13     5     7    1
    14   105   106    1
    15   105   103   am
    16   109   106    1
    17   112   111    1
    18   112   115    1
    19   102   103    1
    20   102   101    1
    21   117   115    1
    22   103   104    2
    23   122   119    1
    24   122   123    1
    25   119   120    1
    26   115   116    1
    27    57    55   ar
    28   125   124   ar
    29   120   121    2
    30    49    50    1
    31   124   123    1
    32   124   126   ar
    33    53    50    1
    34    53    54    1
    35    55    54    1
    36    55    56   ar
    37    50    51    1
    38    78    77    2
    39    77    76    1
    40    51    52    2
    41   135   134    1
    42    76    75    1
    43    76    79    1
    44    71    70    2
    45    37    36    1
    46   133   134    1
    47   133   132    1
    48    75    70   am
    49    70    69    1
    50    45    44    2
    51    79    81    1
    52    79    80    1
    53   127   128    1
    54    69    68    1
    55    69    72    1
    56   131   132    1
    57   131   128    1
    58    46    47    1
    59    46    48    1
    60    46    43    1
    61    36    33    1
    62    39    38    1
    63    39    40    1
    64    42    43    1
    65    42    40   am
    66    38    34   am
    67    44    43    1
    68   128   129    1
    69    40    41    2
    70   129   130    2
    71    34    33    1
    72    34    35    2
    73    33    32    1
    74    72    74    1
    75    72    73    1
    76    88    86    1
    77    27    26    2
    78   100    98    1
    79    32    26   am
    80    97    98    2
    81    97    96    1
    82    86    83    1
    83    86    87    1
    84    66    64   ar
    85    66    67   ar
    86    26    25    1
    87    98    99    1
    88    83    84    1
    89    83    82    1
    90    96    95    1
    91    90    91    1
    92    90    84   am
    93    64    63   ar
    94    89    87    1
    95    91    92    1
    96    91    94    1
    97    84    85    2
    98    67    65   ar
    99    95    94    1
   100    23    21   ar
   101    92    93    2
   102    25    24    1
   103    25    28    1
   104    63    65   ar
   105    63    62    1
   106    22    21   ar
   107    30    28    1
   108    59    62    1
   109    59    60    1
   110    59    58    1
   111    28    29    1
   112    21    20    1
   113    60    61    2
   114    13    14    1
   115    13    12    1
   116    29    31    1
   117    20    19    1
   118    14     8    1
   119    19    16    1
   120    12     9    1
   121     8     9    1
   122    16    15    1
   123    16    17    1
   124    15    10   am
   125    18    17    2
   126     9    10    1
   127    10    11    2
