@<TRIPOS>MOLECULE
tmp/3r77B00.pdb
 161 155 0 0 0
SMALL
GASTEIGER

@<TRIPOS>ATOM
      1  N         79.8070   56.3770   40.2200 N.3     2  THR2       -0.1218
      2  CA        79.3910   55.6910   39.0120 C.3     2  THR2        0.1862
      3  C         80.3780   55.9470   37.8880 C.2     2  THR2        0.2287
      4  O         80.3410   55.2550   36.8860 O.2     2  THR2       -0.2866
      5  CB        78.0020   56.1920   38.5320 C.3     2  THR2        0.1770
      6  OG1       78.1120   57.5720   38.1470 O.3     2  THR2       -0.2211
      7  CG2       76.9090   56.0460   39.6730 C.3     2  THR2        0.0375
      8  N         79.8850   58.1560   36.0960 N.3     4  ILE4       -0.1245
      9  CA        78.9740   58.7660   35.1100 C.3     4  ILE4        0.1561
     10  C         78.8090   60.2160   35.5530 C.2     4  ILE4        0.2260
     11  O         78.3340   60.4580   36.6560 O.2     4  ILE4       -0.2867
     12  CB        77.6150   58.0580   34.9990 C.3     4  ILE4        0.0252
     13  CG1       77.7890   56.6410   34.4410 C.3     4  ILE4        0.0019
     14  CG2       76.6690   58.8460   34.0450 C.3     4  ILE4        0.0019
     15  CD1       76.6150   55.7800   34.6740 C.3     4  ILE4        0.0001
     16  N         70.4200   49.1930   23.5620 N.3    37  HIS37      -0.1226
     17  CA        71.6900   49.0620   24.2600 C.3    37  HIS37       0.1752
     18  C         71.5640   49.7210   25.6340 C.2    37  HIS37       0.2595
     19  O         71.4480   50.9470   25.7770 O.2    37  HIS37      -0.2718
     20  CB        72.7270   49.7140   23.4040 C.3    37  HIS37       0.0759
     21  CG        74.0900   49.7170   23.9830 C.ar   37  HIS37       0.0818
     22  ND1       74.4540   50.5830   24.9790 N.ar   37  HIS37      -0.2268
     23  CD2       75.1340   48.8770   23.8170 C.ar   37  HIS37       0.1154
     24  CE1       75.6870   50.3070   25.3780 C.ar   37  HIS37       0.1986
     25  NE2       76.1330   49.2850   24.6780 N.ar   37  HIS37      -0.2212
     26  N         71.6730   48.9000   26.6420 N.am   38  ALA38      -0.1980
     27  CA        71.8760   49.3270   28.0250 C.3    38  ALA38       0.1597
     28  C         70.8140   50.2920   28.5260 C.2    38  ALA38       0.2287
     29  O         71.0890   51.1960   29.2860 O.2    38  ALA38      -0.2864
     30  CB        73.2780   49.8900   28.1870 C.3    38  ALA38       0.0319
     31  N         69.5840   51.8480   35.7590 N.3    42  TYR42      -0.1227
     32  CA        70.8110   52.4230   36.2770 C.3    42  TYR42       0.1736
     33  C         71.4550   53.3900   35.3420 C.2    42  TYR42       0.2595
     34  O         71.9950   54.4050   35.7720 O.2    42  TYR42      -0.2718
     35  CB        71.7700   51.2950   36.5860 C.3    42  TYR42       0.0548
     36  CG        73.1240   51.7310   37.0350 C.ar   42  TYR42      -0.0200
     37  CD1       74.1840   51.9350   36.1050 C.ar   42  TYR42      -0.0009
     38  CD2       73.4170   51.8270   38.3810 C.ar   42  TYR42      -0.0009
     39  CE1       75.4820   52.2710   36.5540 C.ar   42  TYR42       0.0417
     40  CE2       74.6830   52.1310   38.8130 C.ar   42  TYR42       0.0417
     41  CZ        75.7130   52.3640   37.9010 C.ar   42  TYR42       0.1957
     42  OH        76.9550   52.6500   38.4310 O.3    42  TYR42      -0.2866
     43  N         71.4490   53.0610   34.0380 N.am   43  PHE43      -0.1976
     44  CA        72.1020   53.8600   33.0710 C.3    43  PHE43       0.1639
     45  C         71.2960   55.0440   32.6180 C.2    43  PHE43       0.2290
     46  O         71.8600   56.0110   32.2050 O.2    43  PHE43      -0.2864
     47  CB        72.5290   53.0430   31.8760 C.3    43  PHE43       0.0560
     48  CG        73.6140   52.0850   32.1550 C.ar   43  PHE43      -0.0200
     49  CD1       74.7710   52.4970   32.7180 C.ar   43  PHE43      -0.0042
     50  CD2       73.4550   50.7510   31.8640 C.ar   43  PHE43      -0.0042
     51  CE1       75.8110   51.5900   32.9830 C.ar   43  PHE43      -0.0003
     52  CE2       74.4840   49.8450   32.0780 C.ar   43  PHE43      -0.0003
     53  CZ        75.6600   50.2750   32.6470 C.ar   43  PHE43      -0.0000
     54  N         73.6160   44.8000   31.6300 N.3    78  GLN78      -0.1245
     55  CA        74.5940   44.2680   32.5090 C.3    78  GLN78       0.1566
     56  C         73.9080   43.4190   33.5470 C.2    78  GLN78       0.2260
     57  O         72.7420   43.6490   33.8940 O.2    78  GLN78      -0.2867
     58  CB        75.3730   45.3520   33.1630 C.3    78  GLN78       0.0367
     59  CG        76.3100   46.0830   32.2600 C.3    78  GLN78       0.0905
     60  CD        77.1830   47.0050   33.0580 C.2    78  GLN78       0.2608
     61  OE1       76.9440   47.2100   34.2720 O.2    78  GLN78      -0.2717
     62  NE2       78.2170   47.5620   32.4050 N.am   78  GLN78      -0.0878
     63  N         84.3930   42.5820   36.6960 N.3    87  ARG87      -0.1245
     64  CA        84.4060   44.0670   36.5160 C.3    87  ARG87       0.1563
     65  C         85.6630   44.5380   35.7600 C.2    87  ARG87       0.2260
     66  O         85.6230   45.4540   34.9410 O.2    87  ARG87      -0.2867
     67  CB        84.3240   44.7380   37.8780 C.3    87  ARG87       0.0307
     68  CG        83.9770   46.1520   37.8580 C.3    87  ARG87       0.0489
     69  CD        82.5950   46.3660   37.3150 C.3    87  ARG87       0.2205
     70  NE        82.2820   47.7770   37.3280 N.pl3  87  ARG87      -0.0865
     71  CZ        81.3640   48.3590   36.5650 C.cat  87  ARG87       0.5346
     72  NH1       80.6310   47.6760   35.6940 N.pl3  87  ARG87       0.1354
     73  NH2       81.1940   49.6650   36.6740 N.pl3  87  ARG87       0.1354
     74  N         86.7750   48.0030   34.2860 N.3    90  LEU90      -0.1245
     75  CA        85.6380   48.8900   34.4080 C.3    90  LEU90       0.1561
     76  C         85.6680   49.6070   35.7420 C.2    90  LEU90       0.2260
     77  O         85.2250   50.7440   35.8240 O.2    90  LEU90      -0.2867
     78  CB        84.2950   48.2000   34.2480 C.3    90  LEU90       0.0270
     79  CG        84.0580   47.4830   32.9130 C.3    90  LEU90       0.0019
     80  CD1       82.6910   46.7930   32.9200 C.3    90  LEU90       0.0001
     81  CD2       84.2980   48.4880   31.7600 C.3    90  LEU90       0.0001
     82  N         84.6060   53.3320   36.2470 N.3    94  TRP94      -0.1241
     83  CA        83.1770   53.3580   36.4700 C.3    94  TRP94       0.1605
     84  C         82.7710   52.8340   37.8480 C.2    94  TRP94       0.2264
     85  O         81.6230   52.5950   38.0640 O.2    94  TRP94      -0.2867
     86  CB        82.4930   52.5440   35.3870 C.3    94  TRP94       0.0550
     87  CG        82.8820   52.9080   34.0120 C.ar   94  TRP94       0.0003
     88  CD1       83.6750   52.2050   33.1670 C.ar   94  TRP94       0.0946
     89  CD2       82.5380   54.0810   33.3300 C.ar   94  TRP94       0.0152
     90  NE1       83.7890   52.8110   31.9890 N.ar   94  TRP94      -0.2442
     91  CE2       83.1490   54.0070   32.0550 C.ar   94  TRP94       0.0810
     92  CE3       81.7690   55.1680   33.6360 C.ar   94  TRP94       0.0012
     93  CZ2       82.9970   54.9680   31.1320 C.ar   94  TRP94       0.0191
     94  CZ3       81.6780   56.1850   32.7050 C.ar   94  TRP94       0.0001
     95  CH2       82.2570   56.0660   31.4830 C.ar   94  TRP94       0.0015
     96  N         79.9250   49.5720   39.7670 N.3    97  GLY97      -0.1225
     97  CA        78.8330   49.4630   38.8220 C.3    97  GLY97       0.1811
     98  C         77.5350   49.1420   39.5110 C.2    97  GLY97       0.2280
     99  O         77.4320   49.0650   40.7360 O.2    97  GLY97      -0.2866
    100  N         75.4860   42.3990   28.8170 N.3   122  LYS122     -0.1245
    101  CA        76.5410   43.3670   28.5780 C.3   122  LYS122      0.1561
    102  C         77.6480   43.2120   29.5490 C.2   122  LYS122      0.2260
    103  O         77.4340   43.2420   30.7480 O.2   122  LYS122     -0.2867
    104  CB        75.9430   44.7420   28.7450 C.3   122  LYS122      0.0271
    105  CG        76.7890   45.8880   28.4570 C.3   122  LYS122      0.0035
    106  CD        75.9950   47.1850   28.5370 C.3   122  LYS122      0.0206
    107  CE        76.8840   48.3920   28.9270 C.3   122  LYS122      0.1093
    108  NZ        78.1110   48.4690   28.0300 N.3   122  LYS122     -0.1314
    109  N         81.1220   44.6160   28.5440 N.3   124  ARG124     -0.1231
    110  CA        82.0320   45.6840   28.2600 C.3   124  ARG124      0.1694
    111  C         81.3840   46.6220   27.2890 C.2   124  ARG124      0.2592
    112  O         80.1860   46.4800   26.9440 O.2   124  ARG124     -0.2718
    113  CB        83.3330   45.0840   27.7390 C.3   124  ARG124      0.0321
    114  CG        83.9910   44.2680   28.7220 C.3   124  ARG124      0.0489
    115  CD        84.5830   45.1830   29.8680 C.3   124  ARG124      0.2205
    116  NE        85.4980   44.4320   30.7190 N.pl3 124  ARG124     -0.0865
    117  CZ        85.1340   43.7300   31.7870 C.cat 124  ARG124      0.5346
    118  NH1       83.8610   43.6430   32.1350 N.pl3 124  ARG124      0.1354
    119  NH2       86.0350   43.1010   32.4820 N.pl3 124  ARG124      0.1354
    120  N         82.1350   47.6170   26.8420 N.am  125  TYR125     -0.1976
    121  CA        81.5010   48.5900   25.9760 C.3   125  TYR125      0.1639
    122  C         80.8330   48.0020   24.7530 C.2   125  TYR125      0.2290
    123  O         79.7190   48.4070   24.4050 O.2   125  TYR125     -0.2864
    124  CB        82.5220   49.5880   25.5010 C.3   125  TYR125      0.0560
    125  CG        83.1720   50.3970   26.6020 C.ar  125  TYR125     -0.0198
    126  CD1       82.5410   50.6270   27.7950 C.ar  125  TYR125     -0.0009
    127  CD2       84.3830   50.9770   26.4010 C.ar  125  TYR125     -0.0009
    128  CE1       83.1260   51.4100   28.7370 C.ar  125  TYR125      0.0417
    129  CE2       84.9580   51.7940   27.3260 C.ar  125  TYR125      0.0417
    130  CZ        84.3480   51.9940   28.4970 C.ar  125  TYR125      0.1957
    131  OH        84.9580   52.7680   29.4820 O.3   125  TYR125     -0.2866
    132  N         72.0250   53.9330   25.2950 N.3   150  VAL150     -0.1231
    133  CA        72.9790   54.7330   25.9950 C.3   150  VAL150      0.1692
    134  C         74.2100   53.9080   26.2510 C.2   150  VAL150      0.2592
    135  O         74.1020   52.6830   26.3120 O.2   150  VAL150     -0.2718
    136  CB        72.3960   55.1720   27.3390 C.3   150  VAL150      0.0266
    137  CG1       71.1710   56.1170   27.0940 C.3   150  VAL150      0.0020
    138  CG2       71.9750   53.9380   28.1680 C.3   150  VAL150      0.0020
    139  N         75.3840   54.5060   26.3770 N.am  151  TYR151     -0.1976
    140  CA        75.6500   55.9280   26.0900 C.3   151  TYR151      0.1639
    141  C         76.1870   56.0220   24.6890 C.2   151  TYR151      0.2290
    142  O         76.9600   55.1980   24.2580 O.2   151  TYR151     -0.2864
    143  CB        76.6390   56.4980   27.0870 C.3   151  TYR151      0.0560
    144  CG        76.0680   56.4170   28.4470 C.ar  151  TYR151     -0.0198
    145  CD1       75.0470   57.2600   28.8290 C.ar  151  TYR151     -0.0009
    146  CD2       76.5000   55.4490   29.3390 C.ar  151  TYR151     -0.0009
    147  CE1       74.4470   57.1570   30.1100 C.ar  151  TYR151      0.0417
    148  CE2       75.9280   55.3240   30.5840 C.ar  151  TYR151      0.0417
    149  CZ        74.9000   56.1760   30.9540 C.ar  151  TYR151      0.1957
    150  OH        74.3180   56.0180   32.1400 O.3   151  TYR151     -0.2866
    151  N         79.9330   55.8000   24.1610 N.3   154  VAL154     -0.1231
    152  CA        80.5400   54.6970   24.8490 C.3   154  VAL154      0.1692
    153  C         80.0660   53.4160   24.1940 C.2   154  VAL154      0.2592
    154  O         80.4580   53.1330   23.0440 O.2   154  VAL154     -0.2718
    155  CB        80.3820   54.7800   26.3650 C.3   154  VAL154      0.0266
    156  CG1       81.1770   53.6840   26.9500 C.3   154  VAL154      0.0020
    157  CG2       80.9030   56.1370   26.9230 C.3   154  VAL154      0.0020
    158  N         79.1580   52.6790   24.8240 N.am  155  GLY155     -0.1957
    159  CA        78.8330   51.3360   24.3290 C.3   155  GLY155      0.1869
    160  C         78.1060   51.3370   23.0040 C.2   155  GLY155      0.2309
    161  O         78.2310   50.4180   22.2110 O.2   155  GLY155     -0.2863
@<TRIPOS>BOND
     1   161   160    2
     2   160   159    1
     3   154   153    2
     4    20    21    1
     5    20    17    1
     6    16    17    1
     7    23    21   ar
     8    23    25   ar
     9    21    22   ar
    10   151   152    1
    11   153   158   am
    12   153   152    1
    13   142   141    2
    14    17    18    1
    15   159   158    1
    16   123   122    2
    17    25    24   ar
    18   141   140    1
    19   122   121    1
    20   152   155    1
    21    22    24   ar
    22   132   133    1
    23   124   121    1
    24   124   125    1
    25    18    19    2
    26    18    26   am
    27   121   120    1
    28   133   134    1
    29   133   136    1
    30   140   139    1
    31   140   143    1
    32   134   135    2
    33   134   139   am
    34   155   157    1
    35   155   156    1
    36   127   125   ar
    37   127   129   ar
    38   125   126   ar
    39    26    27    1
    40   120   111   am
    41   112   111    2
    42   143   144    1
    43   137   136    1
    44   111   110    1
    45   129   130   ar
    46   136   138    1
    47   113   110    1
    48   113   114    1
    49   126   128   ar
    50    27    30    1
    51    27    28    1
    52   108   107    1
    53   110   109    1
    54   144   145   ar
    55   144   146   ar
    56   105   106    1
    57   105   104    1
    58   130   128   ar
    59   130   131    1
    60    28    29    2
    61   106   107    1
    62   101   104    1
    63   101   100    1
    64   101   102    1
    65   114   115    1
    66   145   147   ar
    67   146   148   ar
    68   102   103    2
    69   115   116    1
    70   147   149   ar
    71   148   149   ar
    72   116   117    2
    73   149   150    1
    74    93    95   ar
    75    93    91   ar
    76    95    94   ar
    77    54    55    1
    78    81    79    1
    79   117   118    1
    80   117   119    1
    81    50    52   ar
    82    50    48   ar
    83    47    48    1
    84    47    44    1
    85    90    91   ar
    86    90    88   ar
    87    91    89   ar
    88    52    53   ar
    89    48    49   ar
    90    46    45    2
    91    59    60    1
    92    59    58    1
    93    62    60   am
    94    55    58    1
    95    55    56    1
    96    45    44    1
    97    53    51   ar
    98    94    92   ar
    99    49    51   ar
   100    79    80    1
   101    79    78    1
   102    60    61    2
   103    44    43    1
   104    88    87   ar
   105    89    92   ar
   106    89    87   ar
   107    56    57    2
   108    87    86    1
   109    43    33   am
   110    14    12    1
   111    78    75    1
   112    74    75    1
   113    75    76    1
   114    13    15    1
   115    13    12    1
   116    66    65    2
   117    12     9    1
   118     9    10    1
   119     9     8    1
   120    33    34    2
   121    33    32    1
   122    86    83    1
   123    10    11    2
   124    72    71    1
   125    76    77    2
   126    31    32    1
   127    65    64    1
   128    37    39   ar
   129    37    36   ar
   130    82    83    1
   131    32    35    1
   132    83    84    1
   133    64    63    1
   134    64    67    1
   135    39    41   ar
   136    71    73    1
   137    71    70    2
   138    35    36    1
   139     4     3    2
   140    36    38   ar
   141    69    70    1
   142    69    68    1
   143    84    85    2
   144    68    67    1
   145     3     2    1
   146    41    42    1
   147    41    40   ar
   148     6     5    1
   149    38    40   ar
   150     5     2    1
   151     5     7    1
   152    97    98    1
   153    97    96    1
   154     2     1    1
   155    98    99    2
