@<TRIPOS>MOLECULE
tmp/3r79B00.pdb
 90 80 0 0 0
SMALL
GASTEIGER

@<TRIPOS>ATOM
      1  N         13.5690  142.7670   -6.8490 N.3    32  VAL32      -0.1245
      2  CA        12.6870  142.2070   -7.8760 C.3    32  VAL32       0.1561
      3  C         11.2730  142.0550   -7.3460 C.2    32  VAL32       0.2260
      4  O         10.9900  141.1940   -6.5160 O.2    32  VAL32      -0.2867
      5  CB        13.2150  140.8460   -8.3720 C.3    32  VAL32       0.0252
      6  CG1       12.2800  140.2780   -9.4450 C.3    32  VAL32       0.0019
      7  CG2       14.6210  141.0240   -8.9230 C.3    32  VAL32       0.0019
      8  N          8.3090  141.3780   -9.1880 N.3    34  LYS34      -0.1245
      9  CA         7.2900  140.6990   -9.9820 C.3    34  LYS34       0.1561
     10  C          6.2650  139.9650   -9.1130 C.2    34  LYS34       0.2260
     11  O          6.6220  139.3000   -8.1340 O.2    34  LYS34      -0.2867
     12  CB         7.9280  139.7410  -11.0020 C.3    34  LYS34       0.0271
     13  CG         8.8560  138.6840  -10.4500 C.3    34  LYS34       0.0035
     14  CD         8.9450  137.5350  -11.4500 C.3    34  LYS34       0.0206
     15  CE         9.9370  136.4660  -11.0330 C.3    34  LYS34       0.1093
     16  NZ        11.2180  137.0900  -11.2530 N.3    34  LYS34      -0.1314
     17  N         10.1900  141.5050  -14.6630 N.3    55  ASN55      -0.1240
     18  CA        10.5820  140.6940  -15.8090 C.3    55  ASN55       0.1653
     19  C          9.5590  140.7160  -16.9440 C.2    55  ASN55       0.2266
     20  O          9.7750  140.0880  -17.9750 O.2    55  ASN55      -0.2867
     21  CB        10.8570  139.2500  -15.3710 C.3    55  ASN55       0.1155
     22  CG         9.5920  138.4830  -15.0790 C.2    55  ASN55       0.2627
     23  OD1        8.6190  139.0440  -14.5860 O.2    55  ASN55      -0.2716
     24  ND2        9.6020  137.1860  -15.3670 N.am   55  ASN55      -0.0877
     25  N         14.1410  142.8740  -16.4880 N.3    79  ILE79      -0.1231
     26  CA        15.0650  141.7560  -16.3950 C.3    79  ILE79       0.1692
     27  C         14.5970  140.4600  -17.0430 C.2    79  ILE79       0.2592
     28  O         15.2220  139.4150  -16.8660 O.2    79  ILE79      -0.2718
     29  CB        15.4380  141.4920  -14.9210 C.3    79  ILE79       0.0266
     30  CG1       14.1860  141.1320  -14.1080 C.3    79  ILE79       0.0019
     31  CG2       16.0950  142.7350  -14.3450 C.3    79  ILE79       0.0020
     32  CD1       14.4520  140.8890  -12.6310 C.3    79  ILE79       0.0001
     33  N         13.5120  140.5360  -17.8030 N.am   80  GLY80      -0.1957
     34  CA        12.9980  139.3500  -18.4730 C.3    80  GLY80       0.1869
     35  C         13.0570  139.5620  -19.9720 C.2    80  GLY80       0.2309
     36  O         13.3480  140.6760  -20.4150 O.2    80  GLY80      -0.2863
     37  N         21.7830  134.3200  -16.1900 N.3   160  ILE160     -0.1245
     38  CA        20.9090  133.5300  -15.3360 C.3   160  ILE160      0.1561
     39  C         21.4620  132.1080  -15.4590 C.2   160  ILE160      0.2260
     40  O         21.1420  131.3870  -16.4010 O.2   160  ILE160     -0.2867
     41  CB        19.4490  133.5780  -15.8440 C.3   160  ILE160      0.0252
     42  CG1       18.9470  135.0300  -15.8160 C.3   160  ILE160      0.0019
     43  CG2       18.5660  132.6860  -14.9900 C.3   160  ILE160      0.0019
     44  CD1       17.5730  135.2270  -16.4220 C.3   160  ILE160      0.0001
     45  N         23.3850  136.9480   -9.8170 N.3   187  GLY187     -0.1225
     46  CA        23.0960  136.6110   -8.4390 C.3   187  GLY187      0.1811
     47  C         21.6680  136.9520   -8.0830 C.2   187  GLY187      0.2280
     48  O         21.2080  138.0590   -8.3530 O.2   187  GLY187     -0.2866
     49  N         18.2480  135.6860   -5.0990 N.3   188  SER188     -0.1202
     50  CA        18.0640  135.3450   -3.6910 C.3   188  SER188      0.2020
     51  C         18.9030  134.1820   -3.1780 C.2   188  SER188      0.2619
     52  O         19.4360  134.2390   -2.0700 O.2   188  SER188     -0.2717
     53  CB        16.5870  135.0520   -3.3910 C.3   188  SER188      0.2103
     54  OG        15.8350  136.2450   -3.2540 O.3   188  SER188     -0.2182
     55  N         19.0280  133.1330   -3.9810 N.am  189  GLY189     -0.1956
     56  CA        19.7700  131.9620   -3.5410 C.3   189  GLY189      0.1869
     57  C         21.2830  131.9520   -3.6510 C.2   189  GLY189      0.2309
     58  O         21.9320  131.1240   -3.0140 O.2   189  GLY189     -0.2863
     59  N         20.0900  140.6570   -8.2330 N.3   203  ARG203     -0.1245
     60  CA        18.6520  140.7650   -8.4240 C.3   203  ARG203      0.1563
     61  C         17.9620  139.8610   -7.4170 C.2   203  ARG203      0.2260
     62  O         17.8290  138.6650   -7.6320 O.2   203  ARG203     -0.2867
     63  CB        18.3300  140.3800   -9.8690 C.3   203  ARG203      0.0307
     64  CG        19.3010  141.0220  -10.8820 C.3   203  ARG203      0.0489
     65  CD        18.9530  140.7000  -12.3350 C.3   203  ARG203      0.2205
     66  NE        18.8040  139.2690  -12.5690 N.pl3 203  ARG203     -0.0865
     67  CZ        19.7870  138.4320  -12.8900 C.cat 203  ARG203      0.5346
     68  NH1       21.0310  138.8620  -13.0380 N.pl3 203  ARG203      0.1354
     69  NH2       19.5200  137.1430  -13.0400 N.pl3 203  ARG203      0.1354
     70  N         14.6370  138.8930   -5.1240 N.3   205  GLY205     -0.1210
     71  CA        13.1970  139.0020   -5.0050 C.3   205  GLY205      0.1956
     72  C         12.6080  138.3630   -3.7520 C.2   205  GLY205      0.2612
     73  O         12.2640  139.0580   -2.7900 O.2   205  GLY205     -0.2717
     74  N         12.4950  137.0360   -3.7530 N.am  206  SER206     -0.1952
     75  CA        11.9090  136.3240   -2.6180 C.3   206  SER206      0.1924
     76  C         12.5150  136.6710   -1.2580 C.2   206  SER206      0.2314
     77  O         11.7900  136.7860   -0.2620 O.2   206  SER206     -0.2863
     78  CB        11.9800  134.8070   -2.8470 C.3   206  SER206      0.2116
     79  OG        13.3140  134.3490   -2.8550 O.3   206  SER206     -0.2180
     80  N          6.6420  133.9700   -3.9320 N.3   212  ARG212     -0.1245
     81  CA         5.7640  134.3600   -5.0260 C.3   212  ARG212      0.1563
     82  C          4.5710  133.4090   -5.1480 C.2   212  ARG212      0.2260
     83  O          3.4580  133.8430   -5.4330 O.2   212  ARG212     -0.2867
     84  CB         6.5480  134.4310   -6.3490 C.3   212  ARG212      0.0307
     85  CG         7.3480  135.7270   -6.5120 C.3   212  ARG212      0.0489
     86  CD         8.0250  135.8010   -7.8770 C.3   212  ARG212      0.2205
     87  NE         9.0550  134.7760   -8.0240 N.pl3 212  ARG212     -0.0865
     88  CZ        10.2980  134.8880   -7.5650 C.cat 212  ARG212      0.5346
     89  NH1       10.6780  135.9910   -6.9290 N.pl3 212  ARG212      0.1354
     90  NH2       11.1610  133.8910   -7.7280 N.pl3 212  ARG212      0.1354
@<TRIPOS>BOND
     1    36    35    2
     2    35    34    1
     3    34    33    1
     4    20    19    2
     5    33    27   am
     6    27    28    2
     7    27    26    1
     8    19    18    1
     9    25    26    1
    10    44    42    1
    11    40    39    2
    12    26    29    1
    13    37    38    1
    14    41    42    1
    15    41    38    1
    16    41    43    1
    17    18    21    1
    18    18    17    1
    19    39    38    1
    20    21    22    1
    21    24    22   am
    22    22    23    2
    23    29    31    1
    24    29    30    1
    25    30    32    1
    26    69    67    1
    27    68    67    1
    28    67    66    2
    29    66    65    1
    30    65    64    1
    31    14    15    1
    32    14    13    1
    33    16    15    1
    34    12    13    1
    35    12     9    1
    36    64    63    1
    37     9     8    1
    38     9    10    1
    39    63    60    1
    40    45    46    1
    41     6     5    1
    42    10    11    2
    43     7     5    1
    44    46    47    1
    45    60    59    1
    46    60    61    1
    47     5     2    1
    48    48    47    2
    49    87    86    1
    50    87    88    2
    51    86    85    1
    52     2     3    1
    53     2     1    1
    54    90    88    1
    55    62    61    2
    56    88    89    1
    57     3     4    2
    58    85    84    1
    59    84    81    1
    60    83    82    2
    61    82    81    1
    62    70    71    1
    63    49    50    1
    64    81    80    1
    65    71    72    1
    66    55    56    1
    67    55    51   am
    68    74    72   am
    69    74    75    1
    70    72    73    2
    71    50    53    1
    72    50    51    1
    73    57    56    1
    74    57    58    2
    75    53    54    1
    76    51    52    2
    77    79    78    1
    78    78    75    1
    79    75    76    1
    80    76    77    2
