@<TRIPOS>MOLECULE
tmp/3r7aB00.pdb
 137 132 0 0 0
SMALL
GASTEIGER

@<TRIPOS>ATOM
      1  N        -17.2250   33.5660    6.5560 N.3    13  ARG13      -0.1231
      2  CA       -17.8630   32.4030    5.9760 C.3    13  ARG13       0.1694
      3  C        -19.1130   32.1730    6.7900 C.2    13  ARG13       0.2592
      4  O        -19.0820   32.3050    8.0270 O.2    13  ARG13      -0.2718
      5  CB       -16.9490   31.1620    6.0100 C.3    13  ARG13       0.0321
      6  CG       -17.5950   29.9340    5.3340 C.3    13  ARG13       0.0489
      7  CD       -16.6540   28.7160    5.1970 C.3    13  ARG13       0.2205
      8  NE       -17.4230   27.5800    4.6650 N.pl3  13  ARG13      -0.0865
      9  CZ       -17.2800   26.3060    5.0060 C.cat  13  ARG13       0.5346
     10  NH1      -16.3640   25.9360    5.9000 N.pl3  13  ARG13       0.1354
     11  NH2      -18.0960   25.3970    4.4610 N.pl3  13  ARG13       0.1354
     12  N        -20.2120   31.8250    6.1150 N.am   14  HIS14      -0.1976
     13  CA       -21.4550   31.5050    6.8180 C.3    14  HIS14       0.1656
     14  C        -21.2920   30.3020    7.7660 C.2    14  HIS14       0.2291
     15  O        -20.2940   29.5460    7.6810 O.2    14  HIS14      -0.2864
     16  CB       -22.5660   31.1860    5.8220 C.3    14  HIS14       0.0771
     17  CG       -22.1960   30.0820    4.8700 C.ar   14  HIS14       0.0820
     18  ND1      -22.1890   28.7550    5.2440 N.ar   14  HIS14      -0.2267
     19  CD2      -21.7720   30.1160    3.5850 C.ar   14  HIS14       0.1154
     20  CE1      -21.7880   28.0140    4.2260 C.ar   14  HIS14       0.1986
     21  NE2      -21.5430   28.8120    3.2020 N.ar   14  HIS14      -0.2212
     22  N        -23.1250   20.9880    4.4260 N.3    20  ASN20      -0.1240
     23  CA       -21.7640   20.9500    4.9640 C.3    20  ASN20       0.1653
     24  C        -21.6130   19.7300    5.8730 C.2    20  ASN20       0.2266
     25  O        -20.6190   18.9640    5.7760 O.2    20  ASN20      -0.2867
     26  CB       -21.4310   22.2070    5.7940 C.3    20  ASN20       0.1155
     27  CG       -21.2370   23.4710    4.9390 C.2    20  ASN20       0.2627
     28  OD1      -20.7820   23.4350    3.7680 O.2    20  ASN20      -0.2716
     29  ND2      -21.5690   24.5930    5.5280 N.am   20  ASN20      -0.0877
     30  N        -21.4330   17.3120    1.2510 N.3    24  ARG24      -0.1231
     31  CA       -21.8560   17.4370   -0.1510 C.3    24  ARG24       0.1694
     32  C        -21.5050   18.7930   -0.6990 C.2    24  ARG24       0.2592
     33  O        -21.4420   19.7850    0.0290 O.2    24  ARG24      -0.2718
     34  CB       -23.3810   17.1950   -0.2550 C.3    24  ARG24       0.0321
     35  CG       -23.7580   15.7010   -0.1010 C.3    24  ARG24       0.0489
     36  CD       -25.2850   15.5240   -0.0960 C.3    24  ARG24       0.2205
     37  NE       -25.5750   14.1050    0.1260 N.pl3  24  ARG24      -0.0865
     38  CZ       -25.6680   13.1890   -0.8200 C.cat  24  ARG24       0.5346
     39  NH1      -25.5080   13.5270   -2.1040 N.pl3  24  ARG24       0.1354
     40  NH2      -25.9290   11.9270   -0.4690 N.pl3  24  ARG24       0.1354
     41  N        -21.3480   18.8460   -2.0180 N.am   25  ALA25      -0.1966
     42  CA       -20.9450   20.0510   -2.6910 C.3    25  ALA25       0.1728
     43  C        -22.0850   21.0620   -2.6460 C.2    25  ALA25       0.2616
     44  O        -23.2250   20.7590   -3.0340 O.2    25  ALA25      -0.2715
     45  CB       -20.5440   19.7270   -4.1490 C.3    25  ALA25       0.0334
     46  N        -21.7770   22.2410   -2.1150 N.am   26  GLN26      -0.1977
     47  CA       -22.7640   23.2810   -1.8590 C.3    26  GLN26       0.1601
     48  C        -22.2050   24.5770   -2.4120 C.2    26  GLN26       0.2287
     49  O        -21.5020   25.3080   -1.7110 O.2    26  GLN26      -0.2864
     50  CB       -22.9970   23.3890   -0.3500 C.3    26  GLN26       0.0394
     51  CG       -24.0370   24.4380    0.0460 C.3    26  GLN26       0.0908
     52  CD       -24.0870   24.5820    1.5510 C.2    26  GLN26       0.2608
     53  OE1      -23.1090   25.0290    2.1910 O.2    26  GLN26      -0.2717
     54  NE2      -25.1850   24.1730    2.1290 N.am   26  GLN26      -0.0878
     55  N        -28.1100   30.2240    3.2460 N.3    62  ARG62      -0.1245
     56  CA       -27.1420   30.0300    4.3240 C.3    62  ARG62       0.1563
     57  C        -26.4320   31.3160    4.7300 C.2    62  ARG62       0.2260
     58  O        -26.1960   31.5450    5.9350 O.2    62  ARG62      -0.2867
     59  CB       -26.1070   28.9450    3.9820 C.3    62  ARG62       0.0307
     60  CG       -25.1730   29.2530    2.7630 C.3    62  ARG62       0.0489
     61  CD       -24.5760   27.9270    2.3210 C.3    62  ARG62       0.2205
     62  NE       -23.6120   27.9610    1.2280 N.pl3  62  ARG62      -0.0865
     63  CZ       -23.9400   27.9330   -0.0610 C.cat  62  ARG62       0.5346
     64  NH1      -25.2240   27.9870   -0.4040 N.pl3  62  ARG62       0.1354
     65  NH2      -22.9900   27.8440   -1.0120 N.pl3  62  ARG62       0.1354
     66  N        -20.9200   31.3880   -3.9480 N.3    89  GLU89      -0.1245
     67  CA       -19.8480   30.4210   -3.9730 C.3    89  GLU89       0.1567
     68  C        -19.6370   29.9300   -5.4150 C.2    89  GLU89       0.2260
     69  O        -20.4520   30.2060   -6.3070 O.2    89  GLU89      -0.2867
     70  CB       -20.2000   29.2690   -3.0200 C.3    89  GLU89       0.0388
     71  CG       -19.1830   28.0960   -2.9100 C.3    89  GLU89       0.1160
     72  CD       -17.8010   28.4850   -2.3950 C.2    89  GLU89       0.3649
     73  OE1      -17.2130   29.4350   -2.9280 O.co2  89  GLU89      -0.2457
     74  OE2      -17.2680   27.8040   -1.4680 O.co2  89  GLU89      -0.2457
     75  N        -20.6940   24.6580   -8.8510 N.3    92  PHE92      -0.1241
     76  CA       -20.1020   23.3180   -9.0350 C.3    92  PHE92       0.1605
     77  C        -20.6980   22.5740  -10.2200 C.2    92  PHE92       0.2264
     78  O        -20.3180   21.4340  -10.4900 O.2    92  PHE92      -0.2867
     79  CB       -20.2210   22.4650   -7.7600 C.3    92  PHE92       0.0534
     80  CG       -19.3700   22.9480   -6.6100 C.ar   92  PHE92      -0.0203
     81  CD1      -17.9740   22.7870   -6.6210 C.ar   92  PHE92      -0.0042
     82  CD2      -19.9680   23.4910   -5.4700 C.ar   92  PHE92      -0.0042
     83  CE1      -17.1680   23.2130   -5.5240 C.ar   92  PHE92      -0.0003
     84  CE2      -19.1710   23.9410   -4.3470 C.ar   92  PHE92      -0.0003
     85  CZ       -17.7650   23.7750   -4.3880 C.ar   92  PHE92      -0.0000
     86  N        -18.9680   15.1460   -1.7250 N.3   100  LEU100     -0.1245
     87  CA       -17.6320   15.6600   -2.0610 C.3   100  LEU100      0.1561
     88  C        -16.6280   14.5840   -2.4890 C.2   100  LEU100      0.2260
     89  O        -15.8740   14.7980   -3.4280 O.2   100  LEU100     -0.2867
     90  CB       -17.0690   16.5020   -0.9250 C.3   100  LEU100      0.0270
     91  CG       -17.8170   17.8530   -0.7790 C.3   100  LEU100      0.0019
     92  CD1      -17.4910   18.4410    0.5770 C.3   100  LEU100      0.0001
     93  CD2      -17.4200   18.7790   -1.9480 C.3   100  LEU100      0.0001
     94  N        -14.7280   14.6720   -6.0830 N.3   103  TRP103     -0.1241
     95  CA       -13.2690   14.6500   -6.2460 C.3   103  TRP103      0.1605
     96  C        -12.8010   13.4100   -7.0180 C.2   103  TRP103      0.2264
     97  O        -11.8760   13.4970   -7.8260 O.2   103  TRP103     -0.2867
     98  CB       -12.5520   14.7730   -4.8850 C.3   103  TRP103      0.0550
     99  CG       -12.7260   16.1230   -4.2410 C.ar  103  TRP103      0.0003
    100  CD1      -13.1880   16.3820   -2.9690 C.ar  103  TRP103      0.0946
    101  CD2      -12.4550   17.4090   -4.8390 C.ar  103  TRP103      0.0152
    102  NE1      -13.2190   17.7540   -2.7450 N.ar  103  TRP103     -0.2442
    103  CE2      -12.7770   18.4020   -3.8720 C.ar  103  TRP103      0.0810
    104  CE3      -11.9840   17.8200   -6.1010 C.ar  103  TRP103      0.0012
    105  CZ2      -12.6240   19.7870   -4.1270 C.ar  103  TRP103      0.0191
    106  CZ3      -11.8440   19.2000   -6.3570 C.ar  103  TRP103      0.0001
    107  CH2      -12.1650   20.1600   -5.3690 C.ar  103  TRP103      0.0015
    108  N        -18.5150   32.6500    1.3580 N.3   173  HIS173     -0.1226
    109  CA       -18.3630   31.1950    1.1740 C.3   173  HIS173      0.1752
    110  C        -16.8930   30.7650    1.0990 C.2   173  HIS173      0.2597
    111  O        -16.0180   31.5790    0.7780 O.2   173  HIS173     -0.2718
    112  CB       -19.0890   30.8010   -0.1360 C.3   173  HIS173      0.0759
    113  CG       -20.5290   31.2270   -0.1500 C.ar  173  HIS173      0.0818
    114  ND1      -21.5200   30.4940    0.4630 N.ar  173  HIS173     -0.2268
    115  CD2      -21.1300   32.3450   -0.6460 C.ar  173  HIS173      0.1154
    116  CE1      -22.6760   31.1430    0.3540 C.ar  173  HIS173      0.1986
    117  NE2      -22.4590   32.2780   -0.3000 N.ar  173  HIS173     -0.2212
    118  N        -16.6340   29.4790    1.3440 N.am  174  GLY174     -0.1942
    119  CA       -15.2590   28.9540    1.5110 C.3   174  GLY174      0.2014
    120  C        -14.3260   29.1170    0.3350 C.2   174  GLY174      0.2638
    121  O        -13.2240   29.6720    0.4750 O.2   174  GLY174     -0.2714
    122  N        -14.7140   28.6050   -0.8270 N.am  175  LEU175     -0.1977
    123  CA       -13.8520   28.7900   -1.9930 C.3   175  LEU175      0.1596
    124  C        -13.7200   30.2230   -2.4460 C.2   175  LEU175      0.2287
    125  O        -12.6460   30.6140   -2.8910 O.2   175  LEU175     -0.2864
    126  CB       -14.2790   27.9250   -3.1770 C.3   175  LEU175      0.0297
    127  CG       -14.0510   26.4330   -3.0240 C.3   175  LEU175      0.0022
    128  CD1      -14.4710   25.7750   -4.3380 C.3   175  LEU175      0.0001
    129  CD2      -12.5600   26.1000   -2.6670 C.3   175  LEU175      0.0001
    130  N         -6.9490   27.0010    2.1710 N.3   190  LEU190     -0.1245
    131  CA        -8.0780   26.2160    1.7170 C.3   190  LEU190      0.1561
    132  C         -8.8030   25.7300    2.9620 C.2   190  LEU190      0.2260
    133  O         -8.1750   25.3350    3.9510 O.2   190  LEU190     -0.2867
    134  CB        -7.6000   25.0070    0.9020 C.3   190  LEU190      0.0270
    135  CG        -8.7450   24.1290    0.3660 C.3   190  LEU190      0.0019
    136  CD1       -9.7510   24.9080   -0.5660 C.3   190  LEU190      0.0001
    137  CD2       -8.1740   22.8890   -0.3230 C.3   190  LEU190      0.0001
@<TRIPOS>BOND
     1    78    77    2
     2    77    76    1
     3    76    75    1
     4    76    79    1
     5    97    96    2
     6    79    80    1
     7    96    95    1
     8    81    80   ar
     9    81    83   ar
    10    80    82   ar
    11   106   104   ar
    12   106   107   ar
    13    69    68    2
    14    95    94    1
    15    95    98    1
    16   104   101   ar
    17    83    85   ar
    18    82    84   ar
    19    68    67    1
    20   107   105   ar
    21    98    99    1
    22   101    99   ar
    23   101   103   ar
    24    85    84   ar
    25   128   127    1
    26    99   100   ar
    27    45    42    1
    28   105   103   ar
    29    67    66    1
    30    67    70    1
    31   103   102   ar
    32    89    88    2
    33   126   127    1
    34   126   123    1
    35    44    43    2
    36   127   129    1
    37    70    71    1
    38   100   102   ar
    39    73    72   ar
    40    71    72    1
    41   125   124    2
    42    42    43    1
    43    42    41    1
    44    43    46   am
    45    88    87    1
    46   124   123    1
    47    48    47    1
    48    48    49    2
    49    72    74   ar
    50    46    47    1
    51    39    38    1
    52    87    86    1
    53    87    90    1
    54    41    32   am
    55   123   122    1
    56    93    91    1
    57    47    50    1
    58    65    63    1
    59    90    91    1
    60   122   120   am
    61    38    40    1
    62    38    37    2
    63    91    92    1
    64    32    31    1
    65    32    33    2
    66   115   117   ar
    67   115   113   ar
    68   136   135    1
    69    64    63    1
    70    50    51    1
    71   137   135    1
    72   117   116   ar
    73    34    31    1
    74    34    35    1
    75    31    30    1
    76   113   112    1
    77   113   114   ar
    78   112   109    1
    79    35    36    1
    80    36    37    1
    81    63    62    2
    82    51    52    1
    83   120   121    2
    84   120   119    1
    85   116   114   ar
    86   135   134    1
    87   111   110    2
    88   134   131    1
    89   110   109    1
    90   110   118   am
    91   109   108    1
    92    62    61    1
    93   118   119    1
    94    52    54   am
    95    52    53    2
    96   131   130    1
    97   131   132    1
    98    61    60    1
    99    60    59    1
   100   132   133    2
   101    21    19   ar
   102    21    20   ar
   103    55    56    1
   104    19    17   ar
   105    28    27    2
   106    59    56    1
   107    20    18   ar
   108    56    57    1
   109    22    23    1
   110    11     9    1
   111     8     9    2
   112     8     7    1
   113    57    58    2
   114    17    18   ar
   115    17    16    1
   116    27    29   am
   117    27    26    1
   118    23    26    1
   119    23    24    1
   120     9    10    1
   121     7     6    1
   122     6     5    1
   123    25    24    2
   124    16    13    1
   125     2     5    1
   126     2     1    1
   127     2     3    1
   128    12     3   am
   129    12    13    1
   130     3     4    2
   131    13    14    1
   132    15    14    2
