@<TRIPOS>MOLECULE
tmp/3r7bC00.pdb
 82 77 0 0 0
SMALL
GASTEIGER

@<TRIPOS>ATOM
      1  N         -1.1490   28.5740   15.6010 N.3    44  GLU44      -0.1245
      2  CA         0.0920   29.0850   16.1820 C.3    44  GLU44       0.1567
      3  C          1.2830   28.1520   15.9430 C.2    44  GLU44       0.2260
      4  O          1.1750   26.9260   16.1460 O.2    44  GLU44      -0.2867
      5  CB        -0.1110   29.2920   17.6890 C.3    44  GLU44       0.0388
      6  CG        -1.1160   30.4050   18.0200 C.3    44  GLU44       0.1160
      7  CD        -2.5590   29.9040   18.2140 C.2    44  GLU44       0.3649
      8  OE1       -2.8170   28.6690   18.1690 O.co2  44  GLU44      -0.2457
      9  OE2       -3.4480   30.7640   18.4220 O.co2  44  GLU44      -0.2457
     10  N          4.2040   25.8640   16.4590 N.3    46  ARG46      -0.1231
     11  CA         4.3510   24.9360   17.5810 C.3    46  ARG46       0.1694
     12  C          5.7900   24.9060   18.1020 C.2    46  ARG46       0.2592
     13  O          6.5550   23.9880   17.8070 O.2    46  ARG46      -0.2718
     14  CB         3.8310   23.5230   17.1810 C.3    46  ARG46       0.0321
     15  CG         2.3330   23.4900   16.8800 C.3    46  ARG46       0.0489
     16  CD         1.7970   22.0700   16.4270 C.3    46  ARG46       0.2205
     17  NE         1.9290   21.1350   17.5350 N.pl3  46  ARG46      -0.0865
     18  CZ         2.8690   20.2000   17.6460 C.cat  46  ARG46       0.5346
     19  NH1        3.7750   20.0130   16.6870 N.pl3  46  ARG46       0.1354
     20  NH2        2.8870   19.4390   18.7440 N.pl3  46  ARG46       0.1354
     21  N          6.1740   25.9420   18.8650 N.am   47  SER47      -0.1952
     22  CA         7.4860   25.9790   19.5240 C.3    47  SER47       0.1924
     23  C          7.6690   24.7780   20.4130 C.2    47  SER47       0.2314
     24  O          6.7860   24.4650   21.2050 O.2    47  SER47      -0.2863
     25  CB         7.5870   27.2280   20.4220 C.3    47  SER47       0.2116
     26  OG         7.5040   28.3890   19.6210 O.3    47  SER47      -0.2180
     27  N         10.0560   17.4940   20.4290 N.3    52  ASP52      -0.1239
     28  CA         9.2060   16.2890   20.3980 C.3    52  ASP52       0.1674
     29  C          9.6370   15.3950   19.2470 C.2    52  ASP52       0.2266
     30  O          9.8200   14.1930   19.4010 O.2    52  ASP52      -0.2867
     31  CB         7.7440   16.6650   20.1720 C.3    52  ASP52       0.1410
     32  CG         7.1080   17.3440   21.3700 C.2    52  ASP52       0.3668
     33  OD1        7.6380   17.1950   22.4920 O.co2  52  ASP52      -0.2456
     34  OD2        6.0700   18.0360   21.1780 O.co2  52  ASP52      -0.2456
     35  N          0.6940   17.5910   15.8830 N.3   103  SER103     -0.1202
     36  CA         0.1170   18.7180   15.1700 C.3   103  SER103      0.2020
     37  C         -0.9000   19.4320   16.0400 C.2   103  SER103      0.2619
     38  O         -1.1170   19.0680   17.2020 O.2   103  SER103     -0.2717
     39  CB        -0.5530   18.2410   13.8580 C.3   103  SER103      0.2103
     40  OG        -0.8640   19.3550   13.0090 O.3   103  SER103     -0.2182
     41  N         -1.5210   20.4730   15.4820 N.am  104  HIS104     -0.1961
     42  CA        -2.7420   21.0140   16.0530 C.3   104  HIS104      0.1787
     43  C         -3.8630   20.0550   15.7230 C.2   104  HIS104      0.2620
     44  O         -3.7560   19.3120   14.7620 O.2   104  HIS104     -0.2715
     45  CB        -3.0250   22.3940   15.4800 C.3   104  HIS104      0.0785
     46  CG        -2.2050   23.4660   16.1190 C.ar  104  HIS104      0.0821
     47  ND1       -2.3140   23.7760   17.4570 N.ar  104  HIS104     -0.2267
     48  CD2       -1.2560   24.2890   15.6110 C.ar  104  HIS104      0.1154
     49  CE1       -1.4730   24.7580   17.7440 C.ar  104  HIS104      0.1986
     50  NE2       -0.8190   25.0840   16.6430 N.ar  104  HIS104     -0.2212
     51  N         -4.9160   20.0340   16.5310 N.am  105  GLY105     -0.1954
     52  CA        -6.0550   19.1770   16.1900 C.3   105  GLY105      0.1869
     53  C         -7.3470   19.6140   16.8250 C.2   105  GLY105      0.2309
     54  O         -7.3930   20.6130   17.5520 O.2   105  GLY105     -0.2863
     55  N         -0.2820   13.4310   19.4010 N.3   145  GLN145     -0.1231
     56  CA         0.0010   14.6460   20.1700 C.3   145  GLN145      0.1698
     57  C         -0.6910   15.7610   19.4170 C.2   145  GLN145      0.2592
     58  O         -0.1380   16.2870   18.4510 O.2   145  GLN145     -0.2718
     59  CB         1.5090   14.9330   20.2170 C.3   145  GLN145      0.0381
     60  CG         1.8710   16.2690   20.9110 C.3   145  GLN145      0.0905
     61  CD         1.4890   16.2720   22.3670 C.2   145  GLN145      0.2608
     62  OE1        1.8410   15.3560   23.0930 O.2   145  GLN145     -0.2717
     63  NE2        0.8010   17.3050   22.8030 N.am  145  GLN145     -0.0878
     64  N         -1.9070   16.0730   19.8530 N.am  146  ALA146     -0.1966
     65  CA        -2.7560   17.0970   19.2640 C.3   146  ALA146      0.1728
     66  C         -3.8540   17.4040   20.2700 C.2   146  ALA146      0.2616
     67  O         -4.2800   16.5120   21.0350 O.2   146  ALA146     -0.2715
     68  CB        -3.3660   16.6100   17.9290 C.3   146  ALA146      0.0334
     69  N         -4.3220   18.6400   20.2740 N.am  147  CYS147     -0.1968
     70  CA        -5.4900   19.0200   21.0810 C.3   147  CYS147      0.1712
     71  C         -6.7120   18.3220   20.5530 C.2   147  CYS147      0.2296
     72  O         -6.7900   18.0160   19.3560 O.2   147  CYS147     -0.2864
     73  CB        -5.7460   20.5200   20.9910 C.3   147  CYS147      0.0983
     74  SG        -4.4540   21.4440   21.8790 S.3   147  CYS147     -0.0798
     75  N        -10.7780   23.0090   22.5990 N.3   150  ASP150     -0.1239
     76  CA       -10.1120   24.1880   23.1510 C.3   150  ASP150      0.1674
     77  C        -10.5760   24.4940   24.5690 C.2   150  ASP150      0.2266
     78  O        -10.4400   25.6200   25.0430 O.2   150  ASP150     -0.2867
     79  CB       -10.3040   25.4100   22.2360 C.3   150  ASP150      0.1410
     80  CG        -9.3370   25.5230   21.1100 C.2   150  ASP150      0.3668
     81  OD1       -8.4100   24.7480   21.0050 O.co2 150  ASP150     -0.2456
     82  OD2       -9.5380   26.5270   20.3130 O.co2 150  ASP150     -0.2456
@<TRIPOS>BOND
     1    40    39    1
     2    39    36    1
     3    44    43    2
     4    36    35    1
     5    36    37    1
     6    45    42    1
     7    45    46    1
     8    41    37   am
     9    41    42    1
    10     1     2    1
    11    48    46   ar
    12    48    50   ar
    13    43    42    1
    14    43    51   am
    15     3     4    2
    16     3     2    1
    17    37    38    2
    18    46    47   ar
    19     2     5    1
    20    52    51    1
    21    52    53    1
    22    16    15    1
    23    16    17    1
    24    10    11    1
    25    50    49   ar
    26    19    18    1
    27    53    54    2
    28    15    14    1
    29    14    11    1
    30    47    49   ar
    31    17    18    2
    32    11    12    1
    33    18    20    1
    34     5     6    1
    35    13    12    2
    36    68    65    1
    37     6     7    1
    38    12    21   am
    39     8     7   ar
    40     7     9   ar
    41    58    57    2
    42    21    22    1
    43    29    30    2
    44    29    28    1
    45    65    64    1
    46    65    66    1
    47    72    71    2
    48    55    56    1
    49    57    64   am
    50    57    56    1
    51    22    23    1
    52    22    25    1
    53    26    25    1
    54    56    59    1
    55    31    28    1
    56    31    32    1
    57    59    60    1
    58    66    69   am
    59    66    67    2
    60    69    70    1
    61    82    80   ar
    62    28    27    1
    63    23    24    2
    64    71    70    1
    65    60    61    1
    66    73    70    1
    67    73    74    1
    68    81    80   ar
    69    80    79    1
    70    34    32   ar
    71    32    33   ar
    72    79    76    1
    73    61    63   am
    74    61    62    2
    75    75    76    1
    76    76    77    1
    77    77    78    2
