@<TRIPOS>MOLECULE
tmp/3r7bD00.pdb
 123 122 0 0 0
SMALL
GASTEIGER

@<TRIPOS>ATOM
      1  N         -7.5430   20.4970   25.6990 N.3    20  ALA20      -0.1231
      2  CA        -6.2620   20.8680   25.1180 C.3    20  ALA20       0.1694
      3  C         -5.1470   19.9350   25.5900 C.2    20  ALA20       0.2592
      4  O         -5.1470   19.4910   26.7430 O.2    20  ALA20      -0.2718
      5  CB        -5.9250   22.3050   25.4750 C.3    20  ALA20       0.0304
      6  N         -4.2100   19.6260   24.6900 N.am   21  ALA21      -0.1966
      7  CA        -2.9450   18.9680   25.0690 C.3    21  ALA21       0.1728
      8  C         -1.9430   20.0850   25.3170 C.2    21  ALA21       0.2616
      9  O         -2.0030   21.1250   24.6570 O.2    21  ALA21      -0.2715
     10  CB        -2.4560   18.0810   23.9570 C.3    21  ALA21       0.0334
     11  N         -1.0440   19.8870   26.2740 N.am   22  MET22      -0.1963
     12  CA        -0.1660   20.9690   26.6980 C.3    22  MET22       0.1736
     13  C          1.2460   20.7670   26.1690 C.2    22  MET22       0.2616
     14  O          1.7260   19.6430   26.0490 O.2    22  MET22      -0.2715
     15  CB        -0.1510   21.0890   28.2210 C.3    22  MET22       0.0427
     16  CG        -1.5140   21.4300   28.8190 C.3    22  MET22       0.0599
     17  SD        -2.2690   22.8640   28.0010 S.3    22  MET22      -0.1393
     18  CE        -1.1340   24.1540   28.5560 C.3    22  MET22       0.0692
     19  N          1.8990   21.8690   25.8420 N.am   23  ARG23      -0.1963
     20  CA         3.2430   21.8220   25.3180 C.3    23  ARG23       0.1729
     21  C          4.0640   22.9390   25.9310 C.2    23  ARG23       0.2616
     22  O          3.6530   24.0900   25.9630 O.2    23  ARG23      -0.2715
     23  CB         3.2270   21.9230   23.7890 C.3    23  ARG23       0.0348
     24  CG         4.5940   22.0950   23.1190 C.3    23  ARG23       0.0492
     25  CD         4.4790   22.0020   21.5750 C.3    23  ARG23       0.2205
     26  NE         3.2430   22.5980   21.0800 N.pl3  23  ARG23      -0.0865
     27  CZ         3.0210   23.9000   20.8840 C.cat  23  ARG23       0.5346
     28  NH1        3.9550   24.8130   21.1270 N.pl3  23  ARG23       0.1354
     29  NH2        1.8310   24.2870   20.4610 N.pl3  23  ARG23       0.1354
     30  N          5.2200   22.5780   26.4320 N.am   24  ASN24      -0.1958
     31  CA         6.1330   23.5420   26.9630 C.3    24  ASN24       0.1819
     32  C          6.9910   24.0450   25.8080 C.2    24  ASN24       0.2621
     33  O          7.5860   23.2600   25.0790 O.2    24  ASN24      -0.2715
     34  CB         6.9770   22.8800   28.0360 C.3    24  ASN24       0.1195
     35  CG         7.8960   23.8480   28.6970 C.2    24  ASN24       0.2630
     36  OD1        9.0380   24.0290   28.2660 O.2    24  ASN24      -0.2716
     37  ND2        7.3900   24.5280   29.7220 N.am   24  ASN24      -0.0877
     38  N          7.0520   25.3540   25.6170 N.am   25  THR25      -0.1951
     39  CA         7.7800   25.8890   24.4490 C.3    25  THR25       0.1897
     40  C          9.2590   25.5130   24.4100 C.2    25  THR25       0.2313
     41  O          9.9000   25.6360   23.3520 O.2    25  THR25      -0.2863
     42  CB         7.6250   27.4240   24.3270 C.3    25  THR25       0.1794
     43  OG1        7.9790   28.0290   25.5750 O.3    25  THR25      -0.2208
     44  CG2        6.1750   27.7800   23.9800 C.3    25  THR25       0.0378
     45  N          6.1470   18.7930   24.2810 N.3    29  SER29      -0.1202
     46  CA         4.8430   18.4230   24.8350 C.3    29  SER29       0.2020
     47  C          4.9860   17.5780   26.0900 C.2    29  SER29       0.2618
     48  O          5.9080   16.7550   26.1930 O.2    29  SER29      -0.2717
     49  CB         4.0050   17.6830   23.7890 C.3    29  SER29       0.2103
     50  OG         3.8710   18.3310   22.6160 O.3    29  SER29      -0.2182
     51  N          4.0640   17.7650   27.0260 N.am   30  TRP30      -0.1975
     52  CA         4.0950   17.0030   28.2760 C.3    30  TRP30       0.1640
     53  C          4.0320   15.5020   27.9640 C.2    30  TRP30       0.2290
     54  O          4.7380   14.7080   28.5710 O.2    30  TRP30      -0.2864
     55  CB         2.8930   17.3340   29.1280 C.3    30  TRP30       0.0576
     56  CG         2.8280   18.7310   29.6530 C.ar   30  TRP30       0.0006
     57  CD1        3.6250   19.7950   29.3270 C.ar   30  TRP30       0.0946
     58  CD2        1.8730   19.2090   30.6110 C.ar   30  TRP30       0.0152
     59  NE1        3.1950   20.9260   30.0190 N.ar   30  TRP30      -0.2442
     60  CE2        2.1370   20.5810   30.8220 C.ar   30  TRP30       0.0810
     61  CE3        0.8020   18.6100   31.2880 C.ar   30  TRP30       0.0012
     62  CZ2        1.3730   21.3660   31.7090 C.ar   30  TRP30       0.0191
     63  CZ3        0.0350   19.3890   32.1780 C.ar   30  TRP30       0.0001
     64  CH2        0.3220   20.7580   32.3680 C.ar   30  TRP30       0.0015
     65  N          1.3100   16.5180   36.5910 N.3    62  ARG62      -0.1231
     66  CA         1.8840   17.7460   36.0430 C.3    62  ARG62       0.1694
     67  C          0.9190   18.9210   36.1180 C.2    62  ARG62       0.2592
     68  O         -0.3090   18.7710   36.0350 O.2    62  ARG62      -0.2718
     69  CB         2.3550   17.5180   34.5990 C.3    62  ARG62       0.0321
     70  CG         3.1880   18.6710   34.0760 C.3    62  ARG62       0.0489
     71  CD         4.2890   18.1640   33.1910 C.3    62  ARG62       0.2205
     72  NE         4.9900   19.2970   32.6190 N.pl3  62  ARG62      -0.0865
     73  CZ         5.8540   19.2040   31.6280 C.cat  62  ARG62       0.5346
     74  NH1        6.1280   18.0110   31.1200 N.pl3  62  ARG62       0.1354
     75  NH2        6.4420   20.2990   31.1610 N.pl3  62  ARG62       0.1354
     76  N          1.4840   20.1220   36.2390 N.am   63  GLU63      -0.1966
     77  CA         0.6600   21.3160   36.2790 C.3    63  GLU63       0.1733
     78  C          1.2870   22.4460   35.4420 C.2    63  GLU63       0.2617
     79  O          2.5130   22.5790   35.3850 O.2    63  GLU63      -0.2715
     80  CB         0.5320   21.7460   37.7310 C.3    63  GLU63       0.0429
     81  CG        -0.4180   22.8100   37.9890 C.3    63  GLU63       0.1163
     82  CD        -0.3580   23.2000   39.4470 C.2    63  GLU63       0.3649
     83  OE1       -1.0920   22.5690   40.2260 O.co2  63  GLU63      -0.2457
     84  OE2        0.4320   24.1200   39.8000 O.co2  63  GLU63      -0.2457
     85  N          0.4400   23.2330   34.7980 N.am   64  GLY64      -0.1940
     86  CA         0.9020   24.2610   33.8680 C.3    64  GLY64       0.2014
     87  C          1.5810   25.3980   34.6310 C.2    64  GLY64       0.2639
     88  O          1.1460   25.7620   35.7120 O.2    64  GLY64      -0.2714
     89  N          2.6880   25.8810   34.0920 N.am   65  TYR65      -0.1959
     90  CA         3.3150   27.0900   34.5890 C.3    65  TYR65       0.1771
     91  C          3.2750   28.0830   33.4200 C.2    65  TYR65       0.2619
     92  O          3.9440   27.8930   32.4000 O.2    65  TYR65      -0.2715
     93  CB         4.7550   26.8410   35.0720 C.3    65  TYR65       0.0574
     94  CG         5.3590   28.1270   35.6020 C.ar   65  TYR65      -0.0198
     95  CD1        5.1180   28.5470   36.9160 C.ar   65  TYR65      -0.0009
     96  CD2        6.1090   28.9550   34.7660 C.ar   65  TYR65      -0.0009
     97  CE1        5.6340   29.7570   37.3850 C.ar   65  TYR65       0.0417
     98  CE2        6.6220   30.1680   35.2270 C.ar   65  TYR65       0.0417
     99  CZ         6.3860   30.5470   36.5350 C.ar   65  TYR65       0.1957
    100  OH         6.9100   31.7410   36.9810 O.3    65  TYR65      -0.2866
    101  N          2.4350   29.0980   33.5540 N.am   66  ALA66      -0.1977
    102  CA         2.3020   30.1170   32.5130 C.3    66  ALA66       0.1597
    103  C          1.5690   31.3120   33.1060 C.2    66  ALA66       0.2287
    104  O          0.4660   31.6130   32.7000 O.2    66  ALA66      -0.2864
    105  CB         1.5050   29.5460   31.3300 C.3    66  ALA66       0.0319
    106  N         -1.5060   33.9580   31.8930 N.3    69  THR69      -0.1218
    107  CA        -2.2010   33.3990   30.7250 C.3    69  THR69       0.1862
    108  C         -3.3020   32.4770   31.2020 C.2    69  THR69       0.2287
    109  O         -3.3680   32.1420   32.3910 O.2    69  THR69      -0.2866
    110  CB        -1.2790   32.5530   29.8020 C.3    69  THR69       0.1770
    111  OG1       -1.0260   31.2830   30.4220 O.3    69  THR69      -0.2211
    112  CG2        0.0630   33.2450   29.4900 C.3    69  THR69       0.0375
    113  N         -3.4990   29.4270   30.8440 N.3    71  PHE71      -0.1241
    114  CA        -3.0110   28.0930   31.1480 C.3    71  PHE71       0.1605
    115  C         -2.2850   27.9270   32.4560 C.2    71  PHE71       0.2264
    116  O         -1.8010   26.8320   32.7630 O.2    71  PHE71      -0.2867
    117  CB        -2.1550   27.6010   29.9870 C.3    71  PHE71       0.0534
    118  CG        -2.9560   27.4220   28.7440 C.ar   71  PHE71      -0.0203
    119  CD1       -3.9180   26.4170   28.6800 C.ar   71  PHE71      -0.0042
    120  CD2       -2.8260   28.3150   27.6830 C.ar   71  PHE71      -0.0042
    121  CE1       -4.7120   26.2580   27.5450 C.ar   71  PHE71      -0.0003
    122  CE2       -3.6170   28.1630   26.5270 C.ar   71  PHE71      -0.0003
    123  CZ        -4.5620   27.1480   26.4700 C.ar   71  PHE71      -0.0000
@<TRIPOS>BOND
     1    29    27    1
     2    27    26    2
     3    27    28    1
     4    26    25    1
     5    25    24    1
     6    50    49    1
     7    24    23    1
     8    41    40    2
     9    23    20    1
    10    49    46    1
    11    10     7    1
    12    44    42    1
    13    45    46    1
    14    42    39    1
    15    42    43    1
    16    40    39    1
    17    39    38    1
    18     9     8    2
    19     6     7    1
    20     6     3   am
    21    46    47    1
    22     7     8    1
    23    33    32    2
    24     2     5    1
    25     2     3    1
    26     2     1    1
    27     8    11   am
    28    20    19    1
    29    20    21    1
    30     3     4    2
    31    38    32   am
    32    32    31    1
    33    19    13   am
    34    21    22    2
    35    21    30   am
    36    14    13    2
    37    47    48    2
    38    47    51   am
    39    13    12    1
    40    11    12    1
    41    30    31    1
    42   123   122   ar
    43   123   121   ar
    44   122   120   ar
    45    12    15    1
    46    31    34    1
    47    51    52    1
    48   121   119   ar
    49   120   118   ar
    50    53    52    1
    51    53    54    2
    52    17    18    1
    53    17    16    1
    54    34    35    1
    55    15    16    1
    56    36    35    2
    57    52    55    1
    58   119   118   ar
    59    35    37   am
    60   118   117    1
    61    55    56    1
    62    57    56   ar
    63    57    59   ar
    64   112   110    1
    65    56    58   ar
    66   110   111    1
    67   110   107    1
    68   117   114    1
    69    59    60   ar
    70    58    60   ar
    71    58    61   ar
    72   107   108    1
    73   107   106    1
    74    60    62   ar
    75   113   114    1
    76    74    73    1
    77   114   115    1
    78    75    73    1
    79   108   109    2
    80    61    63   ar
    81   105   102    1
    82    73    72    2
    83    62    64   ar
    84    63    64   ar
    85    92    91    2
    86   115   116    2
    87   102   103    1
    88   102   101    1
    89    72    71    1
    90   104   103    2
    91    71    70    1
    92    91   101   am
    93    91    90    1
    94    86    87    1
    95    86    85    1
    96    70    69    1
    97    89    90    1
    98    89    87   am
    99    90    93    1
   100    69    66    1
   101    87    88    2
   102    96    98   ar
   103    96    94   ar
   104    85    78   am
   105    93    94    1
   106    98    99   ar
   107    79    78    2
   108    78    77    1
   109    94    95   ar
   110    68    67    2
   111    66    67    1
   112    66    65    1
   113    67    76   am
   114    76    77    1
   115    77    80    1
   116    99   100    1
   117    99    97   ar
   118    95    97   ar
   119    80    81    1
   120    81    82    1
   121    82    84   ar
   122    82    83   ar
