@<TRIPOS>MOLECULE
tmp/3r7eA00.pdb
 167 157 0 0 0
SMALL
GASTEIGER

@<TRIPOS>ATOM
      1  N         68.0380   56.4330  -43.7920 N.3     8  GLU8       -0.1245
      2  CA        67.8180   55.7500  -42.5240 C.3     8  GLU8        0.1567
      3  C         68.4270   54.3540  -42.5240 C.2     8  GLU8        0.2260
      4  O         68.8290   53.8360  -43.5640 O.2     8  GLU8       -0.2867
      5  CB        66.3210   55.6430  -42.2120 C.3     8  GLU8        0.0388
      6  CG        65.5190   54.7880  -43.1780 C.3     8  GLU8        0.1160
      7  CD        64.0780   54.6140  -42.7320 C.2     8  GLU8        0.3649
      8  OE1       63.4190   55.6400  -42.4580 O.co2   8  GLU8       -0.2457
      9  OE2       63.6040   53.4580  -42.6590 O.co2   8  GLU8       -0.2457
     10  N         68.0390   50.6190  -42.4780 N.3    10  ILE10      -0.1231
     11  CA        67.0090   49.6410  -42.8000 C.3    10  ILE10       0.1692
     12  C         67.1780   48.4370  -41.8920 C.2    10  ILE10       0.2592
     13  O         66.2910   47.5890  -41.7930 O.2    10  ILE10      -0.2718
     14  CB        67.1100   49.1530  -44.2550 C.3    10  ILE10       0.0266
     15  CG1       66.9080   50.3140  -45.2250 C.3    10  ILE10       0.0019
     16  CG2       66.0570   48.0950  -44.5120 C.3    10  ILE10       0.0020
     17  CD1       67.0600   49.9100  -46.6810 C.3    10  ILE10       0.0001
     18  N         68.3320   48.3560  -41.2390 N.am   11  GLY11      -0.1957
     19  CA        68.5810   47.2440  -40.3460 C.3    11  GLY11       0.1869
     20  C         70.0310   46.8150  -40.2830 C.2    11  GLY11       0.2309
     21  O         70.9330   47.5380  -40.7110 O.2    11  GLY11      -0.2863
     22  N         71.6430   43.3920  -41.3150 N.3    13  GLY13      -0.1225
     23  CA        71.6510   42.0500  -41.8670 C.3    13  GLY13       0.1811
     24  C         72.6640   41.0780  -41.2950 C.2    13  GLY13       0.2280
     25  O         73.3860   41.3770  -40.3370 O.2    13  GLY13      -0.2866
     26  N         72.6730   47.9140  -43.0020 N.3    18  VAL18      -0.1245
     27  CA        72.0130   48.2870  -44.2520 C.3    18  VAL18       0.1561
     28  C         71.2780   49.6120  -44.1150 C.2    18  VAL18       0.2260
     29  O         70.5130   49.8170  -43.1740 O.2    18  VAL18      -0.2867
     30  CB        70.9720   47.2420  -44.6820 C.3    18  VAL18       0.0252
     31  CG1       70.4660   47.5720  -46.0800 C.3    18  VAL18       0.0019
     32  CG2       71.5660   45.8530  -44.6430 C.3    18  VAL18       0.0019
     33  N         69.0100   52.8480  -46.2000 N.3    20  LYS20      -0.1245
     34  CA        68.2170   53.2350  -47.3520 C.3    20  LYS20       0.1561
     35  C         68.9830   54.5090  -47.6740 C.2    20  LYS20       0.2260
     36  O         69.2750   55.2940  -46.7700 O.2    20  LYS20      -0.2867
     37  CB        66.7900   53.5780  -46.9430 C.3    20  LYS20       0.0271
     38  CG        65.9150   54.0230  -48.1090 C.3    20  LYS20       0.0035
     39  CD        64.5370   54.4420  -47.6120 C.3    20  LYS20       0.0206
     40  CE        63.6220   54.8210  -48.7800 C.3    20  LYS20       0.1093
     41  NZ        62.2350   55.1830  -48.3320 N.3    20  LYS20      -0.1314
     42  N         69.3520   50.5530  -51.5510 N.3    31  ALA31      -0.1245
     43  CA        69.6400   49.8840  -50.2950 C.3    31  ALA31       0.1562
     44  C         71.1550   49.7250  -50.3190 C.2    31  ALA31       0.2260
     45  O         71.7080   49.0750  -51.2170 O.2    31  ALA31      -0.2867
     46  CB        68.9590   48.5110  -50.2440 C.3    31  ALA31       0.0290
     47  N         74.4600   48.3400  -48.4390 N.3    33  LYS33      -0.1245
     48  CA        74.9130   47.3970  -47.4320 C.3    33  LYS33       0.1561
     49  C         76.4150   47.5220  -47.1790 C.2    33  LYS33       0.2260
     50  O         77.2280   47.3730  -48.0920 O.2    33  LYS33      -0.2867
     51  CB        74.5750   45.9710  -47.8790 C.3    33  LYS33       0.0271
     52  CG        74.6640   44.9230  -46.7710 C.3    33  LYS33       0.0035
     53  CD        74.2610   43.5480  -47.2960 C.3    33  LYS33       0.0206
     54  CE        74.2050   42.5000  -46.1790 C.3    33  LYS33       0.1093
     55  NZ        72.9860   42.6070  -45.3170 N.3    33  LYS33      -0.1314
     56  N         66.4460   40.7220  -56.7280 N.3    60  VAL60      -0.1245
     57  CA        66.8030   42.0910  -56.3570 C.3    60  VAL60       0.1561
     58  C         68.1090   42.4440  -57.0920 C.2    60  VAL60       0.2260
     59  O         69.1410   41.8130  -56.9000 O.2    60  VAL60      -0.2867
     60  CB        66.9900   42.2050  -54.8080 C.3    60  VAL60       0.0252
     61  CG1       67.5040   43.5840  -54.4050 C.3    60  VAL60       0.0019
     62  CG2       65.6520   41.9500  -54.1320 C.3    60  VAL60       0.0019
     63  N         72.0420   47.9270  -53.8420 N.3    76  PHE76      -0.1227
     64  CA        70.9450   47.1190  -54.3640 C.3    76  PHE76       0.1736
     65  C         69.7110   47.9430  -54.6970 C.2    76  PHE76       0.2595
     66  O         69.5070   49.0220  -54.1510 O.2    76  PHE76      -0.2718
     67  CB        70.5190   46.0830  -53.3110 C.3    76  PHE76       0.0547
     68  CG        71.5050   44.9740  -53.0970 C.ar   76  PHE76      -0.0202
     69  CD1       71.6080   43.9260  -54.0160 C.ar   76  PHE76      -0.0042
     70  CD2       72.2980   44.9480  -51.9510 C.ar   76  PHE76      -0.0042
     71  CE1       72.4780   42.8640  -53.7950 C.ar   76  PHE76      -0.0003
     72  CE2       73.1740   43.8910  -51.7150 C.ar   76  PHE76      -0.0003
     73  CZ        73.2650   42.8430  -52.6380 C.ar   76  PHE76      -0.0000
     74  N         68.8700   47.4130  -55.5810 N.am   77  GLU77      -0.1965
     75  CA        67.6200   48.1040  -55.8900 C.3    77  GLU77       0.1733
     76  C         66.8350   48.0430  -54.5700 C.2    77  GLU77       0.2616
     77  O         66.9670   47.0800  -53.7900 O.2    77  GLU77      -0.2715
     78  CB        66.8480   47.3940  -57.0260 C.3    77  GLU77       0.0429
     79  CG        66.0140   46.2200  -56.6090 C.3    77  GLU77       0.1163
     80  CD        65.1590   45.6230  -57.7450 C.2    77  GLU77       0.3649
     81  OE1       64.0100   46.0740  -57.9810 O.co2  77  GLU77      -0.2457
     82  OE2       65.6440   44.6950  -58.3990 O.co2  77  GLU77      -0.2457
     83  N         66.0360   49.0730  -54.3070 N.am   78  PHE78      -0.1960
     84  CA        65.2720   49.1610  -53.0660 C.3    78  PHE78       0.1771
     85  C         63.8110   48.7280  -53.2060 C.2    78  PHE78       0.2619
     86  O         63.1670   49.0440  -54.1980 O.2    78  PHE78      -0.2715
     87  CB        65.3380   50.6160  -52.5450 C.3    78  PHE78       0.0574
     88  CG        64.4960   50.8830  -51.3250 C.ar   78  PHE78      -0.0200
     89  CD1       63.1920   51.3710  -51.4490 C.ar   78  PHE78      -0.0042
     90  CD2       65.0120   50.6480  -50.0460 C.ar   78  PHE78      -0.0042
     91  CE1       62.4120   51.6250  -50.3280 C.ar   78  PHE78      -0.0003
     92  CE2       64.2470   50.8960  -48.9120 C.ar   78  PHE78      -0.0003
     93  CZ        62.9370   51.3870  -49.0480 C.ar   78  PHE78      -0.0000
     94  N         63.3200   47.9720  -52.2260 N.am   79  LEU79      -0.1963
     95  CA        61.9210   47.5670  -52.1720 C.3    79  LEU79       0.1728
     96  C         61.4920   47.9340  -50.7600 C.2    79  LEU79       0.2616
     97  O         62.2900   47.8460  -49.8190 O.2    79  LEU79      -0.2715
     98  CB        61.7250   46.0700  -52.4540 C.3    79  LEU79       0.0311
     99  CG        61.7450   45.7480  -53.9590 C.3    79  LEU79       0.0022
    100  CD1       63.1530   45.3600  -54.3710 C.3    79  LEU79       0.0001
    101  CD2       60.7860   44.6100  -54.2860 C.3    79  LEU79       0.0001
    102  N         60.2410   48.3500  -50.6100 N.am   80  HIS80      -0.1959
    103  CA        59.7430   48.8210  -49.3260 C.3    80  HIS80       0.1787
    104  C         59.3830   47.8440  -48.2210 C.2    80  HIS80       0.2620
    105  O         59.2260   48.2680  -47.0740 O.2    80  HIS80      -0.2715
    106  CB        58.5280   49.7230  -49.5360 C.3    80  HIS80       0.0785
    107  CG        58.8260   50.9880  -50.2850 C.ar   80  HIS80       0.0821
    108  ND1       59.0140   51.0210  -51.6520 N.ar   80  HIS80      -0.2267
    109  CD2       58.9670   52.2650  -49.8530 C.ar   80  HIS80       0.1154
    110  CE1       59.2580   52.2640  -52.0290 C.ar   80  HIS80       0.1986
    111  NE2       59.2360   53.0380  -50.9570 N.ar   80  HIS80      -0.2212
    112  N         59.2300   46.5600  -48.5210 N.am   81  GLN81      -0.1963
    113  CA        58.8350   45.6480  -47.4480 C.3    81  GLN81       0.1733
    114  C         59.3180   44.2350  -47.7040 C.2    81  GLN81       0.2616
    115  O         59.5100   43.8560  -48.8520 O.2    81  GLN81      -0.2715
    116  CB        57.3130   45.6680  -47.3240 C.3    81  GLN81       0.0408
    117  CG        56.7270   44.9160  -46.1240 C.3    81  GLN81       0.0908
    118  CD        55.2860   45.3270  -45.8560 C.2    81  GLN81       0.2608
    119  OE1       55.0030   46.4990  -45.5780 O.2    81  GLN81      -0.2717
    120  NE2       54.3720   44.3800  -45.9480 N.am   81  GLN81      -0.0878
    121  N         59.5540   43.4730  -46.6390 N.am   82  ASP82      -0.1971
    122  CA        59.9680   42.0800  -46.8050 C.3    82  ASP82       0.1709
    123  C         58.7870   41.1840  -46.4500 C.2    82  ASP82       0.2293
    124  O         57.8090   41.6420  -45.8480 O.2    82  ASP82      -0.2864
    125  CB        61.2020   41.7430  -45.9570 C.3    82  ASP82       0.1436
    126  CG        60.9460   41.8480  -44.4660 C.2    82  ASP82       0.3671
    127  OD1       60.0900   41.1120  -43.9390 O.co2  82  ASP82      -0.2456
    128  OD2       61.6140   42.6750  -43.8230 O.co2  82  ASP82      -0.2456
    129  N         57.6710   40.7700  -42.6450 N.3    85  LYS85      -0.1245
    130  CA        56.8390   41.8750  -42.1850 C.3    85  LYS85       0.1561
    131  C         55.4120   41.7230  -42.7250 C.2    85  LYS85       0.2260
    132  O         54.4360   41.8950  -41.9910 O.2    85  LYS85      -0.2867
    133  CB        57.4790   43.2000  -42.6420 C.3    85  LYS85       0.0271
    134  CG        56.8190   44.4710  -42.1150 C.3    85  LYS85       0.0035
    135  CD        57.8240   45.6400  -42.1410 C.3    85  LYS85       0.0206
    136  CE        57.1200   46.9900  -42.0920 C.3    85  LYS85       0.1093
    137  NZ        56.0450   46.9920  -41.0560 N.3    85  LYS85      -0.1314
    138  N         62.7180   37.1870  -44.4710 N.3   127  GLN127     -0.1245
    139  CA        63.2800   38.5350  -44.4810 C.3   127  GLN127      0.1566
    140  C         64.1070   38.8300  -45.7310 C.2   127  GLN127      0.2260
    141  O         64.3580   39.9820  -46.0350 O.2   127  GLN127     -0.2867
    142  CB        64.1040   38.8100  -43.2070 C.3   127  GLN127      0.0367
    143  CG        65.3630   38.0000  -43.0180 C.3   127  GLN127      0.0905
    144  CD        66.0680   38.3680  -41.7220 C.2   127  GLN127      0.2608
    145  OE1       65.4760   38.3100  -40.6440 O.2   127  GLN127     -0.2717
    146  NE2       67.3310   38.7560  -41.8220 N.am  127  GLN127     -0.0878
    147  N         61.6810   40.2630  -50.8050 N.3   130  LEU130     -0.1245
    148  CA        61.1370   41.6140  -50.8180 C.3   130  LEU130      0.1561
    149  C         59.9630   41.7630  -51.7530 C.2   130  LEU130      0.2260
    150  O         59.9570   41.1880  -52.8420 O.2   130  LEU130     -0.2867
    151  CB        62.2420   42.5910  -51.2010 C.3   130  LEU130      0.0270
    152  CG        63.4960   42.3970  -50.3310 C.3   130  LEU130      0.0019
    153  CD1       64.5500   43.4240  -50.7250 C.3   130  LEU130      0.0001
    154  CD2       63.1340   42.5520  -48.8310 C.3   130  LEU130      0.0001
    155  N         66.4630   38.4140  -52.4650 N.3   140  ALA140     -0.1231
    156  CA        67.5870   39.2800  -52.1240 C.3   140  ALA140      0.1694
    157  C         68.7510   38.4590  -51.5670 C.2   140  ALA140      0.2592
    158  O         68.5450   37.4370  -50.9030 O.2   140  ALA140     -0.2718
    159  CB        67.1630   40.3270  -51.0990 C.3   140  ALA140      0.0304
    160  N         69.9590   38.9400  -51.8390 N.am  141  ASP141     -0.1974
    161  CA        71.2080   38.3180  -51.3970 C.3   141  ASP141      0.1709
    162  C         71.6020   37.0200  -52.0890 C.2   141  ASP141      0.2293
    163  O         72.2990   36.1820  -51.5150 O.2   141  ASP141     -0.2864
    164  CB        71.1840   38.1340  -49.8830 C.3   141  ASP141      0.1436
    165  CG        71.1260   39.4590  -49.1540 C.2   141  ASP141      0.3671
    166  OD1       70.7790   39.4670  -47.9620 O.co2 141  ASP141     -0.2456
    167  OD2       71.4370   40.5020  -49.7780 O.co2 141  ASP141     -0.2456
@<TRIPOS>BOND
     1    82    80   ar
     2    81    80   ar
     3    80    79    1
     4    58    59    2
     5    58    57    1
     6    78    79    1
     7    78    75    1
     8    56    57    1
     9    57    60    1
    10    75    74    1
    11    75    76    1
    12    74    65   am
    13    60    61    1
    14    60    62    1
    15    65    64    1
    16    65    66    2
    17    76    83   am
    18    76    77    2
    19   100    99    1
    20    64    63    1
    21    64    67    1
    22    83    84    1
    23   101    99    1
    24    86    85    2
    25    69    71   ar
    26    69    68   ar
    27    99    98    1
    28    71    73   ar
    29    67    68    1
    30    85    84    1
    31    85    94   am
    32    68    70   ar
    33    84    87    1
    34   150   149    2
    35    73    72   ar
    36    87    88    1
    37   155   156    1
    38    98    95    1
    39    94    95    1
    40    95    96    1
    41   156   157    1
    42   156   159    1
    43   162   163    2
    44   162   161    1
    45   110   108   ar
    46   110   111   ar
    47    70    72   ar
    48   160   157   am
    49   160   161    1
    50   149   148    1
    51   108   107   ar
    52   157   158    2
    53    42    43    1
    54    89    88   ar
    55    89    91   ar
    56   161   164    1
    57    88    90   ar
    58    45    44    2
    59   151   148    1
    60   151   152    1
    61   111   109   ar
    62   148   147    1
    63    96   102   am
    64    96    97    2
    65   153   152    1
    66   102   103    1
    67   152   154    1
    68    91    93   ar
    69    44    43    1
    70    43    46    1
    71   107   109   ar
    72   107   106    1
    73    90    92   ar
    74   164   165    1
    75   167   165   ar
    76   106   103    1
    77   103   104    1
    78   165   166   ar
    79    93    92   ar
    80   115   114    2
    81    40    41    1
    82    40    39    1
    83   112   104   am
    84   112   113    1
    85    47    48    1
    86   104   105    2
    87    38    39    1
    88    38    37    1
    89    50    49    2
    90    51    48    1
    91    51    52    1
    92   114   113    1
    93   114   121   am
    94    35    34    1
    95    35    36    2
    96   113   116    1
    97    48    49    1
    98    34    37    1
    99    34    33    1
   100   116   117    1
   101    53    52    1
   102    53    54    1
   103   122   121    1
   104   122   123    1
   105   122   125    1
   106    17    15    1
   107   123   124    2
   108    54    55    1
   109   117   118    1
   110    31    30    1
   111   141   140    2
   112   125   126    1
   113   120   118   am
   114   118   119    2
   115   140   139    1
   116    15    14    1
   117    30    32    1
   118    30    27    1
   119    16    14    1
   120   139   138    1
   121   139   142    1
   122   126   127   ar
   123   126   128   ar
   124    14    11    1
   125    27    28    1
   126    27    26    1
   127    28    29    2
   128     1     2    1
   129     4     3    2
   130   142   143    1
   131     6     7    1
   132     6     5    1
   133   143   144    1
   134    11    10    1
   135    11    12    1
   136     7     9   ar
   137     7     8   ar
   138   131   130    1
   139   131   132    2
   140   129   130    1
   141   133   130    1
   142   133   134    1
   143     3     2    1
   144     2     5    1
   145   135   134    1
   146   135   136    1
   147   136   137    1
   148    12    13    2
   149    12    18   am
   150    23    22    1
   151    23    24    1
   152   146   144   am
   153   144   145    2
   154    24    25    2
   155    18    19    1
   156    21    20    2
   157    19    20    1
