@<TRIPOS>MOLECULE
tmp/3r7fC00.pdb
 105 103 0 0 0
SMALL
GASTEIGER

@<TRIPOS>ATOM
      1  N        -34.5490   14.1330   18.5750 N.3    46  PRO46      -0.2102
      2  CA       -34.4080   15.4470   17.9430 C.3    46  PRO46       0.1504
      3  C        -33.3390   15.4830   16.8460 C.2    46  PRO46       0.2576
      4  O        -32.3360   14.7720   16.9260 O.2    46  PRO46      -0.2718
      5  CB       -33.9790   16.3430   19.1090 C.3    46  PRO46       0.0282
      6  CG       -34.5270   15.6750   20.3140 C.3    46  PRO46       0.0208
      7  CD       -34.4570   14.2110   20.0440 C.3    46  PRO46       0.0893
      8  N        -33.5550   16.3260   15.8420 N.am   47  SER47      -0.1938
      9  CA       -32.5940   16.5170   14.7680 C.3    47  SER47       0.2055
     10  C        -32.9380   17.7560   13.9690 C.2    47  SER47       0.2644
     11  O        -34.1130   18.0430   13.7420 O.2    47  SER47      -0.2714
     12  CB       -32.5720   15.2950   13.8380 C.3    47  SER47       0.2130
     13  OG       -31.9810   15.6280   12.5930 O.3    47  SER47      -0.2179
     14  N        -31.9150   18.4910   13.5370 N.am   48  THR48      -0.1936
     15  CA       -32.1270   19.6150   12.6290 C.3    48  THR48       0.2028
     16  C        -31.4570   19.3830   11.2750 C.2    48  THR48       0.2642
     17  O        -32.1210   19.3800   10.2360 O.2    48  THR48      -0.2714
     18  CB       -31.6180   20.9410   13.2110 C.3    48  THR48       0.1808
     19  OG1      -32.2170   21.1610   14.4930 O.3    48  THR48      -0.2208
     20  CG2      -31.9770   22.0880   12.2860 C.3    48  THR48       0.0379
     21  N        -30.1430   19.1930   11.2830 N.am   49  ARG49      -0.1963
     22  CA       -29.4260   18.9170   10.0460 C.3    49  ARG49       0.1729
     23  C        -29.9400   17.6680    9.3410 C.2    49  ARG49       0.2616
     24  O        -30.3540   17.7120    8.1820 O.2    49  ARG49      -0.2715
     25  CB       -27.9400   18.6870   10.3300 C.3    49  ARG49       0.0348
     26  CG       -27.0910   19.9180   10.3320 C.3    49  ARG49       0.0492
     27  CD       -26.4050   20.0090   11.6600 C.3    49  ARG49       0.2205
     28  NE       -27.3460   20.4080   12.6990 N.pl3  49  ARG49      -0.0865
     29  CZ       -27.6250   21.6740   12.9540 C.cat  49  ARG49       0.5346
     30  NH1      -27.0320   22.6080   12.2300 N.pl3  49  ARG49       0.1354
     31  NH2      -28.4840   22.0090   13.9130 N.pl3  49  ARG49       0.1354
     32  N        -29.8510   16.5380   10.0250 N.am   50  THR50      -0.1951
     33  CA       -30.0690   15.2610    9.3590 C.3    50  THR50       0.1897
     34  C        -31.5000   15.1740    8.8430 C.2    50  THR50       0.2313
     35  O        -31.7420   14.8980    7.6660 O.2    50  THR50      -0.2863
     36  CB       -29.7500   14.1120   10.3050 C.3    50  THR50       0.1794
     37  OG1      -28.4280   14.3140   10.8210 O.3    50  THR50      -0.2208
     38  CG2      -29.8100   12.7810    9.5750 C.3    50  THR50       0.0378
     39  N        -34.1120    7.7810   12.9930 N.3    99  ARG99      -0.1245
     40  CA       -33.2250    8.0910   14.1030 C.3    99  ARG99       0.1563
     41  C        -33.8890    7.5540   15.3590 C.2    99  ARG99       0.2260
     42  O        -35.0260    7.9120   15.6740 O.2    99  ARG99      -0.2867
     43  CB       -32.9670    9.6040   14.2220 C.3    99  ARG99       0.0307
     44  CG       -32.1380    9.9730   15.4560 C.3    99  ARG99       0.0489
     45  CD       -31.6970   11.4180   15.4550 C.3    99  ARG99       0.2205
     46  NE       -30.6240   11.6500   14.4910 N.pl3  99  ARG99      -0.0865
     47  CZ       -29.8430   12.7230   14.4970 C.cat  99  ARG99       0.5346
     48  NH1      -28.8900   12.8540   13.5820 N.pl3  99  ARG99       0.1354
     49  NH2      -30.0150   13.6670   15.4220 N.pl3  99  ARG99       0.1354
     50  N        -23.7270    6.8240   12.5970 N.3   127  HIS127     -0.1241
     51  CA       -24.3940    7.9040   11.9010 C.3   127  HIS127      0.1621
     52  C        -23.7660    7.9580   10.5210 C.2   127  HIS127      0.2264
     53  O        -22.9650    8.8430   10.2350 O.2   127  HIS127     -0.2867
     54  CB       -24.1620    9.2210   12.6390 C.3   127  HIS127      0.0745
     55  CG       -25.0210   10.3450   12.1530 C.ar  127  HIS127      0.0817
     56  ND1      -25.1110   11.5530   12.8120 N.ar  127  HIS127     -0.2268
     57  CD2      -25.8310   10.4440   11.0700 C.ar  127  HIS127      0.1154
     58  CE1      -25.9380   12.3480   12.1560 C.ar  127  HIS127      0.1986
     59  NE2      -26.3840   11.7020   11.0920 N.ar  127  HIS127     -0.2212
     60  N        -23.6600   11.0150    8.1160 N.3   130  GLN130     -0.1245
     61  CA       -22.7190   12.0140    8.6070 C.3   130  GLN130      0.1566
     62  C        -21.2820   11.6710    8.1930 C.2   130  GLN130      0.2260
     63  O        -20.5400   12.5380    7.7380 O.2   130  GLN130     -0.2867
     64  CB       -22.8020   12.1660   10.1270 C.3   130  GLN130      0.0367
     65  CG       -21.9030   13.2870   10.6750 C.3   130  GLN130      0.0905
     66  CD       -22.4340   14.6820   10.3700 C.2   130  GLN130      0.2608
     67  OE1      -23.5630   15.0310   10.7360 O.2   130  GLN130     -0.2717
     68  NE2      -21.6210   15.4870    9.6980 N.am  130  GLN130     -0.0878
     69  N        -21.2660    9.0290   18.1810 N.3   160  ARG160     -0.1231
     70  CA       -21.6250    8.2360   17.0020 C.3   160  ARG160      0.1694
     71  C        -20.8590    8.7330   15.7680 C.2   160  ARG160      0.2591
     72  O        -20.6220    7.9880   14.8210 O.2   160  ARG160     -0.2718
     73  CB       -23.1350    8.3050   16.7450 C.3   160  ARG160      0.0321
     74  CG       -23.6920    9.7240   16.8090 C.3   160  ARG160      0.0489
     75  CD       -24.9680    9.9010   15.9900 C.3   160  ARG160      0.2205
     76  NE       -26.1620    9.3820   16.6510 N.pl3 160  ARG160     -0.0865
     77  CZ       -27.2170   10.1190   17.0020 C.cat 160  ARG160      0.5346
     78  NH1      -27.2490   11.4300   16.7710 N.pl3 160  ARG160      0.1354
     79  NH2      -28.2500    9.5370   17.5910 N.pl3 160  ARG160      0.1354
     80  N        -20.4750   10.0000   15.7830 N.am  161  VAL161     -0.1980
     81  CA       -19.7400   10.5740   14.6660 C.3   161  VAL161      0.1595
     82  C        -18.2790   10.0890   14.6900 C.2   161  VAL161      0.2287
     83  O        -17.7400    9.6470   13.6730 O.2   161  VAL161     -0.2864
     84  CB       -19.8180   12.1190   14.6960 C.3   161  VAL161      0.0276
     85  CG1      -19.0090   12.7330   13.5650 C.3   161  VAL161      0.0022
     86  CG2      -21.2870   12.5800   14.6340 C.3   161  VAL161      0.0022
     87  N        -19.6920   18.4090   13.0700 N.3   249  PRO249     -0.2102
     88  CA       -20.9530   17.9270   12.4870 C.3   249  PRO249      0.1504
     89  C        -22.1550   18.8470   12.7760 C.2   249  PRO249      0.2576
     90  O        -23.1720   18.7300   12.0890 O.2   249  PRO249     -0.2718
     91  CB       -21.1320   16.5330   13.1120 C.3   249  PRO249      0.0282
     92  CG       -20.3480   16.5700   14.3740 C.3   249  PRO249      0.0208
     93  CD       -19.2110   17.5480   14.1660 C.3   249  PRO249      0.0893
     94  N        -22.0060   19.7600   13.7370 N.am  250  ALA250     -0.1967
     95  CA       -23.0630   20.6890   14.1610 C.3   250  ALA250      0.1713
     96  C        -24.1720   19.9330   14.9010 C.2   250  ALA250      0.2458
     97  O        -24.2490   18.7130   14.8100 O.2   250  ALA250     -0.2730
     98  CB       -23.6210   21.4890   12.9700 C.3   250  ALA250      0.0333
     99  N        -24.9980   20.6470   15.6810 N.am  251  PRO251     -0.2727
    100  CA       -24.9200   22.0900   15.9370 C.3   251  PRO251      0.1402
    101  C        -23.6550   22.4710   16.7240 C.2   251  PRO251      0.2269
    102  O        -23.1780   21.7070   17.5690 O.2   251  PRO251     -0.2865
    103  CB       -26.1680   22.3590   16.7820 C.3   251  PRO251      0.0296
    104  CG       -26.4330   21.0500   17.4790 C.3   251  PRO251      0.0237
    105  CD       -26.0490   19.9950   16.4860 C.3   251  PRO251      0.0939
@<TRIPOS>BOND
     1    35    34    2
     2    63    62    2
     3    60    61    1
     4    24    23    2
     5    62    61    1
     6    61    64    1
     7    34    33    1
     8    23    32   am
     9    23    22    1
    10    33    32    1
    11    33    36    1
    12    38    36    1
    13    68    66   am
    14    22    25    1
    15    22    21    1
    16    64    65    1
    17    53    52    2
    18    17    16    2
    19    36    37    1
    20    25    26    1
    21    26    27    1
    22    66    65    1
    23    66    67    2
    24    52    51    1
    25    57    59   ar
    26    57    55   ar
    27    59    58   ar
    28    16    21   am
    29    16    15    1
    30    27    28    1
    31    51    50    1
    32    51    54    1
    33    90    89    2
    34    55    54    1
    35    55    56   ar
    36    58    56   ar
    37    30    29    1
    38    20    18    1
    39    88    89    1
    40    88    87    1
    41    88    91    1
    42    13    12    1
    43    15    18    1
    44    15    14    1
    45    28    29    2
    46    89    94   am
    47    29    31    1
    48    98    95    1
    49    39    40    1
    50    87    93    1
    51    91    92    1
    52    18    19    1
    53    14    10   am
    54    85    84    1
    55    48    47    1
    56    83    82    2
    57    94    95    1
    58    11    10    2
    59    12     9    1
    60    10     9    1
    61    40    43    1
    62    40    41    1
    63    95    96    1
    64    93    92    1
    65    43    44    1
    66    46    47    2
    67    46    45    1
    68    47    49    1
    69    86    84    1
    70    81    82    1
    71    81    84    1
    72    81    80    1
    73     9     8    1
    74    97    96    2
    75    72    71    2
    76    96    99   am
    77    41    42    2
    78    45    44    1
    79    99   100    1
    80    99   105    1
    81    71    80   am
    82    71    70    1
    83     8     3   am
    84   100   101    1
    85   100   103    1
    86    75    76    1
    87    75    74    1
    88   105   104    1
    89    76    77    2
    90   101   102    2
    91    73    74    1
    92    73    70    1
    93    78    77    1
    94   103   104    1
    95     3     4    2
    96     3     2    1
    97    77    79    1
    98    70    69    1
    99     2     1    1
   100     2     5    1
   101     1     7    1
   102     5     6    1
   103     7     6    1
