@<TRIPOS>MOLECULE
tmp/3r7iA00.pdb
 170 160 0 0 0
SMALL
GASTEIGER

@<TRIPOS>ATOM
      1  N         95.0390   92.4260  -44.2360 N.3     8  GLU8       -0.1245
      2  CA        94.8510   91.7790  -42.9410 C.3     8  GLU8        0.1567
      3  C         95.3670   90.3480  -42.9040 C.2     8  GLU8        0.2260
      4  O         95.4240   89.6640  -43.9230 O.2     8  GLU8       -0.2867
      5  CB        93.3720   91.7690  -42.5420 C.3     8  GLU8        0.0388
      6  CG        92.4420   91.1390  -43.5610 C.3     8  GLU8        0.1160
      7  CD        91.0260   90.9840  -43.0320 C.2     8  GLU8        0.3649
      8  OE1       90.5400   91.9050  -42.3380 O.co2   8  GLU8       -0.2457
      9  OE2       90.3950   89.9440  -43.3180 O.co2   8  GLU8       -0.2457
     10  N         94.9300   86.6650  -42.3230 N.3    10  ILE10      -0.1245
     11  CA        93.7520   85.8100  -42.3760 C.3    10  ILE10       0.1561
     12  C         94.0110   84.4190  -41.8130 C.2    10  ILE10       0.2260
     13  O         93.3110   83.4600  -42.1520 O.2    10  ILE10      -0.2867
     14  CB        93.1970   85.6840  -43.8230 C.3    10  ILE10       0.0252
     15  CG1       94.2970   85.2430  -44.7830 C.3    10  ILE10       0.0019
     16  CG2       92.6190   87.0160  -44.2760 C.3    10  ILE10       0.0019
     17  CD1       93.8580   85.2220  -46.2400 C.3    10  ILE10       0.0001
     18  N         98.2270   79.6790  -41.7050 N.3    13  GLY13      -0.1210
     19  CA        98.1000   78.5580  -42.6210 C.3    13  GLY13       0.1956
     20  C         98.9700   77.3540  -42.3140 C.2    13  GLY13       0.2612
     21  O         99.6880   77.3160  -41.3120 O.2    13  GLY13      -0.2717
     22  N         98.9050   76.3600  -43.1940 N.am   14  THR14      -0.1952
     23  CA        99.6730   75.1270  -43.0420 C.3    14  THR14       0.1897
     24  C        101.1890   75.3520  -43.0060 C.2    14  THR14       0.2313
     25  O        101.8880   74.8010  -42.1450 O.2    14  THR14      -0.2863
     26  CB        99.3570   74.1350  -44.1900 C.3    14  THR14       0.1794
     27  OG1       97.9410   73.9140  -44.2620 O.3    14  THR14      -0.2208
     28  CG2      100.0660   72.8000  -43.9480 C.3    14  THR14       0.0378
     29  N         99.3250   83.7360  -43.3780 N.3    18  VAL18      -0.1245
     30  CA        98.7370   84.1440  -44.6500 C.3    18  VAL18       0.1561
     31  C         97.9890   85.4480  -44.4660 C.2    18  VAL18       0.2260
     32  O         97.2970   85.6400  -43.4660 O.2    18  VAL18      -0.2867
     33  CB        97.7800   83.0660  -45.1930 C.3    18  VAL18       0.0252
     34  CG1       96.6930   82.8010  -44.2000 C.3    18  VAL18       0.0019
     35  CG2       97.1770   83.5110  -46.5220 C.3    18  VAL18       0.0019
     36  N         95.6720   88.7220  -46.5190 N.3    20  LYS20      -0.1245
     37  CA        94.8830   89.0920  -47.6710 C.3    20  LYS20       0.1561
     38  C         95.6450   90.3620  -47.9830 C.2    20  LYS20       0.2260
     39  O         95.9360   91.1500  -47.0750 O.2    20  LYS20      -0.2867
     40  CB        93.4580   89.4160  -47.2740 C.3    20  LYS20       0.0271
     41  CG        92.6190   89.9280  -48.4290 C.3    20  LYS20       0.0035
     42  CD        91.1970   90.1840  -47.9250 C.3    20  LYS20       0.0206
     43  CE        90.2970   90.7290  -49.0260 C.3    20  LYS20       0.1093
     44  NZ        88.9160   90.9260  -48.4930 N.3    20  LYS20      -0.1314
     45  N         95.9650   86.3930  -51.9230 N.3    31  ALA31      -0.1245
     46  CA        96.2830   85.7700  -50.6510 C.3    31  ALA31       0.1562
     47  C         97.7940   85.6170  -50.7090 C.2    31  ALA31       0.2260
     48  O         98.3380   85.0900  -51.6800 O.2    31  ALA31      -0.2867
     49  CB        95.6360   84.4020  -50.5230 C.3    31  ALA31       0.0290
     50  N        101.0450   84.0620  -48.7770 N.3    33  LYS33      -0.1245
     51  CA       101.4840   83.1440  -47.7420 C.3    33  LYS33       0.1561
     52  C        102.9970   83.2150  -47.6070 C.2    33  LYS33       0.2260
     53  O        103.7150   82.9720  -48.5720 O.2    33  LYS33      -0.2867
     54  CB       101.0780   81.7180  -48.1040 C.3    33  LYS33       0.0271
     55  CG       101.3800   80.7070  -47.0120 C.3    33  LYS33       0.0035
     56  CD       100.7470   79.3770  -47.3450 C.3    33  LYS33       0.0206
     57  CE       100.7920   78.4450  -46.1470 C.3    33  LYS33       0.1093
     58  NZ       100.1380   77.1360  -46.4390 N.3    33  LYS33      -0.1314
     59  N         93.0320   76.5140  -57.1030 N.3    56  VAL56      -0.1245
     60  CA        93.3760   77.8900  -56.7420 C.3    56  VAL56       0.1561
     61  C         94.6660   78.2830  -57.4870 C.2    56  VAL56       0.2260
     62  O         95.7040   77.6400  -57.3490 O.2    56  VAL56      -0.2867
     63  CB        93.6020   78.0130  -55.1970 C.3    56  VAL56       0.0252
     64  CG1       94.0800   79.4080  -54.8460 C.3    56  VAL56       0.0019
     65  CG2       92.2840   77.7200  -54.4680 C.3    56  VAL56       0.0019
     66  N         98.6420   83.7320  -54.2140 N.3    72  PHE72      -0.1227
     67  CA        97.5070   82.9810  -54.7310 C.3    72  PHE72       0.1736
     68  C         96.3110   83.8470  -55.0720 C.2    72  PHE72       0.2595
     69  O         96.0920   84.9060  -54.4800 O.2    72  PHE72      -0.2718
     70  CB        97.0190   81.9770  -53.6730 C.3    72  PHE72       0.0547
     71  CG        97.9900   80.8730  -53.3750 C.ar   72  PHE72      -0.0202
     72  CD1       98.1590   79.8150  -54.2590 C.ar   72  PHE72      -0.0042
     73  CD2       98.7100   80.8740  -52.1830 C.ar   72  PHE72      -0.0042
     74  CE1       99.0330   78.7620  -53.9580 C.ar   72  PHE72      -0.0003
     75  CE2       99.5820   79.8310  -51.8750 C.ar   72  PHE72      -0.0003
     76  CZ        99.7400   78.7720  -52.7690 C.ar   72  PHE72      -0.0000
     77  N         95.5120   83.3610  -56.0110 N.am   73  GLU73      -0.1965
     78  CA        94.2790   84.0610  -56.3560 C.3    73  GLU73       0.1733
     79  C         93.4780   84.0050  -55.0430 C.2    73  GLU73       0.2616
     80  O         93.5680   83.0190  -54.2970 O.2    73  GLU73      -0.2715
     81  CB        93.5270   83.3320  -57.4740 C.3    73  GLU73       0.0429
     82  CG        92.8110   82.0900  -57.0560 C.3    73  GLU73       0.1163
     83  CD        91.8640   81.5270  -58.1240 C.2    73  GLU73       0.3649
     84  OE1       90.7730   82.1000  -58.3680 O.co2  73  GLU73      -0.2457
     85  OE2       92.2010   80.4890  -58.7110 O.co2  73  GLU73      -0.2457
     86  N         92.7090   85.0470  -54.7490 N.am   74  PHE74      -0.1960
     87  CA        91.9580   85.1000  -53.4910 C.3    74  PHE74       0.1771
     88  C         90.5150   84.6040  -53.5900 C.2    74  PHE74       0.2619
     89  O         89.8400   84.8940  -54.5650 O.2    74  PHE74      -0.2715
     90  CB        91.9340   86.5510  -52.9680 C.3    74  PHE74       0.0574
     91  CG        91.1930   86.7340  -51.6750 C.ar   74  PHE74      -0.0200
     92  CD1       89.8820   87.2100  -51.6540 C.ar   74  PHE74      -0.0042
     93  CD2       91.8260   86.4690  -50.4640 C.ar   74  PHE74      -0.0042
     94  CE1       89.2270   87.4230  -50.4460 C.ar   74  PHE74      -0.0003
     95  CE2       91.1760   86.6770  -49.2570 C.ar   74  PHE74      -0.0003
     96  CZ        89.8750   87.1560  -49.2450 C.ar   74  PHE74      -0.0000
     97  N         90.0750   83.8390  -52.5910 N.am   75  LEU75      -0.1963
     98  CA        88.6720   83.3790  -52.4870 C.3    75  LEU75       0.1728
     99  C         88.2470   83.7370  -51.0670 C.2    75  LEU75       0.2616
    100  O         89.0200   83.5840  -50.1200 O.2    75  LEU75      -0.2715
    101  CB        88.5160   81.8700  -52.7460 C.3    75  LEU75       0.0311
    102  CG        88.4450   81.5540  -54.2420 C.3    75  LEU75       0.0022
    103  CD1       89.8580   81.2540  -54.7360 C.3    75  LEU75       0.0001
    104  CD2       87.5510   80.3560  -54.5310 C.3    75  LEU75       0.0001
    105  N         87.0080   84.1990  -50.9190 N.am   76  HIS76      -0.1959
    106  CA        86.5200   84.6810  -49.6420 C.3    76  HIS76       0.1787
    107  C         86.2050   83.7090  -48.5210 C.2    76  HIS76       0.2620
    108  O         86.1240   84.1220  -47.3610 O.2    76  HIS76      -0.2715
    109  CB        85.2750   85.5420  -49.8830 C.3    76  HIS76       0.0785
    110  CG        85.5640   86.8580  -50.5460 C.ar   76  HIS76       0.0821
    111  ND1       85.7180   86.9910  -51.9120 N.ar   76  HIS76      -0.2267
    112  CD2       85.7420   88.0960  -50.0220 C.ar   76  HIS76       0.1154
    113  CE1       85.9790   88.2550  -52.2000 C.ar   76  HIS76       0.1986
    114  NE2       86.0000   88.9460  -51.0720 N.ar   76  HIS76      -0.2212
    115  N         86.0200   82.4300  -48.8270 N.am   77  GLN77      -0.1963
    116  CA        85.6310   81.5220  -47.7450 C.3    77  GLN77       0.1733
    117  C         86.0940   80.1110  -47.9940 C.2    77  GLN77       0.2616
    118  O         86.2960   79.7170  -49.1360 O.2    77  GLN77      -0.2715
    119  CB        84.1090   81.5500  -47.6180 C.3    77  GLN77       0.0408
    120  CG        83.5170   80.8200  -46.3910 C.3    77  GLN77       0.0908
    121  CD        82.1020   81.2810  -46.0980 C.2    77  GLN77       0.2608
    122  OE1       81.8670   82.4680  -45.8310 O.2    77  GLN77      -0.2717
    123  NE2       81.1530   80.3620  -46.1500 N.am   77  GLN77      -0.0878
    124  N         86.2720   79.3520  -46.9190 N.am   78  ASP78      -0.1971
    125  CA        86.6790   77.9670  -47.0840 C.3    78  ASP78       0.1709
    126  C         85.5060   77.0500  -46.7400 C.2    78  ASP78       0.2293
    127  O         84.5080   77.4910  -46.1540 O.2    78  ASP78      -0.2864
    128  CB        87.9200   77.6430  -46.2400 C.3    78  ASP78       0.1436
    129  CG        87.6790   77.7400  -44.7260 C.2    78  ASP78       0.3671
    130  OD1       86.7530   77.0990  -44.2030 O.co2  78  ASP78      -0.2456
    131  OD2       88.4470   78.4620  -44.0660 O.co2  78  ASP78      -0.2456
    132  N         84.4400   76.7240  -42.9020 N.3    81  LYS81      -0.1245
    133  CA        83.5480   77.7680  -42.3970 C.3    81  LYS81       0.1561
    134  C         82.1440   77.6080  -42.9460 C.2    81  LYS81       0.2260
    135  O         81.1600   77.7540  -42.2180 O.2    81  LYS81      -0.2867
    136  CB        84.0860   79.1610  -42.7440 C.3    81  LYS81       0.0271
    137  CG        85.2930   79.5210  -41.9230 C.3    81  LYS81       0.0035
    138  CD        85.6130   81.0010  -41.9820 C.3    81  LYS81       0.0206
    139  CE        87.0240   81.2440  -41.4800 C.3    81  LYS81       0.1093
    140  NZ        87.9980   80.3730  -42.1980 N.3    81  LYS81      -0.1314
    141  N         89.5380   73.0340  -44.7690 N.3   123  GLN123     -0.1245
    142  CA        90.2100   74.3320  -44.7270 C.3   123  GLN123      0.1566
    143  C         90.9160   74.6890  -46.0150 C.2   123  GLN123      0.2260
    144  O         91.1080   75.8800  -46.2710 O.2   123  GLN123     -0.2867
    145  CB        91.2450   74.4100  -43.6030 C.3   123  GLN123      0.0367
    146  CG        90.7120   74.3690  -42.2010 C.3   123  GLN123      0.0905
    147  CD        91.7710   74.8380  -41.2130 C.2   123  GLN123      0.2608
    148  OE1       92.9320   74.4060  -41.2720 O.2   123  GLN123     -0.2717
    149  NE2       91.3830   75.7310  -40.3130 N.am  123  GLN123     -0.0878
    150  N         88.3860   76.0190  -51.1430 N.3   126  LEU126     -0.1245
    151  CA        87.8720   77.3820  -51.1420 C.3   126  LEU126      0.1561
    152  C         86.6680   77.5680  -52.0390 C.2   126  LEU126      0.2260
    153  O         86.5870   76.9780  -53.1100 O.2   126  LEU126     -0.2867
    154  CB        88.9990   78.3390  -51.5450 C.3   126  LEU126      0.0270
    155  CG        90.2920   78.0790  -50.7450 C.3   126  LEU126      0.0019
    156  CD1       91.3030   79.1840  -51.0860 C.3   126  LEU126      0.0001
    157  CD2       90.0060   78.0570  -49.1890 C.3   126  LEU126      0.0001
    158  N         93.1680   74.1740  -52.8020 N.3   136  ALA136     -0.1231
    159  CA        94.2980   75.0470  -52.4900 C.3   136  ALA136      0.1694
    160  C         95.4190   74.1990  -51.9030 C.2   136  ALA136      0.2592
    161  O         95.1570   73.1940  -51.2360 O.2   136  ALA136     -0.2718
    162  CB        93.8790   76.1340  -51.4800 C.3   136  ALA136      0.0304
    163  N         96.6560   74.6220  -52.1640 N.am  137  ASP137     -0.1974
    164  CA        97.8680   73.9390  -51.6880 C.3   137  ASP137      0.1709
    165  C         98.2650   72.6670  -52.4240 C.2   137  ASP137      0.2293
    166  O         98.9970   71.8430  -51.8950 O.2   137  ASP137     -0.2864
    167  CB        97.7790   73.6700  -50.1800 C.3   137  ASP137      0.1436
    168  CG        97.8300   74.9540  -49.3660 C.2   137  ASP137      0.3671
    169  OD1       97.8640   76.0380  -49.9850 O.co2 137  ASP137     -0.2456
    170  OD2       97.8440   74.8930  -48.1190 O.co2 137  ASP137     -0.2456
@<TRIPOS>BOND
     1    85    83   ar
     2    84    83   ar
     3    83    82    1
     4    61    62    2
     5    61    60    1
     6    81    82    1
     7    81    78    1
     8    59    60    1
     9    60    63    1
    10    78    77    1
    11    78    79    1
    12    77    68   am
    13    63    64    1
    14    63    65    1
    15    68    67    1
    16    68    69    2
    17    79    86   am
    18    79    80    2
    19    86    87    1
    20   103   102    1
    21    67    66    1
    22    67    70    1
    23    89    88    2
    24   104   102    1
    25    72    74   ar
    26    72    71   ar
    27   102   101    1
    28    74    76   ar
    29    70    71    1
    30    88    87    1
    31    88    97   am
    32    87    90    1
    33    71    73   ar
    34   153   152    2
    35    90    91    1
    36   158   159    1
    37    76    75   ar
    38   101    98    1
    39    97    98    1
    40   159   160    1
    41   159   162    1
    42    98    99    1
    43   165   166    2
    44   165   164    1
    45   113   111   ar
    46   113   114   ar
    47    73    75   ar
    48   163   160   am
    49   163   164    1
    50   152   151    1
    51    45    46    1
    52   111   110   ar
    53   160   161    2
    54   164   167    1
    55    48    47    2
    56    91    92   ar
    57    91    93   ar
    58    92    94   ar
    59   154   151    1
    60   154   155    1
    61   150   151    1
    62   156   155    1
    63   114   112   ar
    64    99   105   am
    65    99   100    2
    66   105   106    1
    67   155   157    1
    68    47    46    1
    69    46    49    1
    70   110   112   ar
    71   110   109    1
    72    93    95   ar
    73    94    96   ar
    74   167   168    1
    75   169   168   ar
    76   109   106    1
    77   106   107    1
    78   168   170   ar
    79    95    96   ar
    80   118   117    2
    81    43    44    1
    82    43    42    1
    83   115   107   am
    84   115   116    1
    85    50    51    1
    86    53    52    2
    87   107   108    2
    88    41    42    1
    89    41    40    1
    90    54    51    1
    91    54    55    1
    92   117   116    1
    93   117   124   am
    94    38    37    1
    95    38    39    2
    96   116   119    1
    97    51    52    1
    98    37    40    1
    99    37    36    1
   100   119   120    1
   101    56    55    1
   102    56    57    1
   103   125   124    1
   104   125   126    1
   105   125   128    1
   106   126   127    2
   107    35    33    1
   108    58    57    1
   109   120   121    1
   110   144   143    2
   111   128   129    1
   112    17    15    1
   113   123   121   am
   114   121   122    2
   115   143   142    1
   116    33    30    1
   117    33    34    1
   118    15    14    1
   119   141   142    1
   120   142   145    1
   121   129   130   ar
   122   129   131   ar
   123    30    31    1
   124    30    29    1
   125    31    32    2
   126    16    14    1
   127    27    26    1
   128     1     2    1
   129    26    28    1
   130    26    23    1
   131     4     3    2
   132    14    11    1
   133   145   146    1
   134     6     7    1
   135     6     5    1
   136     9     7   ar
   137    22    23    1
   138    22    20   am
   139    23    24    1
   140     7     8   ar
   141    24    25    2
   142   134   133    1
   143   134   135    2
   144     2     3    1
   145     2     5    1
   146   132   133    1
   147   136   133    1
   148   136   137    1
   149    19    20    1
   150    19    18    1
   151    11    10    1
   152    11    12    1
   153    20    21    2
   154   146   147    1
   155   140   139    1
   156    13    12    2
   157   138   137    1
   158   138   139    1
   159   148   147    2
   160   147   149   am
