@<TRIPOS>MOLECULE
tmp/3r7lD00.pdb
 144 139 0 0 0
SMALL
GASTEIGER

@<TRIPOS>ATOM
      1  N        -23.7540   63.4540   84.9520 N.3    46  PRO46      -0.2102
      2  CA       -22.6110   62.7730   85.5710 C.3    46  PRO46       0.1504
      3  C        -21.8930   61.8560   84.5870 C.2    46  PRO46       0.2576
      4  O        -22.4960   61.3870   83.6200 O.2    46  PRO46      -0.2718
      5  CB       -23.2550   61.9590   86.6960 C.3    46  PRO46       0.0282
      6  CG       -24.5310   62.6890   86.9990 C.3    46  PRO46       0.0208
      7  CD       -25.0120   63.1910   85.6690 C.3    46  PRO46       0.0893
      8  N        -20.6130   61.6090   84.8390 N.am   47  SER47      -0.1938
      9  CA       -19.7900   60.7980   83.9500 C.3    47  SER47       0.2055
     10  C        -18.4450   60.5090   84.5960 C.2    47  SER47       0.2644
     11  O        -17.8980   61.3550   85.3050 O.2    47  SER47      -0.2714
     12  CB       -19.5670   61.5230   82.6180 C.3    47  SER47       0.2130
     13  OG       -18.5980   60.8550   81.8210 O.3    47  SER47      -0.2179
     14  N        -17.9160   59.3130   84.3540 N.am   48  THR48      -0.1936
     15  CA       -16.5560   58.9870   84.7710 C.3    48  THR48       0.2028
     16  C        -15.6980   58.5780   83.5790 C.2    48  THR48       0.2642
     17  O        -14.6650   59.1960   83.3100 O.2    48  THR48      -0.2714
     18  CB       -16.5230   57.8790   85.8390 C.3    48  THR48       0.1808
     19  OG1      -17.1490   58.3540   87.0370 O.3    48  THR48      -0.2208
     20  CG2      -15.0860   57.4910   86.1500 C.3    48  THR48       0.0379
     21  N        -16.1320   57.5440   82.8630 N.am   49  ARG49      -0.1963
     22  CA       -15.3990   57.0590   81.6970 C.3    49  ARG49       0.1729
     23  C        -15.2890   58.1100   80.5990 C.2    49  ARG49       0.2616
     24  O        -14.1930   58.4970   80.2020 O.2    49  ARG49      -0.2715
     25  CB       -16.0550   55.7960   81.1290 C.3    49  ARG49       0.0348
     26  CG       -15.6070   54.4990   81.7830 C.3    49  ARG49       0.0492
     27  CD       -16.7980   53.6100   82.0810 C.3    49  ARG49       0.2205
     28  NE       -17.7170   54.2440   83.0230 N.pl3  49  ARG49      -0.0865
     29  CZ       -17.7360   53.9950   84.3290 C.cat  49  ARG49       0.5346
     30  NH1      -18.6050   54.6180   85.1160 N.pl3  49  ARG49       0.1354
     31  NH2      -16.8910   53.1150   84.8460 N.pl3  49  ARG49       0.1354
     32  N        -16.4290   58.5670   80.1030 N.am   50  THR50      -0.1951
     33  CA       -16.4320   59.4230   78.9260 C.3    50  THR50       0.1897
     34  C        -15.7160   60.7390   79.2170 C.2    50  THR50       0.2313
     35  O        -14.8290   61.1610   78.4700 O.2    50  THR50      -0.2863
     36  CB       -17.8660   59.6920   78.4360 C.3    50  THR50       0.1794
     37  OG1      -18.5800   58.4520   78.3660 O.3    50  THR50      -0.2208
     38  CG2      -17.8470   60.3460   77.0620 C.3    50  THR50       0.0378
     39  N        -21.7530   66.6700   76.9940 N.3    99  ARG99      -0.1245
     40  CA       -22.7780   65.7290   77.4290 C.3    99  ARG99       0.1563
     41  C        -23.9210   66.5410   78.0250 C.2    99  ARG99       0.2260
     42  O        -23.7020   67.4240   78.8540 O.2    99  ARG99      -0.2867
     43  CB       -22.2380   64.7190   78.4500 C.3    99  ARG99       0.0307
     44  CG       -23.3130   63.8010   79.0430 C.3    99  ARG99       0.0489
     45  CD       -22.7210   62.6820   79.9010 C.3    99  ARG99       0.2205
     46  NE       -22.1960   61.5850   79.0910 N.pl3  99  ARG99      -0.0865
     47  CZ       -21.7870   60.4150   79.5790 C.cat  99  ARG99       0.5346
     48  NH1      -21.8400   60.1740   80.8850 N.pl3  99  ARG99       0.1354
     49  NH2      -21.3310   59.4800   78.7580 N.pl3  99  ARG99       0.1354
     50  N        -24.7010   58.2550   71.4640 N.3   127  HIS127     -0.1241
     51  CA       -23.4640   58.1720   72.2310 C.3   127  HIS127      0.1621
     52  C        -22.3730   57.6050   71.3260 C.2   127  HIS127      0.2264
     53  O        -21.9320   56.4690   71.5100 O.2   127  HIS127     -0.2867
     54  CB       -23.6630   57.2750   73.4550 C.3   127  HIS127      0.0745
     55  CG       -22.6080   57.4320   74.5020 C.ar  127  HIS127      0.0817
     56  ND1      -21.4500   58.1540   74.2960 N.ar  127  HIS127     -0.2268
     57  CD2      -22.5330   56.9680   75.7730 C.ar  127  HIS127      0.1154
     58  CE1      -20.7100   58.1220   75.3860 C.ar  127  HIS127      0.1986
     59  NE2      -21.3460   57.4070   76.3010 N.ar  127  HIS127     -0.2212
     60  N        -19.0080   55.9220   72.5410 N.3   130  GLN130     -0.1245
     61  CA       -19.2710   54.6360   73.1790 C.3   130  GLN130      0.1566
     62  C        -19.4330   53.5660   72.1130 C.2   130  GLN130      0.2260
     63  O        -18.8790   52.4730   72.2200 O.2   130  GLN130     -0.2867
     64  CB       -20.5350   54.6870   74.0300 C.3   130  GLN130      0.0367
     65  CG       -20.8000   53.3980   74.7910 C.3   130  GLN130      0.0905
     66  CD       -19.7500   53.1280   75.8570 C.2   130  GLN130      0.2608
     67  OE1      -19.5790   53.9160   76.7920 O.2   130  GLN130     -0.2717
     68  NE2      -19.0370   52.0140   75.7190 N.am  130  GLN130     -0.0878
     69  N        -29.1190   55.7230   75.0430 N.3   160  ARG160     -0.1231
     70  CA       -28.4340   56.3120   73.9030 C.3   160  ARG160      0.1694
     71  C        -27.3700   55.3450   73.3770 C.2   160  ARG160      0.2591
     72  O        -26.9570   55.4240   72.2210 O.2   160  ARG160     -0.2718
     73  CB       -27.8160   57.6580   74.2780 C.3   160  ARG160      0.0321
     74  CG       -26.8920   57.6200   75.4860 C.3   160  ARG160      0.0489
     75  CD       -26.5840   59.0310   75.9580 C.3   160  ARG160      0.2205
     76  NE       -25.8920   59.0580   77.2430 N.pl3 160  ARG160     -0.0865
     77  CZ       -25.8790   60.1110   78.0550 C.cat 160  ARG160      0.5346
     78  NH1      -26.5330   61.2160   77.7190 N.pl3 160  ARG160      0.1354
     79  NH2      -25.2240   60.0580   79.2080 N.pl3 160  ARG160      0.1354
     80  N        -26.9340   54.4230   74.2310 N.am  161  VAL161     -0.1980
     81  CA       -25.9540   53.4240   73.8250 C.3   161  VAL161      0.1595
     82  C        -26.5890   52.4240   72.8650 C.2   161  VAL161      0.2287
     83  O        -26.0110   52.0880   71.8290 O.2   161  VAL161     -0.2864
     84  CB       -25.3660   52.6730   75.0330 C.3   161  VAL161      0.0276
     85  CG1      -24.4780   51.5210   74.5640 C.3   161  VAL161      0.0022
     86  CG2      -24.5900   53.6250   75.9210 C.3   161  VAL161      0.0022
     87  N        -26.9350   46.4460   79.7100 N.3   210  LEU210     -0.1231
     88  CA       -27.1870   47.8630   79.9430 C.3   210  LEU210      0.1693
     89  C        -27.5640   48.1210   81.3980 C.2   210  LEU210      0.2591
     90  O        -28.1800   47.2830   82.0530 O.2   210  LEU210     -0.2718
     91  CB       -28.3110   48.3680   79.0360 C.3   210  LEU210      0.0284
     92  CG       -28.0840   48.3390   77.5250 C.3   210  LEU210      0.0019
     93  CD1      -29.3320   48.8110   76.7870 C.3   210  LEU210      0.0001
     94  CD2      -26.8730   49.1860   77.1410 C.3   210  LEU210      0.0001
     95  N        -27.1890   49.2940   81.8920 N.am  211  ARG211     -0.1980
     96  CA       -27.6170   49.7580   83.2000 C.3   211  ARG211      0.1597
     97  C        -29.0430   50.2990   83.0950 C.2   211  ARG211      0.2287
     98  O        -29.4220   50.8720   82.0740 O.2   211  ARG211     -0.2864
     99  CB       -26.6650   50.8580   83.6810 C.3   211  ARG211      0.0334
    100  CG       -26.9750   51.4520   85.0480 C.3   211  ARG211      0.0492
    101  CD       -26.0070   52.6010   85.3690 C.3   211  ARG211      0.2205
    102  NE       -26.1590   53.7120   84.4310 N.pl3 211  ARG211     -0.0865
    103  CZ       -26.9560   54.7590   84.6370 C.cat 211  ARG211      0.5346
    104  NH1      -27.6630   54.8490   85.7550 N.pl3 211  ARG211      0.1354
    105  NH2      -27.0420   55.7220   83.7290 N.pl3 211  ARG211      0.1354
    106  N        -31.5490   52.9550   83.3400 N.3   213  GLN213     -0.1245
    107  CA       -31.4620   54.4110   83.3470 C.3   213  GLN213      0.1566
    108  C        -32.4440   55.0100   84.3480 C.2   213  GLN213      0.2260
    109  O        -33.3300   55.7810   83.9830 O.2   213  GLN213     -0.2867
    110  CB       -31.7220   54.9720   81.9460 C.3   213  GLN213      0.0367
    111  CG       -30.7710   54.4470   80.8790 C.3   213  GLN213      0.0905
    112  CD       -29.3220   54.8400   81.1380 C.2   213  GLN213      0.2608
    113  OE1      -28.9600   56.0150   81.0680 O.2   213  GLN213     -0.2717
    114  NE2      -28.4900   53.8540   81.4460 N.am  213  GLN213     -0.0878
    115  N        -33.5810   58.6140   84.3240 N.3   216  ARG216     -0.1245
    116  CA       -34.2700   59.0780   83.1180 C.3   216  ARG216      0.1563
    117  C        -35.7500   58.6810   83.0400 C.2   216  ARG216      0.2260
    118  O        -36.4770   59.1620   82.1680 O.2   216  ARG216     -0.2867
    119  CB       -33.5410   58.5930   81.8600 C.3   216  ARG216      0.0307
    120  CG       -32.0770   58.9720   81.8200 C.3   216  ARG216      0.0489
    121  CD       -31.4290   58.6350   80.4840 C.3   216  ARG216      0.2205
    122  NE       -29.9820   58.8100   80.5570 N.pl3 216  ARG216     -0.0865
    123  CZ       -29.3650   59.9830   80.4420 C.cat 216  ARG216      0.5346
    124  NH1      -30.0700   61.0860   80.2350 N.pl3 216  ARG216      0.1354
    125  NH2      -28.0440   60.0520   80.5280 N.pl3 216  ARG216      0.1354
    126  N        -21.4300   49.2340   78.8230 N.3   249  PRO249     -0.2102
    127  CA       -20.8490   50.5720   78.6930 C.3   249  PRO249      0.1504
    128  C        -20.4300   51.1400   80.0440 C.2   249  PRO249      0.2576
    129  O        -19.6480   52.0900   80.0850 O.2   249  PRO249     -0.2718
    130  CB       -21.9920   51.3930   78.0850 C.3   249  PRO249      0.0282
    131  CG       -23.2360   50.6660   78.4790 C.3   249  PRO249      0.0208
    132  CD       -22.8680   49.2130   78.5000 C.3   249  PRO249      0.0893
    133  N        -20.9400   50.5530   81.1240 N.am  250  ALA250     -0.1967
    134  CA       -20.6610   51.0110   82.4870 C.3   250  ALA250      0.1713
    135  C        -21.3160   52.3690   82.7760 C.2   250  ALA250      0.2458
    136  O        -21.7470   53.0620   81.8570 O.2   250  ALA250     -0.2730
    137  CB       -19.1560   51.0530   82.7450 C.3   250  ALA250      0.0333
    138  N        -21.4350   52.7370   84.0610 N.am  251  PRO251     -0.2727
    139  CA       -21.0370   51.9360   85.2220 C.3   251  PRO251      0.1402
    140  C        -21.9260   50.7120   85.3790 C.2   251  PRO251      0.2269
    141  O        -23.0880   50.7180   84.9660 O.2   251  PRO251     -0.2865
    142  CB       -21.2700   52.8890   86.3950 C.3   251  PRO251      0.0296
    143  CG       -22.3630   53.7780   85.9370 C.3   251  PRO251      0.0237
    144  CD       -22.1070   53.9860   84.4640 C.3   251  PRO251      0.0939
@<TRIPOS>BOND
     1    52    53    2
     2    52    51    1
     3    50    51    1
     4    83    82    2
     5    62    63    2
     6    62    61    1
     7    72    71    2
     8    51    54    1
     9    60    61    1
    10    82    81    1
    11    61    64    1
    12    71    70    1
    13    71    80   am
    14    54    55    1
    15    81    80    1
    16    81    84    1
    17    70    73    1
    18    70    69    1
    19    64    65    1
    20    73    74    1
    21    56    55   ar
    22    56    58   ar
    23    55    57   ar
    24    85    84    1
    25    65    66    1
    26    84    86    1
    27    58    59   ar
    28    74    75    1
    29    68    66   am
    30    57    59   ar
    31    66    67    2
    32    75    76    1
    33    93    92    1
    34    39    40    1
    35    38    36    1
    36    94    92    1
    37    76    77    2
    38    40    41    1
    39    40    43    1
    40    92    91    1
    41    78    77    1
    42    41    42    2
    43    77    79    1
    44   130   131    1
    45   130   127    1
    46    37    36    1
    47    36    33    1
    48    43    44    1
    49    35    34    2
    50   131   132    1
    51   132   126    1
    52   127   126    1
    53   127   128    1
    54    49    47    1
    55    33    34    1
    56    33    32    1
    57    91    88    1
    58    44    45    1
    59    46    47    2
    60    46    45    1
    61    47    48    1
    62    87    88    1
    63    88    89    1
    64   128   129    2
    65   128   133   am
    66    32    23   am
    67    24    23    2
    68   124   123    1
    69   123   125    1
    70   123   122    2
    71   121   122    1
    72   121   120    1
    73    23    22    1
    74   111   112    1
    75   111   110    1
    76   113   112    2
    77   133   134    1
    78    25    22    1
    79    25    26    1
    80   112   114   am
    81    89    95   am
    82    89    90    2
    83    22    21    1
    84    26    27    1
    85   120   119    1
    86    13    12    1
    87   136   135    2
    88   119   116    1
    89    95    96    1
    90   110   107    1
    91    98    97    2
    92    27    28    1
    93   118   117    2
    94   134   137    1
    95   134   135    1
    96    12     9    1
    97   135   138   am
    98    21    16   am
    99    28    29    2
   100   117   116    1
   101    97    96    1
   102   116   115    1
   103    96    99    1
   104    17    16    2
   105   106   107    1
   106   107   108    1
   107    16    15    1
   108     4     3    2
   109    99   100    1
   110   105   103    1
   111     9    10    1
   112     9     8    1
   113   109   108    2
   114   138   144    1
   115   138   139    1
   116    29    31    1
   117    29    30    1
   118    14    10   am
   119    14    15    1
   120   102   103    2
   121   102   101    1
   122   144   143    1
   123     3     8   am
   124     3     2    1
   125    10    11    2
   126   103   104    1
   127    15    18    1
   128     1     2    1
   129     1     7    1
   130   141   140    2
   131   100   101    1
   132   139   140    1
   133   139   142    1
   134     2     5    1
   135     7     6    1
   136    18    20    1
   137    18    19    1
   138   143   142    1
   139     5     6    1
