@<TRIPOS>MOLECULE
tmp/3r7mA01.pdb
 171 169 0 0 0
SMALL
GASTEIGER

@<TRIPOS>ATOM
      1  N         -2.2580    2.3250    9.4390 N.3    19  TYR19      -0.1241
      2  CA        -0.8900    2.3120    9.8810 C.3    19  TYR19       0.1605
      3  C          0.0270    2.8410    8.8090 C.2    19  TYR19       0.2264
      4  O         -0.0370    2.4060    7.6450 O.2    19  TYR19      -0.2867
      5  CB        -0.3630    0.9330   10.3070 C.3    19  TYR19       0.0534
      6  CG         1.0870    1.0440   10.7740 C.ar   19  TYR19      -0.0201
      7  CD1        1.3780    1.5800   12.0240 C.ar   19  TYR19      -0.0009
      8  CD2        2.1590    0.6260    9.9770 C.ar   19  TYR19      -0.0009
      9  CE1        2.7010    1.7170   12.4910 C.ar   19  TYR19       0.0417
     10  CE2        3.4970    0.7420   10.4290 C.ar   19  TYR19       0.0417
     11  CZ         3.7520    1.2820   11.6770 C.ar   19  TYR19       0.1957
     12  OH         5.0360    1.4210   12.1580 O.3    19  TYR19      -0.2866
     13  N         -0.9740    1.5930   19.1130 N.3    49  LEU49      -0.1231
     14  CA         0.3830    1.4270   18.5620 C.3    49  LEU49       0.1693
     15  C          0.6810    2.3940   17.4140 C.2    49  LEU49       0.2592
     16  O          1.8370    2.8070   17.2290 O.2    49  LEU49      -0.2718
     17  CB         0.6800   -0.0080   18.1460 C.3    49  LEU49       0.0284
     18  CG         2.0630   -0.2550   17.5040 C.3    49  LEU49       0.0019
     19  CD1        3.2480   -0.2180   18.5310 C.3    49  LEU49       0.0001
     20  CD2        2.0150   -1.5930   16.7960 C.3    49  LEU49       0.0001
     21  N         -0.3490    2.7700   16.6550 N.am   50  TYR50      -0.1976
     22  CA        -0.0970    3.4750   15.3670 C.3    50  TYR50       0.1639
     23  C          0.2900    4.9450   15.5260 C.2    50  TYR50       0.2290
     24  O          0.7660    5.5520   14.5390 O.2    50  TYR50      -0.2864
     25  CB        -1.2910    3.3400   14.4010 C.3    50  TYR50       0.0560
     26  CG        -1.6490    1.8980   14.1200 C.ar   50  TYR50      -0.0198
     27  CD1       -0.7460    0.8460   14.4320 C.ar   50  TYR50      -0.0009
     28  CD2       -2.8760    1.5640   13.5530 C.ar   50  TYR50      -0.0009
     29  CE1       -1.1100   -0.5350   14.1830 C.ar   50  TYR50       0.0417
     30  CE2       -3.2370    0.2070   13.2960 C.ar   50  TYR50       0.0417
     31  CZ        -2.3410   -0.8220   13.5870 C.ar   50  TYR50       0.1957
     32  OH        -2.7120   -2.1540   13.3780 O.3    50  TYR50      -0.2866
     33  N         -2.7320   -2.1630   23.3090 N.3    81  TRP81      -0.1241
     34  CA        -1.3670   -2.5380   23.0850 C.3    81  TRP81       0.1605
     35  C         -0.9040   -3.5440   24.1780 C.2    81  TRP81       0.2264
     36  O         -1.4550   -3.5860   25.2660 O.2    81  TRP81      -0.2867
     37  CB        -0.4790   -1.2750   22.9490 C.3    81  TRP81       0.0550
     38  CG         0.9540   -1.6330   22.7350 C.ar   81  TRP81       0.0003
     39  CD1        2.0170   -1.3100   23.5440 C.ar   81  TRP81       0.0946
     40  CD2        1.4820   -2.4830   21.7030 C.ar   81  TRP81       0.0152
     41  NE1        3.1670   -1.8960   23.0760 N.ar   81  TRP81      -0.2442
     42  CE2        2.8780   -2.6300   21.9550 C.ar   81  TRP81       0.0810
     43  CE3        0.9160   -3.1600   20.6190 C.ar   81  TRP81       0.0012
     44  CZ2        3.7340   -3.3690   21.1030 C.ar   81  TRP81       0.0191
     45  CZ3        1.7650   -3.9470   19.7830 C.ar   81  TRP81       0.0001
     46  CH2        3.1570   -4.0460   20.0450 C.ar   81  TRP81       0.0015
     47  N         -4.5410   -6.4690   20.7470 N.3   112  HIS112     -0.1226
     48  CA        -3.7840   -6.2840   19.5100 C.3   112  HIS112      0.1752
     49  C         -2.9610   -7.5440   19.2080 C.2   112  HIS112      0.2596
     50  O         -2.7240   -7.9230   18.0210 O.2   112  HIS112     -0.2718
     51  CB        -2.8480   -5.0650   19.6570 C.3   112  HIS112      0.0759
     52  CG        -2.3080   -4.5390   18.3580 C.ar  112  HIS112      0.0818
     53  ND1       -1.9600   -3.2200   18.1880 N.ar  112  HIS112     -0.2268
     54  CD2       -1.9740   -5.1680   17.2020 C.ar  112  HIS112      0.1154
     55  CE1       -1.5050   -3.0410   16.9570 C.ar  112  HIS112      0.1986
     56  NE2       -1.4770   -4.2130   16.3480 N.ar  112  HIS112     -0.2212
     57  N         -2.5650   -8.2220   20.2830 N.am  113  SER113     -0.1952
     58  CA        -1.7060   -9.3560   20.1370 C.3   113  SER113      0.1924
     59  C         -1.7120  -10.1430   21.4270 C.2   113  SER113      0.2314
     60  O         -1.8730   -9.5430   22.4940 O.2   113  SER113     -0.2863
     61  CB        -0.2970   -8.8530   19.8160 C.3   113  SER113      0.2116
     62  OG         0.7140   -9.7880   20.1660 O.3   113  SER113     -0.2180
     63  N          0.9430  -11.4540   22.6390 N.3   115  MET115     -0.1245
     64  CA         2.2950  -11.5440   23.1260 C.3   115  MET115      0.1570
     65  C          2.5750  -10.4590   24.1340 C.2   115  MET115      0.2261
     66  O          3.0430   -9.4220   23.7570 O.2   115  MET115     -0.2867
     67  CB         3.2860  -11.4750   21.9570 C.3   115  MET115      0.0387
     68  CG         3.3030  -12.7640   21.1150 C.3   115  MET115      0.0595
     69  SD         4.3360  -12.5420   19.6420 S.3   115  MET115     -0.1393
     70  CE         3.2170  -11.4420   18.7030 C.3   115  MET115      0.0692
     71  N          3.8240   -7.7930   26.9290 N.3   117  LEU117     -0.1245
     72  CA         5.0470   -7.0120   27.1900 C.3   117  LEU117      0.1561
     73  C          4.9960   -6.3820   28.5950 C.2   117  LEU117      0.2260
     74  O          3.8830   -6.0990   29.1100 O.2   117  LEU117     -0.2867
     75  CB         5.2030   -5.9180   26.1590 C.3   117  LEU117      0.0270
     76  CG         5.2650   -6.3990   24.7020 C.3   117  LEU117      0.0019
     77  CD1        5.5300   -5.2160   23.7810 C.3   117  LEU117      0.0001
     78  CD2        6.3060   -7.5530   24.4970 C.3   117  LEU117      0.0001
     79  N          9.4370   -9.4340   28.0150 N.3   121  PHE121     -0.1241
     80  CA         8.0980  -10.0450   27.9000 C.3   121  PHE121      0.1605
     81  C          7.3660  -10.0550   29.2650 C.2   121  PHE121      0.2264
     82  O          7.9940   -9.8080   30.2750 O.2   121  PHE121     -0.2867
     83  CB         8.2170  -11.4450   27.3180 C.3   121  PHE121      0.0534
     84  CG         8.9120  -11.4860   25.9680 C.ar  121  PHE121     -0.0203
     85  CD1        8.8780  -10.3760   25.1040 C.ar  121  PHE121     -0.0042
     86  CD2        9.5770  -12.6200   25.5510 C.ar  121  PHE121     -0.0042
     87  CE1        9.5030  -10.4140   23.8300 C.ar  121  PHE121     -0.0003
     88  CE2       10.1930  -12.6620   24.2830 C.ar  121  PHE121     -0.0003
     89  CZ        10.1600  -11.5500   23.4360 C.ar  121  PHE121     -0.0000
     90  N         -4.4290  -11.5220   16.0480 N.3   149  ASN149     -0.1240
     91  CA        -3.2470  -12.3760   16.0720 C.3   149  ASN149      0.1653
     92  C         -3.3730  -13.6060   16.9900 C.2   149  ASN149      0.2266
     93  O         -2.3580  -14.1390   17.4410 O.2   149  ASN149     -0.2867
     94  CB        -1.9730  -11.5530   16.4470 C.3   149  ASN149      0.1155
     95  CG        -1.5950  -10.5320   15.3700 C.2   149  ASN149      0.2627
     96  OD1       -1.3700  -10.8870   14.1940 O.2   149  ASN149     -0.2716
     97  ND2       -1.5230   -9.2680   15.7560 N.am  149  ASN149     -0.0877
     98  N         -5.6370   -8.6660    7.6780 N.3   198  TYR198     -0.1241
     99  CA        -4.6520   -7.5920    7.4610 C.3   198  TYR198      0.1605
    100  C         -3.4860   -8.0950    6.5840 C.2   198  TYR198      0.2264
    101  O         -3.3760   -9.3260    6.3560 O.2   198  TYR198     -0.2867
    102  CB        -4.1530   -7.0190    8.8030 C.3   198  TYR198      0.0534
    103  CG        -3.1730   -7.8700    9.6160 C.ar  198  TYR198     -0.0201
    104  CD1       -1.8880   -8.1310    9.1530 C.ar  198  TYR198     -0.0009
    105  CD2       -3.5390   -8.3730   10.8630 C.ar  198  TYR198     -0.0009
    106  CE1       -0.9830   -8.8570    9.9240 C.ar  198  TYR198      0.0417
    107  CE2       -2.6330   -9.0870   11.6480 C.ar  198  TYR198      0.0417
    108  CZ        -1.3740   -9.3280   11.1750 C.ar  198  TYR198      0.1957
    109  OH        -0.4980  -10.0750   11.9620 O.3   198  TYR198     -0.2866
    110  N          3.2250   -3.8850    4.1980 N.3   204  GLN204     -0.1245
    111  CA         3.9930   -2.7160    3.7590 C.3   204  GLN204      0.1566
    112  C          5.4520   -3.1170    3.5310 C.2   204  GLN204      0.2260
    113  O          6.2420   -2.3060    3.0760 O.2   204  GLN204     -0.2867
    114  CB         3.8330   -1.5040    4.7400 C.3   204  GLN204      0.0367
    115  CG         2.3020   -1.2270    4.8980 C.3   204  GLN204      0.0905
    116  CD         1.9940    0.0250    5.6730 C.2   204  GLN204      0.2608
    117  OE1        2.6850    1.0180    5.5260 O.2   204  GLN204     -0.2717
    118  NE2        0.9850   -0.0290    6.5500 N.am  204  GLN204     -0.0878
    119  N         11.9640   -3.7750    9.2080 N.3   208  ARG208     -0.1231
    120  CA        12.0850   -4.2080   10.6040 C.3   208  ARG208      0.1694
    121  C         11.4130   -5.5600   10.8520 C.2   208  ARG208      0.2592
    122  O         11.8230   -6.2620   11.7700 O.2   208  ARG208     -0.2718
    123  CB        11.5180   -3.1670   11.5670 C.3   208  ARG208      0.0321
    124  CG        12.1430   -1.7200   11.3900 C.3   208  ARG208      0.0489
    125  CD        11.3180   -0.6570   12.1650 C.3   208  ARG208      0.2205
    126  NE        10.1020   -0.2020   11.4740 N.pl3 208  ARG208     -0.0865
    127  CZ         9.0010    0.2170   12.1170 C.cat 208  ARG208      0.5346
    128  NH1        9.0100    0.2210   13.4500 N.pl3 208  ARG208      0.1354
    129  NH2        7.8860    0.6190   11.4530 N.pl3 208  ARG208      0.1354
    130  N         10.4410   -5.9730   10.0260 N.am  209  TRP209     -0.1976
    131  CA         9.7750   -7.2830   10.3060 C.3   209  TRP209      0.1640
    132  C          9.5750   -8.1660    9.1140 C.2   209  TRP209      0.2290
    133  O          9.1660   -9.3320    9.2520 O.2   209  TRP209     -0.2864
    134  CB         8.4260   -7.0620   10.9340 C.3   209  TRP209      0.0576
    135  CG         8.5100   -6.1030   11.9310 C.ar  209  TRP209      0.0006
    136  CD1        9.2290   -6.1950   13.1470 C.ar  209  TRP209      0.0946
    137  CD2        7.9410   -4.8280   11.8900 C.ar  209  TRP209      0.0152
    138  NE1        9.0910   -5.0260   13.8400 N.ar  209  TRP209     -0.2442
    139  CE2        8.3030   -4.1700   13.0960 C.ar  209  TRP209      0.0810
    140  CE3        7.1250   -4.1750   10.9710 C.ar  209  TRP209      0.0012
    141  CZ2        7.8860   -2.8840   13.3890 C.ar  209  TRP209      0.0191
    142  CZ3        6.7250   -2.9030   11.2490 C.ar  209  TRP209      0.0001
    143  CH2        7.1020   -2.2640   12.4560 C.ar  209  TRP209      0.0015
    144  N          5.2060  -10.8700    8.3480 N.3   288  PHE288     -0.1241
    145  CA         5.7950  -10.4850    9.6160 C.3   288  PHE288      0.1605
    146  C          6.5270  -11.6900   10.1620 C.2   288  PHE288      0.2264
    147  O          5.8950  -12.7030   10.5190 O.2   288  PHE288     -0.2867
    148  CB         4.7060  -10.0690   10.5890 C.3   288  PHE288      0.0534
    149  CG         4.1030   -8.7140   10.2630 C.ar  288  PHE288     -0.0203
    150  CD1        4.5430   -7.5780   10.9490 C.ar  288  PHE288     -0.0042
    151  CD2        3.1280   -8.5680    9.2790 C.ar  288  PHE288     -0.0042
    152  CE1        4.0220   -6.3040   10.6900 C.ar  288  PHE288     -0.0003
    153  CE2        2.5390   -7.2630    9.0050 C.ar  288  PHE288     -0.0003
    154  CZ         3.0230   -6.1330    9.7250 C.ar  288  PHE288     -0.0000
    155  N         11.5610  -10.5620   17.0490 N.3   292  SER292     -0.1202
    156  CA        10.7750   -9.8260   18.0880 C.3   292  SER292      0.2020
    157  C          9.4800  -10.5380   18.4370 C.2   292  SER292      0.2618
    158  O          8.9610  -10.3500   19.5060 O.2   292  SER292     -0.2717
    159  CB        10.3490   -8.4530   17.6600 C.3   292  SER292      0.2103
    160  OG        11.4270   -7.7860   17.1390 O.3   292  SER292     -0.2182
    161  N          8.9720  -11.3600   17.5320 N.am  293  PHE293     -0.1975
    162  CA         7.7140  -12.0430   17.8160 C.3   293  PHE293      0.1639
    163  C          8.0650  -13.4950   18.0740 C.2   293  PHE293      0.2290
    164  O          7.5070  -14.1100   18.9510 O.2   293  PHE293     -0.2864
    165  CB         6.7690  -11.9790   16.5840 C.3   293  PHE293      0.0560
    166  CG         6.5420  -10.6010   16.0710 C.ar  293  PHE293     -0.0200
    167  CD1        6.0550   -9.5800   16.9370 C.ar  293  PHE293     -0.0042
    168  CD2        6.8270  -10.2890   14.7350 C.ar  293  PHE293     -0.0042
    169  CE1        5.8470   -8.2580   16.4590 C.ar  293  PHE293     -0.0003
    170  CE2        6.6310   -8.9800   14.2460 C.ar  293  PHE293     -0.0003
    171  CZ         6.1230   -7.9540   15.1060 C.ar  293  PHE293     -0.0000
@<TRIPOS>BOND
     1   113   112    2
     2   112   111    1
     3   111   110    1
     4   111   114    1
     5   114   115    1
     6   115   116    1
     7   117   116    2
     8   116   118   am
     9   101   100    2
    10   100    99    1
    11    99    98    1
    12    99   102    1
    13     4     3    2
    14   144   145    1
    15   102   103    1
    16     3     2    1
    17   153   151   ar
    18   153   154   ar
    19   132   133    2
    20   132   131    1
    21   104   103   ar
    22   104   106   ar
    23   119   120    1
    24   151   149   ar
    25     1     2    1
    26   103   105   ar
    27   145   146    1
    28   145   148    1
    29   154   152   ar
    30     2     5    1
    31   106   108   ar
    32     8    10   ar
    33     8     6   ar
    34   130   131    1
    35   130   121   am
    36   146   147    2
    37   149   148    1
    38   149   150   ar
    39   131   134    1
    40     5     6    1
    41    10    11   ar
    42   120   121    1
    43   120   123    1
    44   152   150   ar
    45     6     7   ar
    46   121   122    2
    47   105   107   ar
    48   134   135    1
    49   140   142   ar
    50   140   137   ar
    51   108   107   ar
    52   108   109    1
    53   142   143   ar
    54   124   123    1
    55   124   125    1
    56   129   127    1
    57   126   127    2
    58   126   125    1
    59    11    12    1
    60    11     9   ar
    61   137   135   ar
    62   137   139   ar
    63   135   136   ar
    64     7     9   ar
    65   127   128    1
    66   143   141   ar
    67   139   141   ar
    68   139   138   ar
    69   136   138   ar
    70    30    28   ar
    71    30    31   ar
    72    32    31    1
    73    28    26   ar
    74    31    29   ar
    75    26    25    1
    76    26    27   ar
    77    29    27   ar
    78    96    95    2
    79   170   168   ar
    80   170   171   ar
    81    25    22    1
    82    24    23    2
    83   168   166   ar
    84   171   169   ar
    85    22    23    1
    86    22    21    1
    87    95    97   am
    88    95    94    1
    89    90    91    1
    90   166   165    1
    91   166   167   ar
    92    91    94    1
    93    91    92    1
    94    56    55   ar
    95    56    54   ar
    96   169   167   ar
    97   165   162    1
    98    21    15   am
    99    20    18    1
   100    55    53   ar
   101    92    93    2
   102   155   156    1
   103   160   159    1
   104    54    52   ar
   105    16    15    2
   106    15    14    1
   107    18    17    1
   108    18    19    1
   109   161   162    1
   110   161   157   am
   111   159   156    1
   112   162   163    1
   113    50    49    2
   114   163   164    2
   115   156   157    1
   116    17    14    1
   117    53    52   ar
   118    52    51    1
   119   157   158    2
   120    14    13    1
   121    70    69    1
   122    49    48    1
   123    49    57   am
   124    48    51    1
   125    48    47    1
   126    69    68    1
   127    45    46   ar
   128    45    43   ar
   129    61    58    1
   130    61    62    1
   131    46    44   ar
   132    58    57    1
   133    58    59    1
   134    43    40   ar
   135    44    42   ar
   136    68    67    1
   137    59    60    2
   138    40    42   ar
   139    40    38   ar
   140    42    41   ar
   141    67    64    1
   142    63    64    1
   143    38    37    1
   144    38    39   ar
   145    37    34    1
   146    41    39   ar
   147    34    33    1
   148    34    35    1
   149    64    65    1
   150    89    87   ar
   151    89    88   ar
   152    66    65    2
   153    77    76    1
   154    87    85   ar
   155    35    36    2
   156    88    86   ar
   157    78    76    1
   158    76    75    1
   159    85    84   ar
   160    86    84   ar
   161    84    83    1
   162    75    72    1
   163    71    72    1
   164    72    73    1
   165    83    80    1
   166    80    79    1
   167    80    81    1
   168    73    74    2
   169    81    82    2
