@<TRIPOS>MOLECULE
tmp/3r7oA00.pdb
 190 183 0 0 0
SMALL
GASTEIGER

@<TRIPOS>ATOM
      1  N         -0.9250   -9.2890  -11.0460 N.3    37  ILE37      -0.1231
      2  CA        -1.2040   -8.7920  -12.4050 C.3    37  ILE37       0.1692
      3  C         -1.6560   -7.3260  -12.5020 C.2    37  ILE37       0.2593
      4  O         -1.6320   -6.7470  -13.5900 O.2    37  ILE37      -0.2718
      5  CB        -2.0360   -9.7750  -13.2610 C.3    37  ILE37       0.0266
      6  CG1       -3.3920  -10.1350  -12.6080 C.3    37  ILE37       0.0019
      7  CG2       -1.1980  -11.0050  -13.5810 C.3    37  ILE37       0.0020
      8  CD1       -4.3850  -10.8070  -13.5310 C.3    37  ILE37       0.0001
      9  N         -2.0400   -6.7420  -11.3680 N.am   38  GLY38      -0.1942
     10  CA        -2.4700   -5.3510  -11.2670 C.3    38  GLY38       0.2014
     11  C         -2.3570   -4.8080   -9.8540 C.2    38  GLY38       0.2639
     12  O         -2.3220   -5.5820   -8.8940 O.2    38  GLY38      -0.2714
     13  N         -2.2780   -3.4760   -9.7190 N.am   39  ARG39      -0.1963
     14  CA        -2.1820   -2.7730   -8.4280 C.3    39  ARG39       0.1729
     15  C         -2.9500   -1.4710   -8.5050 C.2    39  ARG39       0.2616
     16  O         -2.8800   -0.7720   -9.5080 O.2    39  ARG39      -0.2715
     17  CB        -0.7260   -2.4670   -8.0250 C.3    39  ARG39       0.0348
     18  CG         0.1700   -3.6750   -7.8060 C.3    39  ARG39       0.0492
     19  CD         1.5940   -3.2540   -7.5060 C.3    39  ARG39       0.2205
     20  NE         2.5520   -4.3000   -7.8650 N.pl3  39  ARG39      -0.0865
     21  CZ         2.9400   -5.2760   -7.0510 C.cat  39  ARG39       0.5346
     22  NH1        2.4560   -5.3540   -5.8150 N.pl3  39  ARG39       0.1354
     23  NH2        3.8110   -6.1870   -7.4670 N.pl3  39  ARG39       0.1354
     24  N         -3.6620   -1.1640   -7.4360 N.am   40  GLY40      -0.1955
     25  CA        -4.4640    0.0430   -7.2920 C.3    40  GLY40       0.1869
     26  C         -4.5160    0.5060   -5.8500 C.2    40  GLY40       0.2309
     27  O         -3.7260    0.0340   -5.0180 O.2    40  GLY40      -0.2863
     28  N         -4.1230   -7.3820   -7.6620 N.3    45  VAL45      -0.1245
     29  CA        -4.9270   -8.2160   -8.5460 C.3    45  VAL45       0.1561
     30  C         -4.0640   -9.4390   -8.8390 C.2    45  VAL45       0.2260
     31  O         -2.8790   -9.2980   -9.1430 O.2    45  VAL45      -0.2867
     32  CB        -5.4350   -7.5110   -9.8380 C.3    45  VAL45       0.0252
     33  CG1       -6.3700   -8.4280  -10.6320 C.3    45  VAL45       0.0019
     34  CG2       -6.1330   -6.1860   -9.5210 C.3    45  VAL45       0.0019
     35  N         -3.5690  -13.5340  -10.7040 N.3    47  HIS47      -0.1241
     36  CA        -3.9340  -14.5080  -11.7230 C.3    47  HIS47       0.1621
     37  C         -4.8180  -15.4770  -10.9390 C.2    47  HIS47       0.2264
     38  O         -4.5270  -15.7820   -9.7780 O.2    47  HIS47      -0.2867
     39  CB        -2.6890  -15.2830  -12.1880 C.3    47  HIS47       0.0745
     40  CG        -2.0730  -14.8130  -13.4640 C.ar   47  HIS47       0.0817
     41  ND1       -2.7610  -14.8780  -14.6670 N.ar   47  HIS47      -0.2268
     42  CD2       -0.8190  -14.3540  -13.7000 C.ar   47  HIS47       0.1154
     43  CE1       -1.9200  -14.4220  -15.5870 C.ar   47  HIS47       0.1986
     44  NE2       -0.7400  -14.0860  -15.0520 N.ar   47  HIS47      -0.2212
     45  N         -9.0220  -12.9610  -13.1960 N.3    61  ALA61      -0.1245
     46  CA        -8.2780  -11.9380  -12.4710 C.3    61  ALA61       0.1562
     47  C         -8.9810  -11.8430  -11.1190 C.2    61  ALA61       0.2260
     48  O        -10.2070  -11.8330  -11.0660 O.2    61  ALA61      -0.2867
     49  CB        -8.3590  -10.6060  -13.2070 C.3    61  ALA61       0.0290
     50  N         -9.2870   -9.6270   -7.6340 N.3    63  LYS63      -0.1245
     51  CA        -9.0070   -8.4080   -6.8770 C.3    63  LYS63       0.1561
     52  C         -9.1140   -8.7380   -5.3810 C.2    63  LYS63       0.2260
     53  O        -10.0400   -9.4270   -4.9410 O.2    63  LYS63      -0.2867
     54  CB       -10.0150   -7.2950   -7.2130 C.3    63  LYS63       0.0271
     55  CG        -9.8050   -6.5950   -8.5350 C.3    63  LYS63       0.0035
     56  CD       -10.7270   -5.3840   -8.6400 C.3    63  LYS63       0.0206
     57  CE        -9.9670   -4.0770   -8.5670 C.3    63  LYS63       0.1093
     58  NZ       -10.8760   -2.8950   -8.5880 N.3    63  LYS63      -0.1314
     59  N        -16.3490   -4.1300  -18.4410 N.3    93  LEU93      -0.1245
     60  CA       -15.9280   -5.3840  -17.8360 C.3    93  LEU93       0.1561
     61  C        -17.0280   -5.9000  -16.8900 C.2    93  LEU93       0.2260
     62  O        -17.5630   -5.1350  -16.0940 O.2    93  LEU93      -0.2867
     63  CB       -14.5870   -5.2390  -17.1070 C.3    93  LEU93       0.0270
     64  CG       -13.9560   -6.5550  -16.6120 C.3    93  LEU93       0.0019
     65  CD1      -13.7460   -7.5260  -17.7600 C.3    93  LEU93       0.0001
     66  CD2      -12.6700   -6.2990  -15.8740 C.3    93  LEU93       0.0001
     67  N        -12.8920  -11.4220  -11.6590 N.3   110  LEU110     -0.1231
     68  CA       -13.1460  -10.7710  -12.9230 C.3   110  LEU110      0.1678
     69  C        -12.5980  -11.5590  -14.1030 C.2   110  LEU110      0.2434
     70  O        -11.6470  -12.3170  -13.9140 O.2   110  LEU110     -0.2733
     71  CB       -12.5040   -9.3590  -12.8910 C.3   110  LEU110      0.0284
     72  CG       -12.9700   -8.4150  -11.7770 C.3   110  LEU110      0.0019
     73  CD1      -12.2240   -7.0860  -11.8260 C.3   110  LEU110      0.0001
     74  CD2      -14.4890   -8.1870  -11.8290 C.3   110  LEU110      0.0001
     75  N        -13.1450  -11.3760  -15.3340 N.am  111  PRO111     -0.2718
     76  CA       -12.5730  -12.0800  -16.4890 C.3   111  PRO111      0.1535
     77  C        -11.1550  -11.5840  -16.7750 C.2   111  PRO111      0.2599
     78  O        -10.8680  -10.3880  -16.6590 O.2   111  PRO111     -0.2715
     79  CB       -13.5400  -11.7460  -17.6400 C.3   111  PRO111      0.0310
     80  CG       -14.7870  -11.1820  -16.9820 C.3   111  PRO111      0.0237
     81  CD       -14.2730  -10.5130  -15.7400 C.3   111  PRO111      0.0939
     82  N        -10.2640  -12.5060  -17.1240 N.am  112  TYR112     -0.1960
     83  CA        -8.8750  -12.1900  -17.4430 C.3   112  TYR112      0.1771
     84  C         -8.7730  -11.4620  -18.8000 C.2   112  TYR112      0.2619
     85  O         -9.2850  -11.9500  -19.8120 O.2   112  TYR112     -0.2715
     86  CB        -8.0010  -13.4600  -17.4330 C.3   112  TYR112      0.0574
     87  CG        -6.5380  -13.1730  -17.6950 C.ar  112  TYR112     -0.0198
     88  CD1       -5.9650  -13.4470  -18.9340 C.ar  112  TYR112     -0.0009
     89  CD2       -5.7290  -12.6090  -16.7100 C.ar  112  TYR112     -0.0009
     90  CE1       -4.6200  -13.1810  -19.1830 C.ar  112  TYR112      0.0417
     91  CE2       -4.3800  -12.3430  -16.9460 C.ar  112  TYR112      0.0417
     92  CZ        -3.8300  -12.6300  -18.1860 C.ar  112  TYR112      0.1957
     93  OH        -2.5030  -12.3650  -18.4320 O.3   112  TYR112     -0.2866
     94  N         -8.0940  -10.3100  -18.8060 N.am  113  MET113     -0.1963
     95  CA        -7.8900   -9.4760  -19.9890 C.3   113  MET113      0.1736
     96  C         -6.4550   -9.6660  -20.5170 C.2   113  MET113      0.2616
     97  O         -5.5110   -9.0230  -20.0510 O.2   113  MET113     -0.2715
     98  CB        -8.2100   -8.0100  -19.6470 C.3   113  MET113      0.0427
     99  CG        -9.6340   -7.8220  -19.1570 C.3   113  MET113      0.0599
    100  SD       -10.8490   -7.7480  -20.4980 S.3   113  MET113     -0.1393
    101  CE       -11.7570   -9.1940  -20.1950 C.3   113  MET113      0.0692
    102  N         -6.3130  -10.5730  -21.4810 N.am  114  LYS114     -0.1963
    103  CA        -5.0540  -10.9980  -22.1140 C.3   114  LYS114      0.1728
    104  C         -3.9680   -9.9320  -22.3050 C.2   114  LYS114      0.2616
    105  O         -2.8290  -10.1310  -21.8880 O.2   114  LYS114     -0.2715
    106  CB        -5.3360  -11.7430  -23.4340 C.3   114  LYS114      0.0311
    107  CG        -4.1600  -12.5810  -23.9270 C.3   114  LYS114      0.0038
    108  CD        -4.3260  -12.9740  -25.3800 C.3   114  LYS114      0.0206
    109  CE        -3.0270  -13.4910  -25.9550 C.3   114  LYS114      0.1093
    110  NZ        -2.9820  -13.3270  -27.4330 N.3   114  LYS114     -0.1314
    111  N         -4.3140   -8.8080  -22.9440 N.am  115  HIS115     -0.1959
    112  CA        -3.3250   -7.7660  -23.2100 C.3   115  HIS115      0.1787
    113  C         -3.1570   -6.7120  -22.1370 C.2   115  HIS115      0.2621
    114  O         -2.3960   -5.7610  -22.3220 O.2   115  HIS115     -0.2715
    115  CB        -3.5040   -7.2050  -24.6120 C.3   115  HIS115      0.0785
    116  CG        -3.5120   -8.2820  -25.6500 C.ar  115  HIS115      0.0821
    117  ND1       -2.3410   -8.8640  -26.0910 N.ar  115  HIS115     -0.2267
    118  CD2       -4.5570   -8.8800  -26.2640 C.ar  115  HIS115      0.1154
    119  CE1       -2.7100   -9.7790  -26.9750 C.ar  115  HIS115      0.1986
    120  NE2       -4.0360   -9.8280  -27.1040 N.ar  115  HIS115     -0.2212
    121  N         -3.8350   -6.9020  -21.0060 N.am  116  GLY116     -0.1940
    122  CA        -3.7440   -5.9870  -19.8740 C.3   116  GLY116      0.2014
    123  C         -4.2890   -4.5990  -20.1420 C.2   116  GLY116      0.2638
    124  O         -5.1100   -4.4100  -21.0470 O.2   116  GLY116     -0.2714
    125  N         -3.8230   -3.6230  -19.3470 N.am  117  ASP117     -0.1971
    126  CA        -4.2750   -2.2430  -19.4090 C.3   117  ASP117      0.1709
    127  C         -3.9650   -1.4860  -20.6810 C.2   117  ASP117      0.2293
    128  O         -2.9010   -1.6600  -21.2600 O.2   117  ASP117     -0.2864
    129  CB        -3.9130   -1.4480  -18.1360 C.3   117  ASP117      0.1436
    130  CG        -2.4770   -0.9690  -18.1030 C.2   117  ASP117      0.3671
    131  OD1       -1.5870   -1.7720  -17.7080 O.co2 117  ASP117     -0.2456
    132  OD2       -2.2360    0.2050  -18.4770 O.co2 117  ASP117     -0.2456
    133  N         -0.5070    0.8840  -20.7720 N.3   120  ASN120     -0.1240
    134  CA         0.7100    0.1430  -21.0680 C.3   120  ASN120      0.1653
    135  C          0.7440   -0.4270  -22.4850 C.2   120  ASN120      0.2266
    136  O          1.7960   -0.3760  -23.1220 O.2   120  ASN120     -0.2867
    137  CB         0.9970   -0.9250  -20.0000 C.3   120  ASN120      0.1155
    138  CG         1.5550   -0.3440  -18.7260 C.2   120  ASN120      0.2627
    139  OD1        2.5240    0.4250  -18.7290 O.2   120  ASN120     -0.2716
    140  ND2        0.9530   -0.6980  -17.6050 N.am  120  ASN120     -0.0877
    141  N          3.6010   -3.6260  -30.0500 N.3   127  HIS127     -0.1241
    142  CA         2.1710   -3.5110  -30.3110 C.3   127  HIS127      0.1621
    143  C          1.9990   -2.4140  -31.3720 C.2   127  HIS127      0.2264
    144  O          1.2290   -2.6020  -32.3160 O.2   127  HIS127     -0.2867
    145  CB         1.4240   -3.0890  -29.0250 C.3   127  HIS127      0.0745
    146  CG         1.1130   -4.2070  -28.0770 C.ar  127  HIS127      0.0817
    147  ND1        1.4510   -4.1290  -26.7370 N.ar  127  HIS127     -0.2268
    148  CD2        0.4810   -5.3830  -28.2990 C.ar  127  HIS127      0.1154
    149  CE1        1.0210   -5.2550  -26.1920 C.ar  127  HIS127      0.1986
    150  NE2        0.4320   -6.0400  -27.0910 N.ar  127  HIS127     -0.2212
    151  N         -5.4040    3.7720  -17.9220 N.3   161  ARG161     -0.1231
    152  CA        -4.8960    2.7700  -16.9420 C.3   161  ARG161      0.1694
    153  C         -5.9920    1.8490  -16.4320 C.2   161  ARG161      0.2592
    154  O         -5.7120    0.7030  -16.0660 O.2   161  ARG161     -0.2718
    155  CB        -4.1820    3.4500  -15.7360 C.3   161  ARG161      0.0321
    156  CG        -5.0440    4.4400  -14.9280 C.3   161  ARG161      0.0489
    157  CD        -4.3290    5.0820  -13.7430 C.3   161  ARG161      0.2205
    158  NE        -5.2410    5.9620  -12.9950 N.pl3 161  ARG161     -0.0865
    159  CZ        -5.3630    7.2790  -13.1790 C.cat 161  ARG161      0.5346
    160  NH1       -4.6100    7.9090  -14.0730 N.pl3 161  ARG161      0.1354
    161  NH2       -6.2290    7.9750  -12.4630 N.pl3 161  ARG161      0.1354
    162  N         -7.2470    2.3660  -16.4110 N.am  162  ASN162     -0.1974
    163  CA        -8.4390    1.6720  -15.9100 C.3   162  ASN162      0.1688
    164  C         -9.2370    0.9460  -16.9480 C.2   162  ASN162      0.2292
    165  O        -10.2980    0.4150  -16.6390 O.2   162  ASN162     -0.2864
    166  CB        -9.2880    2.6050  -15.0310 C.3   162  ASN162      0.1181
    167  CG        -8.5240    3.0960  -13.8090 C.2   162  ASN162      0.2629
    168  OD1       -7.7940    2.3480  -13.1490 O.2   162  ASN162     -0.2716
    169  ND2       -8.6670    4.3640  -13.4800 N.am  162  ASN162     -0.0877
    170  N         -8.9760   -2.0950  -20.1070 N.3   164  MET164     -0.1245
    171  CA        -8.2250   -3.2970  -20.4490 C.3   164  MET164      0.1570
    172  C         -8.5580   -3.7900  -21.8510 C.2   164  MET164      0.2261
    173  O         -9.6210   -3.4600  -22.3710 O.2   164  MET164     -0.2867
    174  CB        -8.5800   -4.4120  -19.4520 C.3   164  MET164      0.0387
    175  CG        -8.2830   -4.0980  -18.0100 C.3   164  MET164      0.0595
    176  SD        -6.6730   -4.6300  -17.5010 S.3   164  MET164     -0.1393
    177  CE        -6.4250   -3.5510  -16.1100 C.3   164  MET164      0.0692
    178  N        -12.5250   -1.2260  -17.1880 N.3   174  ALA174     -0.1231
    179  CA       -12.2810   -2.3240  -16.2280 C.3   174  ALA174      0.1694
    180  C        -12.3090   -2.0590  -14.7450 C.2   174  ALA174      0.2592
    181  O        -12.7240   -2.9430  -13.9870 O.2   174  ALA174     -0.2718
    182  CB       -10.9870   -3.0410  -16.5750 C.3   174  ALA174      0.0304
    183  N        -11.8070   -0.9050  -14.3130 N.am  175  ASP175     -0.1974
    184  CA       -11.8050   -0.5850  -12.8970 C.3   175  ASP175      0.1709
    185  C        -12.9750    0.3070  -12.5580 C.2   175  ASP175      0.2293
    186  O        -13.2680    1.2480  -13.2970 O.2   175  ASP175     -0.2864
    187  CB       -10.4960    0.0750  -12.4700 C.3   175  ASP175      0.1436
    188  CG       -10.3460   -0.0350  -10.9790 C.2   175  ASP175      0.3671
    189  OD1       -9.7920   -1.0560  -10.5150 O.co2 175  ASP175     -0.2456
    190  OD2      -10.8230    0.8710  -10.2730 O.co2 175  ASP175     -0.2456
@<TRIPOS>BOND
     1   144   143    2
     2   143   142    1
     3   142   141    1
     4   142   145    1
     5   145   146    1
     6   148   146   ar
     7   148   150   ar
     8   146   147   ar
     9   110   109    1
    10   120   119   ar
    11   120   118   ar
    12   150   149   ar
    13   119   117   ar
    14   147   149   ar
    15   118   116   ar
    16   117   116   ar
    17   109   108    1
    18   116   115    1
    19   108   107    1
    20   115   112    1
    21   107   106    1
    22   106   103    1
    23   112   111    1
    24   112   113    1
    25   136   135    2
    26   111   104   am
    27   135   134    1
    28   173   172    2
    29   114   113    2
    30   104   103    1
    31   104   105    2
    32   113   121   am
    33   103   102    1
    34   172   171    1
    35   102    96   am
    36   128   127    2
    37   134   133    1
    38   134   137    1
    39   124   123    2
    40   121   122    1
    41   127   126    1
    42    96    97    2
    43    96    95    1
    44   100   101    1
    45   100    99    1
    46   171   170    1
    47   171   174    1
    48   123   122    1
    49   123   125   am
    50   137   138    1
    51    95    98    1
    52    95    94    1
    53    85    84    2
    54    98    99    1
    55   174   175    1
    56   126   125    1
    57   126   129    1
    58    90    88   ar
    59    90    92   ar
    60    88    87   ar
    61    94    84   am
    62    84    83    1
    63   139   138    2
    64   138   140   am
    65   132   130   ar
    66    59    60    1
    67    93    92    1
    68    92    91   ar
    69   129   130    1
    70   130   131   ar
    71   175   176    1
    72   151   152    1
    73    60    63    1
    74    60    61    1
    75    65    64    1
    76    87    86    1
    77    87    89   ar
    78    79    80    1
    79    79    76    1
    80   176   177    1
    81    83    86    1
    82    83    82    1
    83   178   179    1
    84    82    77   am
    85    63    64    1
    86    80    81    1
    87   164   165    2
    88   164   163    1
    89    91    89   ar
    90   152   153    1
    91   152   155    1
    92    61    62    2
    93    77    78    2
    94    77    76    1
    95    64    66    1
    96   182   179    1
    97    76    75    1
    98   153   162   am
    99   153   154    2
   100   162   163    1
   101   179   180    1
   102   163   166    1
   103    81    75    1
   104   155   156    1
   105    43    44   ar
   106    43    41   ar
   107    75    69   am
   108    44    42   ar
   109   166   167    1
   110   156   157    1
   111   180   183   am
   112   180   181    2
   113    41    40   ar
   114   183   184    1
   115    69    70    2
   116    69    68    1
   117   160   159    1
   118   167   169   am
   119   167   168    2
   120   157   158    1
   121    42    40   ar
   122     4     3    2
   123     7     5    1
   124     8     6    1
   125    40    39    1
   126   186   185    2
   127     5     6    1
   128     5     2    1
   129    49    46    1
   130    45    46    1
   131   159   158    2
   132   159   161    1
   133    68    71    1
   134    68    67    1
   135   184   185    1
   136   184   187    1
   137    71    72    1
   138     3     2    1
   139     3     9   am
   140    46    47    1
   141   187   188    1
   142     2     1    1
   143    39    36    1
   144    74    72    1
   145    73    72    1
   146    36    37    1
   147    36    35    1
   148     9    10    1
   149    10    11    1
   150    47    48    2
   151   188   189   ar
   152   188   190   ar
   153    37    38    2
   154    33    32    1
   155    11    13   am
   156    11    12    2
   157    32    34    1
   158    32    29    1
   159    13    14    1
   160    16    15    2
   161    31    30    2
   162    30    29    1
   163    56    57    1
   164    56    55    1
   165    58    57    1
   166    29    28    1
   167    55    54    1
   168    15    14    1
   169    15    24   am
   170    14    17    1
   171    17    18    1
   172    20    19    1
   173    20    21    2
   174    18    19    1
   175    50    51    1
   176    23    21    1
   177    24    25    1
   178    25    26    1
   179    54    51    1
   180    21    22    1
   181    51    52    1
   182    26    27    2
   183    52    53    2
