@<TRIPOS>MOLECULE
tmp/3r7qA00.pdb
 160 150 0 0 0
SMALL
GASTEIGER

@<TRIPOS>ATOM
      1  N         17.5090   63.7830   11.0380 N.3   567  MET567     -0.1245
      2  CA        17.8370   64.7190   12.0970 C.3   567  MET567      0.1570
      3  C         18.7730   65.8130   11.6450 C.2   567  MET567      0.2261
      4  O         19.5230   65.6420   10.6750 O.2   567  MET567     -0.2867
      5  CB        18.4720   63.9890   13.2730 C.3   567  MET567      0.0387
      6  CG        17.5640   62.9410   13.8940 C.3   567  MET567      0.0595
      7  SD        18.2110   62.3550   15.4980 S.3   567  MET567     -0.1393
      8  CE        19.1680   60.9750   14.8990 C.3   567  MET567      0.0692
      9  N         21.7770   67.5460   12.3280 N.3   569  SER569     -0.1217
     10  CA        23.0670   67.5580   13.0200 C.3   569  SER569      0.1889
     11  C         24.1750   67.4250   11.9540 C.2   569  SER569      0.2288
     12  O         23.8800   67.0570   10.8150 O.2   569  SER569     -0.2866
     13  CB        23.1250   66.4260   14.0430 C.3   569  SER569      0.2089
     14  OG        22.7110   65.1990   13.4830 O.3   569  SER569     -0.2183
     15  N         21.8620   61.6980   10.6760 N.3   573  PRO573     -0.2116
     16  CA        21.2790   60.4400   11.1280 C.3   573  PRO573      0.1372
     17  C         19.7510   60.3450   10.9640 C.2   573  PRO573      0.2244
     18  O         19.0650   61.3540   11.0090 O.2   573  PRO573     -0.2868
     19  CB        21.6830   60.4000   12.5990 C.3   573  PRO573      0.0268
     20  CG        21.6010   61.8840   12.9890 C.3   573  PRO573      0.0207
     21  CD        22.1660   62.6010   11.8030 C.3   573  PRO573      0.0892
     22  N         15.9540   59.2330   12.1750 N.3   575  TRP575     -0.1241
     23  CA        15.1810   59.1420   13.3950 C.3   575  TRP575      0.1605
     24  C         14.0490   58.2530   12.9600 C.2   575  TRP575      0.2264
     25  O         13.1180   58.6710   12.2830 O.2   575  TRP575     -0.2867
     26  CB        14.6820   60.5390   13.7720 C.3   575  TRP575      0.0550
     27  CG        13.5980   60.5460   14.8330 C.ar  575  TRP575      0.0003
     28  CD1       12.2940   60.1410   14.6700 C.ar  575  TRP575      0.0946
     29  CD2       13.6700   61.1020   16.1560 C.ar  575  TRP575      0.0152
     30  NE1       11.5860   60.3350   15.8260 N.ar  575  TRP575     -0.2442
     31  CE2       12.3990   60.9340   16.7510 C.ar  575  TRP575      0.0810
     32  CE3       14.6900   61.6890   16.9070 C.ar  575  TRP575      0.0012
     33  CZ2       12.1240   61.3370   18.0610 C.ar  575  TRP575      0.0191
     34  CZ3       14.4170   62.0830   18.2030 C.ar  575  TRP575      0.0001
     35  CH2       13.1480   61.9020   18.7700 C.ar  575  TRP575      0.0015
     36  N         17.6420   55.7240   16.5940 N.3   594  ILE594     -0.1245
     37  CA        18.3870   56.6280   15.7750 C.3   594  ILE594      0.1561
     38  C         19.4070   55.7090   15.1070 C.2   594  ILE594      0.2260
     39  O         20.1840   55.0160   15.7790 O.2   594  ILE594     -0.2867
     40  CB        19.1340   57.7100   16.5880 C.3   594  ILE594      0.0252
     41  CG1       18.1980   58.8230   17.0540 C.3   594  ILE594      0.0019
     42  CG2       20.2690   58.2740   15.8050 C.3   594  ILE594      0.0019
     43  CD1       18.6490   59.4780   18.3390 C.3   594  ILE594      0.0001
     44  N         22.6470   55.7870   12.6760 N.3   596  LYS596     -0.1245
     45  CA        23.5700   56.7950   12.1460 C.3   596  LYS596      0.1561
     46  C         24.7560   56.1830   11.4090 C.2   596  LYS596      0.2260
     47  O         25.2050   55.0910   11.7050 O.2   596  LYS596     -0.2867
     48  CB        24.0790   57.7320   13.2350 C.3   596  LYS596      0.0271
     49  CG        25.1650   58.6670   12.7120 C.3   596  LYS596      0.0035
     50  CD        25.3210   59.8900   13.5720 C.3   596  LYS596      0.0206
     51  CE        25.7860   59.5380   14.9520 C.3   596  LYS596      0.1093
     52  NZ        25.9990   60.8120   15.7050 N.3   596  LYS596     -0.1314
     53  N         30.8520   54.3230   16.6880 N.3   601  LEU601     -0.1245
     54  CA        30.0560   54.2870   17.9470 C.3   601  LEU601      0.1561
     55  C         30.6540   53.4390   19.0910 C.2   601  LEU601      0.2260
     56  O         30.1000   53.4080   20.1780 O.2   601  LEU601     -0.2867
     57  CB        28.6460   53.7940   17.6180 C.3   601  LEU601      0.0270
     58  CG        27.5810   54.8530   17.2690 C.3   601  LEU601      0.0019
     59  CD1       28.1940   56.1980   17.0360 C.3   601  LEU601      0.0001
     60  CD2       26.8160   54.4470   15.9960 C.3   601  LEU601      0.0001
     61  N         31.2940   55.2490   22.3550 N.3   604  ASP604     -0.1239
     62  CA        30.0520   55.3930   23.1090 C.3   604  ASP604      0.1674
     63  C         29.6010   54.0800   23.7280 C.2   604  ASP604      0.2266
     64  O         29.1900   54.1130   24.8740 O.2   604  ASP604     -0.2867
     65  CB        28.9370   55.8940   22.2200 C.3   604  ASP604      0.1410
     66  CG        29.2310   57.2630   21.6800 C.2   604  ASP604      0.3668
     67  OD1       30.2710   57.4100   20.9920 O.co2 604  ASP604     -0.2456
     68  OD2       28.4540   58.1940   22.0110 O.co2 604  ASP604     -0.2456
     69  N         21.3440   54.7500   27.9880 N.3   630  TYR630     -0.1241
     70  CA        20.4640   54.3320   26.8960 C.3   630  TYR630      0.1605
     71  C         21.2060   53.4100   25.9490 C.2   630  TYR630      0.2264
     72  O         22.4330   53.4560   25.8560 O.2   630  TYR630     -0.2867
     73  CB        19.9600   55.5980   26.1610 C.3   630  TYR630      0.0534
     74  CG        21.1500   56.4370   25.7750 C.ar  630  TYR630     -0.0201
     75  CD1       21.8810   56.1510   24.6320 C.ar  630  TYR630     -0.0009
     76  CD2       21.5710   57.5050   26.5870 C.ar  630  TYR630     -0.0009
     77  CE1       23.0030   56.8910   24.3020 C.ar  630  TYR630      0.0417
     78  CE2       22.7380   58.2930   26.2470 C.ar  630  TYR630      0.0417
     79  CZ        23.4290   57.9640   25.1080 C.ar  630  TYR630      0.1957
     80  OH        24.5530   58.6540   24.7310 O.3   630  TYR630     -0.2866
     81  N         21.0100   53.7500   18.1360 N.3   642  ILE642     -0.1231
     82  CA        20.9100   54.4380   19.4080 C.3   642  ILE642      0.1692
     83  C         19.4690   54.5300   19.8160 C.2   642  ILE642      0.2592
     84  O         18.5670   54.8650   19.0310 O.2   642  ILE642     -0.2718
     85  CB        21.4710   55.8620   19.2820 C.3   642  ILE642      0.0266
     86  CG1       22.9960   55.7270   19.0640 C.3   642  ILE642      0.0019
     87  CG2       21.2480   56.6340   20.5470 C.3   642  ILE642      0.0020
     88  CD1       23.7780   57.0310   18.7670 C.3   642  ILE642      0.0001
     89  N         19.2610   54.2760   21.0890 N.am  643  GLU643     -0.1966
     90  CA        17.9310   54.3120   21.6040 C.3   643  GLU643      0.1733
     91  C         17.4760   55.7560   21.7270 C.2   643  GLU643      0.2616
     92  O         18.2600   56.6410   22.1160 O.2   643  GLU643     -0.2715
     93  CB        17.9040   53.6740   22.9710 C.3   643  GLU643      0.0429
     94  CG        16.5960   53.8760   23.6830 C.3   643  GLU643      0.1163
     95  CD        16.5650   53.1540   25.0150 C.2   643  GLU643      0.3649
     96  OE1       15.4950   53.1600   25.6550 O.co2 643  GLU643     -0.2457
     97  OE2       17.6310   52.6550   25.4650 O.co2 643  GLU643     -0.2457
     98  N         16.2060   55.9950   21.4390 N.am  644  ILE644     -0.1963
     99  CA        15.6440   57.3110   21.6090 C.3   644  ILE644      0.1727
    100  C         14.9800   57.2660   22.9780 C.2   644  ILE644      0.2616
    101  O         13.9970   56.5320   23.1830 O.2   644  ILE644     -0.2715
    102  CB        14.5830   57.6480   20.5910 C.3   644  ILE644      0.0290
    103  CG1       15.2190   57.9690   19.2360 C.3   644  ILE644      0.0022
    104  CG2       13.7450   58.8150   21.1190 C.3   644  ILE644      0.0023
    105  CD1       14.1990   58.2080   18.1760 C.3   644  ILE644      0.0001
    106  N         15.5110   58.0290   23.9220 N.am  645  VAL645     -0.1977
    107  CA        14.8990   58.0300   25.2220 C.3   645  VAL645      0.1596
    108  C         13.6580   58.8950   25.0680 C.2   645  VAL645      0.2287
    109  O         13.6980   60.0770   24.6760 O.2   645  VAL645     -0.2864
    110  CB        15.8080   58.6320   26.2530 C.3   645  VAL645      0.0276
    111  CG1       15.0960   58.7200   27.5840 C.3   645  VAL645      0.0022
    112  CG2       16.9940   57.7600   26.3320 C.3   645  VAL645      0.0022
    113  N         12.2470   63.2460   26.1210 N.3   648  ALA648     -0.1245
    114  CA        13.5190   63.8320   26.4760 C.3   648  ALA648      0.1562
    115  C         13.9290   64.9770   25.5540 C.2   648  ALA648      0.2260
    116  O         13.7270   64.9320   24.3320 O.2   648  ALA648     -0.2867
    117  CB        14.5730   62.7770   26.4320 C.3   648  ALA648      0.0290
    118  N         25.0100   68.3680   24.9460 N.3   710  ASN710     -0.1240
    119  CA        25.3820   66.9520   25.1090 C.3   710  ASN710      0.1653
    120  C         24.8020   66.4140   26.4170 C.2   710  ASN710      0.2266
    121  O         25.2850   65.4000   26.9470 O.2   710  ASN710     -0.2867
    122  CB        26.9210   66.7560   25.1170 C.3   710  ASN710      0.1155
    123  CG        27.6210   67.1830   23.8200 C.2   710  ASN710      0.2627
    124  OD1       28.6700   67.8240   23.8690 O.2   710  ASN710     -0.2716
    125  ND2       27.0950   66.7610   22.6730 N.am  710  ASN710     -0.0877
    126  N         20.9450   65.6610   28.3460 N.3   712  MET712     -0.1245
    127  CA        19.4990   65.6920   28.2200 C.3   712  MET712      0.1570
    128  C         18.7400   65.4480   29.5210 C.2   712  MET712      0.2261
    129  O         19.3140   65.0960   30.5490 O.2   712  MET712     -0.2867
    130  CB        19.0650   64.6570   27.2070 C.3   712  MET712      0.0387
    131  CG        19.6360   64.9370   25.8230 C.3   712  MET712      0.0595
    132  SD        19.1270   63.7530   24.5500 S.3   712  MET712     -0.1393
    133  CE        17.4060   64.1430   24.3180 C.3   712  MET712      0.0692
    134  N         20.6230   63.0530   32.1100 N.3   720  PHE720     -0.1241
    135  CA        21.5490   62.0610   31.5340 C.3   720  PHE720      0.1605
    136  C         22.3850   62.6300   30.3970 C.2   720  PHE720      0.2264
    137  O         21.9000   63.4540   29.6320 O.2   720  PHE720     -0.2867
    138  CB        20.8080   60.7880   31.0960 C.3   720  PHE720      0.0534
    139  CG        19.9670   60.9340   29.8280 C.ar  720  PHE720     -0.0203
    140  CD1       20.4430   60.4860   28.5910 C.ar  720  PHE720     -0.0042
    141  CD2       18.6950   61.4980   29.8730 C.ar  720  PHE720     -0.0042
    142  CE1       19.6600   60.5890   27.4350 C.ar  720  PHE720     -0.0003
    143  CE2       17.9030   61.6150   28.7130 C.ar  720  PHE720     -0.0003
    144  CZ        18.3870   61.1670   27.4940 C.ar  720  PHE720     -0.0000
    145  N         25.0220   62.4980   26.9100 N.3   722  ILE722     -0.1231
    146  CA        25.0180   61.7380   25.6600 C.3   722  ILE722      0.1692
    147  C         26.2190   62.0010   24.7610 C.2   722  ILE722      0.2592
    148  O         27.1000   62.8050   25.0780 O.2   722  ILE722     -0.2718
    149  CB        23.8180   62.1080   24.8030 C.3   722  ILE722      0.0266
    150  CG1       23.8240   63.6010   24.4430 C.3   722  ILE722      0.0019
    151  CG2       22.5410   61.6660   25.4550 C.3   722  ILE722      0.0020
    152  CD1       22.9290   63.8800   23.2660 C.3   722  ILE722      0.0001
    153  N         26.1970   61.3820   23.5820 N.am  723  ASP723     -0.1974
    154  CA        27.2690   61.5790   22.6280 C.3   723  ASP723      0.1709
    155  C         28.6810   61.5240   23.2460 C.2   723  ASP723      0.2293
    156  O         29.4000   62.5410   23.2590 O.2   723  ASP723     -0.2864
    157  CB        27.0990   62.8840   21.8620 C.3   723  ASP723      0.1436
    158  CG        28.0180   62.9720   20.6750 C.2   723  ASP723      0.3671
    159  OD1       29.1270   62.3830   20.7120 O.co2 723  ASP723     -0.2456
    160  OD2       27.6370   63.6440   19.7020 O.co2 723  ASP723     -0.2456
@<TRIPOS>BOND
     1     4     3    2
     2    15    16    1
     3    15    21    1
     4    12    11    2
     5    17    18    2
     6    17    16    1
     7     1     2    1
     8    16    19    1
     9    46    47    2
    10    46    45    1
    11     3     2    1
    12    21    20    1
    13    11    10    1
    14     2     5    1
    15    45    44    1
    16    45    48    1
    17    22    23    1
    18    25    24    2
    19     9    10    1
    20    19    20    1
    21    49    48    1
    22    49    50    1
    23    24    23    1
    24    10    13    1
    25     5     6    1
    26    23    26    1
    27    14    13    1
    28    50    51    1
    29    26    27    1
    30     6     7    1
    31    28    27   ar
    32    28    30   ar
    33    27    29   ar
    34     8     7    1
    35    51    52    1
    36    38    37    1
    37    38    39    2
    38    37    40    1
    39    37    36    1
    40    42    40    1
    41    30    31   ar
    42    60    58    1
    43    29    31   ar
    44    29    32   ar
    45    40    41    1
    46    53    54    1
    47    31    33   ar
    48    32    34   ar
    49    59    58    1
    50    41    43    1
    51    58    57    1
    52    57    54    1
    53    54    55    1
    54    33    35   ar
    55    81    82    1
    56   105   103    1
    57    34    35   ar
    58    88    86    1
    59    84    83    2
    60    86    85    1
    61    55    56    2
    62   103   102    1
    63    85    82    1
    64    85    87    1
    65    82    83    1
    66   160   158   ar
    67    83    89   am
    68   102   104    1
    69   102    99    1
    70   158   159   ar
    71   158   157    1
    72    67    66   ar
    73    89    90    1
    74    98    99    1
    75    98    91   am
    76    90    91    1
    77    90    93    1
    78    99   100    1
    79    66    68   ar
    80    66    65    1
    81    91    92    2
    82   157   154    1
    83    65    62    1
    84    61    62    1
    85   154   155    1
    86   154   153    1
    87   125   123   am
    88    93    94    1
    89   100   101    2
    90   100   106   am
    91    62    63    1
    92   155   156    2
    93   152   150    1
    94   153   147   am
    95    94    95    1
    96    63    64    2
    97   123   124    2
    98   123   122    1
    99   106   107    1
   100    77    75   ar
   101    77    79   ar
   102   133   132    1
   103   116   115    2
   104   150   149    1
   105   132   131    1
   106    75    74   ar
   107   109   108    2
   108    80    79    1
   109   147   148    2
   110   147   146    1
   111   149   151    1
   112   149   146    1
   113   118   119    1
   114    95    97   ar
   115    95    96   ar
   116   108   107    1
   117    79    78   ar
   118   119   122    1
   119   119   120    1
   120   107   110    1
   121   115   114    1
   122   146   145    1
   123    74    73    1
   124    74    76   ar
   125   131   130    1
   126    72    71    2
   127    71    70    1
   128   113   114    1
   129    73    70    1
   130    78    76   ar
   131   110   112    1
   132   110   111    1
   133   120   121    2
   134   117   114    1
   135    70    69    1
   136   130   127    1
   137   142   144   ar
   138   142   140   ar
   139   144   143   ar
   140   127   126    1
   141   127   128    1
   142   140   139   ar
   143   143   141   ar
   144   128   129    2
   145   137   136    2
   146   139   141   ar
   147   139   138    1
   148   136   135    1
   149   138   135    1
   150   135   134    1
