@<TRIPOS>MOLECULE
tmp/3r7rA00.pdb
 200 188 0 0 0
SMALL
GASTEIGER

@<TRIPOS>ATOM
      1  N         13.6920   60.8670   11.1030 N.3   562  LYS562     -0.1245
      2  CA        14.2840   62.1030   10.6210 C.3   562  LYS562      0.1561
      3  C         15.8160   62.1020   10.7030 C.2   562  LYS562      0.2260
      4  O         16.4240   61.1600   11.2080 O.2   562  LYS562     -0.2867
      5  CB        13.6950   63.3000   11.3810 C.3   562  LYS562      0.0271
      6  CG        14.0670   63.4080   12.8880 C.3   562  LYS562      0.0035
      7  CD        13.9450   64.8600   13.4020 C.3   562  LYS562      0.0206
      8  CE        14.3710   65.0580   14.8860 C.3   562  LYS562      0.1093
      9  NZ        13.3790   64.6250   15.9360 N.3   562  LYS562     -0.1314
     10  N         19.0750   64.1610   12.1740 N.3   564  MET564     -0.1245
     11  CA        19.4000   65.1460   13.1950 C.3   564  MET564      0.1570
     12  C         20.3290   66.2250   12.6630 C.2   564  MET564      0.2261
     13  O         21.1640   65.9710   11.7940 O.2   564  MET564     -0.2867
     14  CB        20.0130   64.4570   14.4050 C.3   564  MET564      0.0387
     15  CG        19.0910   63.4310   15.0510 C.3   564  MET564      0.0595
     16  SD        19.6780   62.9070   16.6600 S.3   564  MET564     -0.1393
     17  CE        20.6610   61.4830   16.2040 C.3   564  MET564      0.0692
     18  N         23.3230   68.0390   13.1700 N.3   566  SER566     -0.1217
     19  CA        24.6330   68.0300   13.8130 C.3   566  SER566      0.1889
     20  C         25.6910   67.8950   12.7110 C.2   566  SER566      0.2288
     21  O         25.3420   67.5750   11.5720 O.2   566  SER566     -0.2866
     22  CB        24.7470   66.9080   14.8440 C.3   566  SER566      0.2089
     23  OG        24.3110   65.6710   14.3090 O.3   566  SER566     -0.2183
     24  N         23.3350   61.9550   11.5940 N.3   570  PRO570     -0.2116
     25  CA        22.7790   60.6880   12.0600 C.3   570  PRO570      0.1372
     26  C         21.2650   60.6280   11.9520 C.2   570  PRO570      0.2244
     27  O         20.5820   61.6490   11.9900 O.2   570  PRO570     -0.2868
     28  CB        23.2110   60.6710   13.5230 C.3   570  PRO570      0.0268
     29  CG        23.1920   62.0840   13.9140 C.3   570  PRO570      0.0207
     30  CD        23.7170   62.8200   12.7180 C.3   570  PRO570      0.0892
     31  N         17.4050   59.5180   13.0600 N.3   572  TRP572     -0.1241
     32  CA        16.6030   59.3900   14.2540 C.3   572  TRP572      0.1605
     33  C         15.4720   58.4770   13.8400 C.2   572  TRP572      0.2264
     34  O         14.5030   58.9120   13.2130 O.2   572  TRP572     -0.2867
     35  CB        16.0980   60.7800   14.6300 C.3   572  TRP572      0.0550
     36  CG        15.0110   60.8060   15.6490 C.ar  572  TRP572      0.0003
     37  CD1       13.7150   60.4360   15.4690 C.ar  572  TRP572      0.0946
     38  CD2       15.1170   61.2400   17.0120 C.ar  572  TRP572      0.0152
     39  NE1       13.0130   60.5900   16.6350 N.ar  572  TRP572     -0.2442
     40  CE2       13.8510   61.0870   17.5950 C.ar  572  TRP572      0.0810
     41  CE3       16.1650   61.7320   17.7920 C.ar  572  TRP572      0.0012
     42  CZ2       13.5970   61.4180   18.9180 C.ar  572  TRP572      0.0191
     43  CZ3       15.9100   62.0580   19.1120 C.ar  572  TRP572      0.0001
     44  CH2       14.6400   61.9010   19.6580 C.ar  572  TRP572      0.0015
     45  N         19.1790   55.8560   17.4160 N.3   591  ILE591     -0.1245
     46  CA        19.9260   56.8190   16.6260 C.3   591  ILE591      0.1561
     47  C         20.9630   56.0250   15.8710 C.2   591  ILE591      0.2260
     48  O         21.6590   55.2040   16.4630 O.2   591  ILE591     -0.2867
     49  CB        20.6320   57.8360   17.5390 C.3   591  ILE591      0.0252
     50  CG1       19.6650   58.9220   18.0120 C.3   591  ILE591      0.0019
     51  CG2       21.8030   58.4640   16.7860 C.3   591  ILE591      0.0019
     52  CD1       20.0330   59.5370   19.3430 C.3   591  ILE591      0.0001
     53  N         24.3880   56.4140   13.5750 N.3   593  LYS593     -0.1245
     54  CA        25.3670   57.4110   13.1880 C.3   593  LYS593      0.1561
     55  C         26.5780   56.8080   12.5090 C.2   593  LYS593      0.2260
     56  O         27.0380   55.7310   12.9120 O.2   593  LYS593     -0.2867
     57  CB        25.8000   58.2770   14.3740 C.3   593  LYS593      0.0271
     58  CG        26.9210   59.2300   13.9810 C.3   593  LYS593      0.0035
     59  CD        27.0970   60.4170   14.8990 C.3   593  LYS593      0.0206
     60  CE        27.5190   59.9700   16.2700 C.3   593  LYS593      0.1093
     61  NZ        27.7860   61.1290   17.1610 N.3   593  LYS593     -0.1314
     62  N         32.3960   54.6660   17.8560 N.3   598  LEU598     -0.1245
     63  CA        31.5130   54.5010   18.9910 C.3   598  LEU598      0.1561
     64  C         32.1030   53.5760   20.0390 C.2   598  LEU598      0.2260
     65  O         31.5220   53.3880   21.1020 O.2   598  LEU598     -0.2867
     66  CB        30.1610   53.9880   18.5330 C.3   598  LEU598      0.0270
     67  CG        29.0890   55.0170   18.1810 C.3   598  LEU598      0.0019
     68  CD1       29.6530   56.4210   18.0670 C.3   598  LEU598      0.0001
     69  CD2       28.4300   54.5780   16.8910 C.3   598  LEU598      0.0001
     70  N         32.7960   55.4780   23.1870 N.3   601  ASP601     -0.1239
     71  CA        31.5730   55.6750   23.9410 C.3   601  ASP601      0.1674
     72  C         31.1670   54.3810   24.6210 C.2   601  ASP601      0.2266
     73  O         30.8030   54.4060   25.7870 O.2   601  ASP601     -0.2867
     74  CB        30.4380   56.1880   23.0700 C.3   601  ASP601      0.1410
     75  CG        30.7150   57.5600   22.4700 C.2   601  ASP601      0.3668
     76  OD1       31.7260   57.7020   21.7220 O.co2 601  ASP601     -0.2456
     77  OD2       29.9410   58.5020   22.7630 O.co2 601  ASP601     -0.2456
     78  N         22.9410   54.9830   28.8050 N.3   627  TYR627     -0.1241
     79  CA        22.0860   54.5590   27.7020 C.3   627  TYR627      0.1605
     80  C         22.8330   53.5570   26.8340 C.2   627  TYR627      0.2264
     81  O         24.0550   53.4740   26.8570 O.2   627  TYR627     -0.2867
     82  CB        21.6370   55.7860   26.9040 C.3   627  TYR627      0.0534
     83  CG        22.8240   56.6060   26.4630 C.ar  627  TYR627     -0.0201
     84  CD1       23.5380   56.2650   25.3130 C.ar  627  TYR627     -0.0009
     85  CD2       23.2650   57.6800   27.2130 C.ar  627  TYR627     -0.0009
     86  CE1       24.6440   56.9840   24.9270 C.ar  627  TYR627      0.0417
     87  CE2       24.3710   58.4100   26.8370 C.ar  627  TYR627      0.0417
     88  CZ        25.0580   58.0590   25.6950 C.ar  627  TYR627      0.1957
     89  OH        26.1680   58.7860   25.3230 O.3   627  TYR627     -0.2866
     90  N         22.6190   53.9750   18.9790 N.3   639  ILE639     -0.1231
     91  CA        22.5420   54.5510   20.3150 C.3   639  ILE639      0.1692
     92  C         21.0950   54.6010   20.7840 C.2   639  ILE639      0.2592
     93  O         20.1830   54.8730   19.9960 O.2   639  ILE639     -0.2718
     94  CB        23.0920   55.9780   20.3240 C.3   639  ILE639      0.0266
     95  CG1       24.5530   55.9740   19.8500 C.3   639  ILE639      0.0019
     96  CG2       22.9020   56.6070   21.6910 C.3   639  ILE639      0.0020
     97  CD1       25.1890   57.3420   19.6730 C.3   639  ILE639      0.0001
     98  N         20.8640   54.3120   22.0580 N.am  640  GLU640     -0.1966
     99  CA        19.5110   54.3470   22.5810 C.3   640  GLU640      0.1733
    100  C         19.0430   55.7810   22.7140 C.2   640  GLU640      0.2616
    101  O         19.8100   56.6480   23.1210 O.2   640  GLU640     -0.2715
    102  CB        19.4450   53.7140   23.9370 C.3   640  GLU640      0.0429
    103  CG        18.1380   53.9560   24.6220 C.3   640  GLU640      0.1163
    104  CD        18.0460   53.2760   25.9620 C.2   640  GLU640      0.3649
    105  OE1       16.9520   53.3230   26.5640 O.co2 640  GLU640     -0.2457
    106  OE2       19.0570   52.7140   26.4270 O.co2 640  GLU640     -0.2457
    107  N         17.7790   56.0180   22.3860 N.am  641  ILE641     -0.1963
    108  CA        17.1660   57.3240   22.5470 C.3   641  ILE641      0.1727
    109  C         16.4520   57.3070   23.8870 C.2   641  ILE641      0.2616
    110  O         15.4840   56.5570   24.0880 O.2   641  ILE641     -0.2715
    111  CB        16.1230   57.6110   21.4660 C.3   641  ILE641      0.0290
    112  CG1       16.7890   58.0350   20.1810 C.3   641  ILE641      0.0022
    113  CG2       15.2030   58.7170   21.9300 C.3   641  ILE641      0.0023
    114  CD1       15.8140   58.2550   19.0260 C.3   641  ILE641      0.0001
    115  N         16.9510   58.1200   24.8050 N.am  642  VAL642     -0.1977
    116  CA        16.3580   58.2010   26.1080 C.3   642  VAL642      0.1596
    117  C         15.1070   59.0020   25.9470 C.2   642  VAL642      0.2287
    118  O         15.1650   60.1330   25.4660 O.2   642  VAL642     -0.2864
    119  CB        17.2760   58.9070   27.0930 C.3   642  VAL642      0.0276
    120  CG1       16.5790   59.1070   28.4140 C.3   642  VAL642      0.0022
    121  CG2       18.5510   58.0960   27.2690 C.3   642  VAL642      0.0022
    122  N         13.8110   63.4850   26.8920 N.3   645  ALA645     -0.1231
    123  CA        15.1300   64.0380   27.2350 C.3   645  ALA645      0.1694
    124  C         15.5280   65.2110   26.3640 C.2   645  ALA645      0.2593
    125  O         15.2210   65.2410   25.1590 O.2   645  ALA645     -0.2718
    126  CB        16.1860   62.9420   27.1670 C.3   645  ALA645      0.0304
    127  N         16.2150   66.1860   26.9320 N.am  646  THR646     -0.1939
    128  CA        16.7200   67.3030   26.1310 C.3   646  THR646      0.2028
    129  C         18.1280   67.6720   26.5580 C.2   646  THR646      0.2642
    130  O         18.5970   67.2490   27.6200 O.2   646  THR646     -0.2714
    131  CB        15.8410   68.5530   26.2500 C.3   646  THR646      0.1808
    132  OG1       14.4610   68.1940   26.2310 O.3   646  THR646     -0.2208
    133  CG2       16.1160   69.5160   25.1180 C.3   646  THR646      0.0379
    134  N         18.7950   68.4540   25.7250 N.am  647  THR647     -0.1950
    135  CA        20.1380   68.9340   25.9600 C.3   647  THR647      0.1897
    136  C         20.0480   70.1830   26.8490 C.2   647  THR647      0.2313
    137  O         19.0900   70.9350   26.7360 O.2   647  THR647     -0.2863
    138  CB        20.8180   69.2540   24.6090 C.3   647  THR647      0.1794
    139  OG1       20.8740   68.0330   23.8190 O.3   647  THR647     -0.2208
    140  CG2       22.2230   69.7740   24.7930 C.3   647  THR647      0.0378
    141  N         20.0860   73.1320   24.5980 N.3   650  LYS650     -0.1245
    142  CA        18.8350   73.3720   23.8900 C.3   650  LYS650      0.1561
    143  C         17.8510   74.1380   24.7610 C.2   650  LYS650      0.2260
    144  O         17.1230   75.0140   24.2770 O.2   650  LYS650     -0.2867
    145  CB        18.2060   72.0360   23.4520 C.3   650  LYS650      0.0271
    146  CG        16.9230   72.1890   22.6340 C.3   650  LYS650      0.0035
    147  CD        16.2100   70.8440   22.4280 C.3   650  LYS650      0.0206
    148  CE        14.9580   71.0110   21.5480 C.3   650  LYS650      0.1093
    149  NZ        15.2560   71.3380   20.1120 N.3   650  LYS650     -0.1314
    150  N         26.3380   71.3430   25.4970 N.3   710  ASP710     -0.1225
    151  CA        25.6400   70.6180   24.4290 C.3   710  ASP710      0.1805
    152  C         25.8710   69.0840   24.5430 C.2   710  ASP710      0.2597
    153  O         25.2280   68.2850   23.8420 O.2   710  ASP710     -0.2718
    154  CB        26.1090   71.1790   23.0750 C.3   710  ASP710      0.1424
    155  CG        25.1520   70.8920   21.9280 C.2   710  ASP710      0.3668
    156  OD1       23.9350   71.1390   22.0810 O.co2 710  ASP710     -0.2456
    157  OD2       25.6340   70.4610   20.8520 O.co2 710  ASP710     -0.2456
    158  N         26.8150   68.6900   25.3760 N.am  711  ASN711     -0.1974
    159  CA        27.2170   67.3180   25.6620 C.3   711  ASN711      0.1688
    160  C         26.5830   66.7420   26.9510 C.2   711  ASN711      0.2292
    161  O         27.0840   65.7520   27.4950 O.2   711  ASN711     -0.2864
    162  CB        28.7210   67.1450   25.6240 C.3   711  ASN711      0.1181
    163  CG        29.3680   67.5420   24.2840 C.2   711  ASN711      0.2629
    164  OD1       30.4100   68.2190   24.2720 O.2   711  ASN711     -0.2716
    165  ND2       28.7790   67.1040   23.1620 N.am  711  ASN711     -0.0877
    166  N         22.7160   66.1290   28.9750 N.3   713  MET713     -0.1245
    167  CA        21.2630   66.1590   28.8670 C.3   713  MET713      0.1570
    168  C         20.5680   66.0030   30.2240 C.2   713  MET713      0.2261
    169  O         21.2060   65.7690   31.2570 O.2   713  MET713     -0.2867
    170  CB        20.8180   65.0740   27.8900 C.3   713  MET713      0.0387
    171  CG        21.3630   65.2980   26.4860 C.3   713  MET713      0.0595
    172  SD        20.9140   64.0950   25.2330 S.3   713  MET713     -0.1393
    173  CE        19.1790   64.4140   25.0140 C.3   713  MET713      0.0692
    174  N         22.3210   63.6310   32.7150 N.3   721  PHE721     -0.1241
    175  CA        23.2190   62.5950   32.1740 C.3   721  PHE721      0.1605
    176  C         24.1030   63.0540   31.0350 C.2   721  PHE721      0.2264
    177  O         23.6350   63.7850   30.1690 O.2   721  PHE721     -0.2867
    178  CB        22.4240   61.3540   31.7880 C.3   721  PHE721      0.0534
    179  CG        21.5740   61.5080   30.5550 C.ar  721  PHE721     -0.0203
    180  CD1       22.0110   61.0280   29.3450 C.ar  721  PHE721     -0.0042
    181  CD2       20.3080   62.0570   30.6170 C.ar  721  PHE721     -0.0042
    182  CE1       21.2250   61.1360   28.2080 C.ar  721  PHE721     -0.0003
    183  CE2       19.5110   62.1600   29.4710 C.ar  721  PHE721     -0.0003
    184  CZ        19.9770   61.6960   28.2720 C.ar  721  PHE721     -0.0000
    185  N         26.6050   62.6850   27.5020 N.3   723  ILE723     -0.1231
    186  CA        26.6150   62.0100   26.2020 C.3   723  ILE723      0.1692
    187  C         27.8560   62.3220   25.3730 C.2   723  ILE723      0.2592
    188  O         28.7610   62.9970   25.8470 O.2   723  ILE723     -0.2718
    189  CB        25.4050   62.3880   25.3340 C.3   723  ILE723      0.0266
    190  CG1       25.3920   63.9060   25.0700 C.3   723  ILE723      0.0019
    191  CG2       24.1080   61.9010   25.9490 C.3   723  ILE723      0.0020
    192  CD1       24.5280   64.2720   23.8970 C.3   723  ILE723      0.0001
    193  N         27.8980   61.8420   24.1350 N.am  724  ASP724     -0.1974
    194  CA        29.0150   62.1000   23.1970 C.3   724  ASP724      0.1709
    195  C         30.3930   61.9950   23.8600 C.2   724  ASP724      0.2293
    196  O         31.1230   62.9750   23.9460 O.2   724  ASP724     -0.2864
    197  CB        28.8520   63.4700   22.5370 C.3   724  ASP724      0.1436
    198  CG        29.7520   63.6380   21.3150 C.2   724  ASP724      0.3671
    199  OD1       30.8280   63.0110   21.2610 O.co2 724  ASP724     -0.2456
    200  OD2       29.3970   64.4270   20.4120 O.co2 724  ASP724     -0.2456
@<TRIPOS>BOND
     1     2     3    1
     2     2     1    1
     3     2     5    1
     4     3     4    2
     5     5     6    1
     6    21    20    2
     7    24    25    1
     8    24    30    1
     9    13    12    2
    10    26    27    2
    11    26    25    1
    12    25    28    1
    13    10    11    1
    14    55    56    2
    15    55    54    1
    16    12    11    1
    17    20    19    1
    18    30    29    1
    19     6     7    1
    20    31    32    1
    21    18    19    1
    22    54    53    1
    23    54    57    1
    24    11    14    1
    25    34    33    2
    26     7     8    1
    27    28    29    1
    28    19    22    1
    29    33    32    1
    30    58    57    1
    31    58    59    1
    32    32    35    1
    33    23    22    1
    34    14    15    1
    35    35    36    1
    36     8     9    1
    37    59    60    1
    38    15    16    1
    39    37    36   ar
    40    37    39   ar
    41    36    38   ar
    42    47    48    2
    43    47    46    1
    44    17    16    1
    45    60    61    1
    46    46    45    1
    47    46    49    1
    48    39    40   ar
    49    51    49    1
    50    69    67    1
    51    38    40   ar
    52    38    41   ar
    53    49    50    1
    54    40    42   ar
    55    41    43   ar
    56    62    63    1
    57    50    52    1
    58    68    67    1
    59    67    66    1
    60    66    63    1
    61    42    44   ar
    62    90    91    1
    63    63    64    1
    64   114   112    1
    65    43    44   ar
    66    97    95    1
    67    95    94    1
    68    93    92    2
    69    64    65    2
    70   149   148    1
    71   112   111    1
    72    91    94    1
    73    91    92    1
    74    94    96    1
    75   200   198   ar
    76    92    98   am
    77   157   155   ar
    78   199   198   ar
    79   198   197    1
    80   111   113    1
    81   111   108    1
    82   148   147    1
    83    76    75   ar
    84   155   156   ar
    85   155   154    1
    86    98    99    1
    87   107   108    1
    88   107   100   am
    89   147   146    1
    90    75    77   ar
    91    75    74    1
    92   197   194    1
    93   108   109    1
    94    99   100    1
    95    99   102    1
    96   146   145    1
    97   100   101    2
    98    74    71    1
    99   154   151    1
   100   165   163   am
   101    70    71    1
   102   194   195    1
   103   194   193    1
   104   145   142    1
   105   139   138    1
   106   153   152    2
   107   195   196    2
   108   109   110    2
   109   109   115   am
   110   142   141    1
   111   142   143    1
   112   192   190    1
   113   102   103    1
   114    71    72    1
   115   193   187   am
   116   164   163    2
   117   144   143    2
   118   163   162    1
   119   151   152    1
   120   151   150    1
   121   152   158   am
   122   138   140    1
   123   138   135    1
   124    72    73    2
   125   103   104    1
   126   115   116    1
   127    86    84   ar
   128    86    88   ar
   129   173   172    1
   130   190   189    1
   131   133   131    1
   132   125   124    2
   133   172   171    1
   134    84    83   ar
   135    89    88    1
   136   189   191    1
   137   189   186    1
   138   187   188    2
   139   187   186    1
   140   158   159    1
   141   118   117    2
   142   162   159    1
   143   159   160    1
   144    88    87   ar
   145   134   135    1
   146   134   129   am
   147   117   116    1
   148   135   136    1
   149   104   106   ar
   150   104   105   ar
   151   116   119    1
   152   128   131    1
   153   128   129    1
   154   128   127    1
   155   186   185    1
   156   132   131    1
   157   124   127   am
   158   124   123    1
   159    83    82    1
   160    83    85   ar
   161   171   170    1
   162   129   130    2
   163   137   136    2
   164    80    81    2
   165    80    79    1
   166    87    85   ar
   167   122   123    1
   168    82    79    1
   169   160   161    2
   170   119   121    1
   171   119   120    1
   172   126   123    1
   173    79    78    1
   174   170   167    1
   175   182   184   ar
   176   182   180   ar
   177   184   183   ar
   178   167   166    1
   179   167   168    1
   180   180   179   ar
   181   183   181   ar
   182   177   176    2
   183   168   169    2
   184   179   181   ar
   185   179   178    1
   186   176   175    1
   187   178   175    1
   188   175   174    1
