@<TRIPOS>MOLECULE
tmp/3r7uA00.pdb
 167 157 0 0 0
SMALL
GASTEIGER

@<TRIPOS>ATOM
      1  N         94.5420   91.8950  -44.0660 N.3     8  GLU8       -0.1245
      2  CA        94.0910   91.1000  -42.9350 C.3     8  GLU8        0.1567
      3  C         94.8920   89.8090  -42.8460 C.2     8  GLU8        0.2260
      4  O         95.4450   89.3400  -43.8400 O.2     8  GLU8       -0.2867
      5  CB        92.6100   90.7650  -43.1260 C.3     8  GLU8        0.0388
      6  CG        91.9340   90.0850  -41.9580 C.3     8  GLU8        0.1160
      7  CD        90.5710   89.5320  -42.3350 C.2     8  GLU8        0.3649
      8  OE1       89.8150   90.2330  -43.0450 O.co2   8  GLU8       -0.2457
      9  OE2       90.2530   88.3980  -41.9160 O.co2   8  GLU8       -0.2457
     10  N         94.6730   86.0870  -42.5880 N.3    10  ILE10      -0.1231
     11  CA        93.6510   85.0760  -42.7890 C.3    10  ILE10       0.1692
     12  C         94.0140   83.6770  -42.3130 C.2    10  ILE10       0.2592
     13  O         93.3390   82.7000  -42.6570 O.2    10  ILE10      -0.2718
     14  CB        93.2110   85.0300  -44.2700 C.3    10  ILE10       0.0266
     15  CG1       94.4100   84.7760  -45.1820 C.3    10  ILE10       0.0019
     16  CG2       92.5580   86.3530  -44.6420 C.3    10  ILE10       0.0020
     17  CD1       94.0640   84.8160  -46.6720 C.3    10  ILE10       0.0001
     18  N         95.0740   83.5730  -41.5150 N.am   11  GLY11      -0.1957
     19  CA        95.4510   82.2660  -41.0090 C.3    11  GLY11       0.1869
     20  C         96.9060   82.0130  -40.6680 C.2    11  GLY11       0.2309
     21  O         97.7910   82.8290  -40.9330 O.2    11  GLY11      -0.2863
     22  N         98.9050   79.1790  -41.7030 N.3    13  GLY13      -0.1225
     23  CA        99.1090   78.0070  -42.5370 C.3    13  GLY13       0.1811
     24  C        100.0670   76.9640  -41.9920 C.2    13  GLY13       0.2280
     25  O        100.7570   77.1810  -40.9930 O.2    13  GLY13      -0.2866
     26  N         99.6330   83.6130  -43.2650 N.3    18  VAL18      -0.1245
     27  CA        99.0100   83.9810  -44.5360 C.3    18  VAL18       0.1561
     28  C         98.2050   85.2580  -44.3690 C.2    18  VAL18       0.2260
     29  O         97.4500   85.4130  -43.4080 O.2    18  VAL18      -0.2867
     30  CB        98.0920   82.8490  -45.0730 C.3    18  VAL18       0.0252
     31  CG1       97.0040   82.5450  -44.0760 C.3    18  VAL18       0.0019
     32  CG2       97.4970   83.2440  -46.4280 C.3    18  VAL18       0.0019
     33  N         95.7780   88.4380  -46.3710 N.3    20  LYS20      -0.1245
     34  CA        95.0150   88.8350  -47.5440 C.3    20  LYS20       0.1561
     35  C         95.7960   90.1120  -47.8200 C.2    20  LYS20       0.2260
     36  O         96.0510   90.8920  -46.8970 O.2    20  LYS20      -0.2867
     37  CB        93.5680   89.1620  -47.1940 C.3    20  LYS20       0.0271
     38  CG        92.7430   89.7040  -48.3740 C.3    20  LYS20       0.0035
     39  CD        91.3500   90.0570  -47.8790 C.3    20  LYS20       0.0206
     40  CE        90.4340   90.5190  -49.0030 C.3    20  LYS20       0.1093
     41  NZ        89.0820   90.7770  -48.4590 N.3    20  LYS20      -0.1314
     42  N         96.2460   86.1790  -51.7790 N.3    31  ALA31      -0.1245
     43  CA        96.5370   85.5650  -50.4920 C.3    31  ALA31       0.1562
     44  C         98.0690   85.4470  -50.5440 C.2    31  ALA31       0.2260
     45  O         98.6240   84.8490  -51.4700 O.2    31  ALA31      -0.2867
     46  CB        95.8960   84.1700  -50.3740 C.3    31  ALA31       0.0290
     47  N        101.4210   84.0460  -48.7000 N.3    33  LYS33      -0.1245
     48  CA       101.9050   83.1610  -47.6540 C.3    33  LYS33       0.1561
     49  C        103.4040   83.3170  -47.4750 C.2    33  LYS33       0.2260
     50  O        104.1520   83.2630  -48.4400 O.2    33  LYS33      -0.2867
     51  CB       101.5790   81.7010  -47.9770 C.3    33  LYS33       0.0271
     52  CG       101.9730   80.7740  -46.8390 C.3    33  LYS33       0.0035
     53  CD       101.2620   79.4380  -46.8850 C.3    33  LYS33       0.0206
     54  CE       101.6260   78.6320  -45.6380 C.3    33  LYS33       0.1093
     55  NZ       100.9180   77.3320  -45.5180 N.3    33  LYS33      -0.1314
     56  N         93.3730   76.4510  -56.9050 N.3    56  VAL56      -0.1245
     57  CA        93.7360   77.8230  -56.5720 C.3    56  VAL56       0.1561
     58  C         95.0440   78.1890  -57.3100 C.2    56  VAL56       0.2260
     59  O         96.0910   77.5640  -57.1220 O.2    56  VAL56      -0.2867
     60  CB        93.8950   77.9710  -55.0260 C.3    56  VAL56       0.0252
     61  CG1       94.3970   79.3680  -54.6650 C.3    56  VAL56       0.0019
     62  CG2       92.5290   77.7080  -54.3590 C.3    56  VAL56       0.0019
     63  N         98.9910   83.6400  -54.0290 N.3    72  PHE72      -0.1227
     64  CA        97.9040   82.8370  -54.5450 C.3    72  PHE72       0.1736
     65  C         96.6660   83.6370  -54.8660 C.2    72  PHE72       0.2595
     66  O         96.4190   84.6970  -54.3040 O.2    72  PHE72      -0.2718
     67  CB        97.4860   81.7940  -53.4980 C.3    72  PHE72       0.0547
     68  CG        98.4360   80.6440  -53.3670 C.ar   72  PHE72      -0.0202
     69  CD1       98.5140   79.6750  -54.3600 C.ar   72  PHE72      -0.0042
     70  CD2       99.2450   80.5190  -52.2400 C.ar   72  PHE72      -0.0042
     71  CE1       99.3840   78.5950  -54.2320 C.ar   72  PHE72      -0.0003
     72  CE2      100.1120   79.4380  -52.1110 C.ar   72  PHE72      -0.0003
     73  CZ       100.1810   78.4780  -53.1070 C.ar   72  PHE72      -0.0000
     74  N         95.8880   83.0900  -55.7860 N.am   73  GLU73      -0.1965
     75  CA        94.5820   83.6380  -56.1470 C.3    73  GLU73       0.1733
     76  C         93.7860   83.7080  -54.8200 C.2    73  GLU73       0.2616
     77  O         93.9100   82.8170  -53.9820 O.2    73  GLU73      -0.2715
     78  CB        93.9180   82.6460  -57.1150 C.3    73  GLU73       0.0429
     79  CG        92.4260   82.7900  -57.3020 C.3    73  GLU73       0.1163
     80  CD        91.8160   81.6520  -58.1170 C.2    73  GLU73       0.3649
     81  OE1       90.5910   81.7010  -58.3540 O.co2  73  GLU73      -0.2457
     82  OE2       92.5410   80.7110  -58.5140 O.co2  73  GLU73      -0.2457
     83  N         92.9870   84.7550  -54.6160 N.am   74  PHE74      -0.1960
     84  CA        92.2060   84.8900  -53.3750 C.3    74  PHE74       0.1771
     85  C         90.7380   84.4490  -53.5150 C.2    74  PHE74       0.2619
     86  O         90.0790   84.7620  -54.5190 O.2    74  PHE74      -0.2715
     87  CB        92.2130   86.3640  -52.8890 C.3    74  PHE74       0.0574
     88  CG        91.4150   86.6090  -51.6340 C.ar   74  PHE74      -0.0200
     89  CD1       90.1170   87.1350  -51.6990 C.ar   74  PHE74      -0.0042
     90  CD2       91.9520   86.3100  -50.3840 C.ar   74  PHE74      -0.0042
     91  CE1       89.3770   87.3620  -50.5390 C.ar   74  PHE74      -0.0003
     92  CE2       91.2160   86.5310  -49.2060 C.ar   74  PHE74      -0.0003
     93  CZ        89.9200   87.0620  -49.2870 C.ar   74  PHE74      -0.0000
     94  N         90.2520   83.7020  -52.5230 N.am   75  LEU75      -0.1963
     95  CA        88.8440   83.2920  -52.4580 C.3    75  LEU75       0.1728
     96  C         88.3940   83.6630  -51.0530 C.2    75  LEU75       0.2616
     97  O         89.1750   83.5800  -50.1060 O.2    75  LEU75      -0.2715
     98  CB        88.6200   81.7920  -52.7190 C.3    75  LEU75       0.0311
     99  CG        88.6070   81.4670  -54.2190 C.3    75  LEU75       0.0022
    100  CD1       90.0340   81.1230  -54.6470 C.3    75  LEU75       0.0001
    101  CD2       87.6690   80.2920  -54.5340 C.3    75  LEU75       0.0001
    102  N         87.1330   84.0710  -50.9280 N.am   76  HIS76      -0.1959
    103  CA        86.5950   84.5650  -49.6670 C.3    76  HIS76       0.1787
    104  C         86.2480   83.6340  -48.5250 C.2    76  HIS76       0.2620
    105  O         86.1070   84.0920  -47.3740 O.2    76  HIS76      -0.2715
    106  CB        85.3720   85.4340  -49.9590 C.3    76  HIS76       0.0785
    107  CG        85.7090   86.7640  -50.5540 C.ar   76  HIS76       0.0821
    108  ND1       85.9250   86.9450  -51.9020 N.ar   76  HIS76      -0.2267
    109  CD2       85.8930   87.9750  -49.9740 C.ar   76  HIS76       0.1154
    110  CE1       86.2310   88.2140  -52.1290 C.ar   76  HIS76       0.1986
    111  NE2       86.2210   88.8570  -50.9750 N.ar   76  HIS76      -0.2212
    112  N         86.0980   82.3440  -48.8050 N.am   77  GLN77      -0.1963
    113  CA        85.7180   81.4440  -47.7220 C.3    77  GLN77       0.1733
    114  C         86.2520   80.0400  -47.9520 C.2    77  GLN77       0.2616
    115  O         86.5750   79.6710  -49.0800 O.2    77  GLN77      -0.2715
    116  CB        84.1940   81.4190  -47.6210 C.3    77  GLN77       0.0408
    117  CG        83.6090   80.8050  -46.3500 C.3    77  GLN77       0.0908
    118  CD        82.1680   81.2450  -46.1270 C.2    77  GLN77       0.2608
    119  OE1       81.8990   82.4240  -45.8670 O.2    77  GLN77      -0.2717
    120  NE2       81.2340   80.3100  -46.2390 N.am   77  GLN77      -0.0878
    121  N         86.3960   79.2810  -46.8690 N.am   78  ASP78      -0.1971
    122  CA        86.8340   77.8990  -47.0100 C.3    78  ASP78       0.1709
    123  C         85.6630   76.9890  -46.6740 C.2    78  ASP78       0.2293
    124  O         84.6590   77.4340  -46.1270 O.2    78  ASP78      -0.2864
    125  CB        88.0760   77.5680  -46.1580 C.3    78  ASP78       0.1436
    126  CG        87.8490   77.7060  -44.6500 C.2    78  ASP78       0.3671
    127  OD1       86.9080   77.1000  -44.1040 O.co2  78  ASP78      -0.2456
    128  OD2       88.6500   78.4200  -44.0170 O.co2  78  ASP78      -0.2456
    129  N         84.5890   76.5630  -42.8370 N.3    81  LYS81      -0.1245
    130  CA        83.6920   77.6000  -42.3380 C.3    81  LYS81       0.1561
    131  C         82.2820   77.4590  -42.9150 C.2    81  LYS81       0.2260
    132  O         81.2890   77.6370  -42.2000 O.2    81  LYS81      -0.2867
    133  CB        84.2730   78.9910  -42.6370 C.3    81  LYS81       0.0271
    134  CG        85.6100   79.2070  -41.9390 C.3    81  LYS81       0.0035
    135  CD        85.9800   80.6730  -41.8160 C.3    81  LYS81       0.0206
    136  CE        87.3900   80.8400  -41.2800 C.3    81  LYS81       0.1093
    137  NZ        88.4020   80.2520  -42.1990 N.3    81  LYS81      -0.1314
    138  N         89.6350   72.9930  -44.6930 N.3   123  GLN123     -0.1245
    139  CA        90.2970   74.2910  -44.6320 C.3   123  GLN123      0.1566
    140  C         91.0540   74.6790  -45.8890 C.2   123  GLN123      0.2260
    141  O         91.2860   75.8720  -46.1030 O.2   123  GLN123     -0.2867
    142  CB        91.2380   74.3720  -43.4200 C.3   123  GLN123      0.0367
    143  CG        90.5190   74.6410  -42.1070 C.3   123  GLN123      0.0905
    144  CD        91.4570   75.1790  -41.0310 C.2   123  GLN123      0.2608
    145  OE1       92.5050   74.5900  -40.7440 O.2   123  GLN123     -0.2717
    146  NE2       91.0780   76.3040  -40.4290 N.am  123  GLN123     -0.0878
    147  N         88.5840   75.9900  -51.0650 N.3   126  LEU126     -0.1245
    148  CA        88.0320   77.3500  -51.0310 C.3   126  LEU126      0.1561
    149  C         86.8610   77.5500  -51.9740 C.2   126  LEU126      0.2260
    150  O         86.8360   77.0010  -53.0600 O.2   126  LEU126     -0.2867
    151  CB        89.1440   78.3460  -51.3610 C.3   126  LEU126      0.0270
    152  CG        90.4220   78.1010  -50.5430 C.3   126  LEU126      0.0019
    153  CD1       91.4850   79.1800  -50.8880 C.3   126  LEU126      0.0001
    154  CD2       90.0980   78.1380  -49.0200 C.3   126  LEU126      0.0001
    155  N         93.3610   74.1150  -52.6590 N.3   136  ALA136     -0.1231
    156  CA        94.4920   74.9890  -52.3560 C.3   136  ALA136      0.1694
    157  C         95.6410   74.1790  -51.8000 C.2   136  ALA136      0.2592
    158  O         95.4270   73.1860  -51.1030 O.2   136  ALA136     -0.2718
    159  CB        94.0770   76.0800  -51.3530 C.3   136  ALA136      0.0304
    160  N         96.8530   74.6120  -52.1430 N.am  137  ASP137     -0.1974
    161  CA        98.1140   73.9950  -51.7050 C.3   137  ASP137      0.1709
    162  C         98.5310   72.6910  -52.3660 C.2   137  ASP137      0.2293
    163  O         99.2690   71.8990  -51.7840 O.2   137  ASP137     -0.2864
    164  CB        98.1160   73.8380  -50.1830 C.3   137  ASP137      0.1436
    165  CG        97.9290   75.1650  -49.4690 C.2   137  ASP137      0.3671
    166  OD1       98.3340   76.2130  -50.0250 O.co2 137  ASP137     -0.2456
    167  OD2       97.3840   75.1690  -48.3520 O.co2 137  ASP137     -0.2456
@<TRIPOS>BOND
     1    82    80   ar
     2    81    80   ar
     3    80    79    1
     4    58    59    2
     5    58    57    1
     6    79    78    1
     7    78    75    1
     8    56    57    1
     9    57    60    1
    10    75    74    1
    11    75    76    1
    12    74    65   am
    13    60    61    1
    14    60    62    1
    15    65    64    1
    16    65    66    2
    17    76    83   am
    18    76    77    2
    19   100    99    1
    20    83    84    1
    21    64    63    1
    22    64    67    1
    23   101    99    1
    24    86    85    2
    25    69    71   ar
    26    69    68   ar
    27    71    73   ar
    28    99    98    1
    29    85    84    1
    30    85    94   am
    31    67    68    1
    32    84    87    1
    33    68    70   ar
    34    73    72   ar
    35   150   149    2
    36    87    88    1
    37    98    95    1
    38   155   156    1
    39    94    95    1
    40    95    96    1
    41   162   163    2
    42   162   161    1
    43   156   157    1
    44   156   159    1
    45    70    72   ar
    46   160   157   am
    47   160   161    1
    48   110   108   ar
    49   110   111   ar
    50   149   148    1
    51   108   107   ar
    52   157   158    2
    53    42    43    1
    54   161   164    1
    55    89    88   ar
    56    89    91   ar
    57    88    90   ar
    58    45    44    2
    59   151   148    1
    60   151   152    1
    61   147   148    1
    62    96   102   am
    63    96    97    2
    64   111   109   ar
    65   102   103    1
    66   153   152    1
    67   107   109   ar
    68   107   106    1
    69    44    43    1
    70   152   154    1
    71    91    93   ar
    72    43    46    1
    73    90    92   ar
    74   164   165    1
    75   166   165   ar
    76   106   103    1
    77   103   104    1
    78   165   167   ar
    79    93    92   ar
    80   115   114    2
    81    40    41    1
    82    40    39    1
    83   112   104   am
    84   112   113    1
    85    47    48    1
    86   104   105    2
    87    50    49    2
    88    38    39    1
    89    38    37    1
    90    51    48    1
    91    51    52    1
    92   114   113    1
    93   114   121   am
    94    35    34    1
    95    35    36    2
    96   113   116    1
    97    48    49    1
    98   116   117    1
    99    34    37    1
   100    34    33    1
   101   122   121    1
   102   122   123    1
   103   122   125    1
   104    53    52    1
   105    53    54    1
   106   123   124    2
   107    17    15    1
   108    32    30    1
   109   117   118    1
   110   120   118   am
   111   125   126    1
   112   118   119    2
   113   141   140    2
   114   140   139    1
   115    54    55    1
   116    15    14    1
   117    30    27    1
   118    30    31    1
   119   138   139    1
   120   126   127   ar
   121   126   128   ar
   122    16    14    1
   123   139   142    1
   124    27    28    1
   125    27    26    1
   126    28    29    2
   127    14    11    1
   128     1     2    1
   129     4     3    2
   130   142   143    1
   131     5     2    1
   132     5     6    1
   133     8     7   ar
   134     2     3    1
   135   131   130    1
   136   131   132    2
   137   129   130    1
   138    11    10    1
   139    11    12    1
   140    13    12    2
   141   133   130    1
   142   133   134    1
   143    23    24    1
   144    23    22    1
   145     7     6    1
   146     7     9   ar
   147    12    18   am
   148   137   136    1
   149   143   144    1
   150    24    25    2
   151   134   135    1
   152   135   136    1
   153    18    19    1
   154   144   145    2
   155   144   146   am
   156    19    20    1
   157    21    20    2
